data_x15373 
 
_audit_creation_method            'SHELXL-2014/7 and CIFFIX' 
# CIF edited on-the-fly by script CIFFIX (S. Parkin, 2000-2014). 
# CIFFIX: http://xray.uky.edu/people/parkin/programs/ciffix 
_audit_update_record              ? 
 
_shelx_SHELXL_version_number      '2014/7' 
 
_publ_section_exptl_refinement 
; 
H atoms were found in difference Fourier maps, but subsequently included 
in the refinement using riding models, with constrained distances set to 
0.95 %A (C~sp2~H), 0.98 %A (RCH~3~) and 0.99 %A (R~2~CH~2~).  U~iso~(H) 
parameters were set to values of either 1.2U~eq~ or 1.5U~eq~ (RCH~3~ only) 
of the attached atom. 
 
To ensure satisfactory refinement for disordered groups in the structure, 
a combination of constraints and restraints were employed. The constraints 
(SHELXL commands EXYZ and EADP) were used to fix overlapping fragments. 
Restraints were used to ensure the integrity of ill-defined or disordered 
groups (SHELXL command SAME). 
; 
 
_publ_section_references 
; 
Bruker-AXS (2006). 
  <i>APEX2</i> Bruker-AXS Inc., Madison, WI, USA. 
 
Hope, H. (1994). 
  <i>Prog. Inorg. Chem.</i> <b>41</b>, 1--19. 
 
Krause, L., Herbst-Irmer, R., Sheldrick, G.M. & Stalke, D. (2015). 
  <i>J. Appl. Cryst.</i> <b>48</b>, 3--10. 
 
Parkin, S. & Hope, H. (1998). 
  <i>J. Appl. Cryst.</i> <b>31</b>, 945--953. 
 
Parkin, S. (2000). 
  <i>Acta Cryst.</i> A<b>56</b>, 157--162. 
 
Parkin, S. (2013). 
  <i>CIFFIX</i>, http://xray.uky.edu/people/parkin/programs/ciffix 
 
Sheldrick, G.M. (2008). 
  <i>Acta Cryst.</i> A<b>64</b>, 112--122. 
 
Sheldrick, G.M. (2015a). 
  <i>Acta Cryst.</i> A<b>71</b>, 3--8. 
 
Sheldrick, G.M. (2015b). 
  <i>Acta Cryst.</i> C<b>71</b>, 3--8. 
 
Spek, A.L. (2009). 
  <i>Acta Cryst.</i> D<b>65</b>, 148--155. 
; 
 
_publ_section_acknowledgements 
; 
The X8 Proteum diffractometer was funded by the NSF (MRI CHE0319176, 70%), 
and by the University of Kentucky (cost share, 30%). 
; 
 
_chemical_name_systematic         ? 
_chemical_name_common             ? 
_chemical_melting_point           ? 
_chemical_formula_moiety          'C34 H38 S2 Si2' 
_chemical_formula_sum             'C34 H38 S2 Si2' 
_chemical_formula_weight          566.94 
 
loop_ 
 _atom_type_symbol 
 _atom_type_description 
 _atom_type_scat_dispersion_real 
 _atom_type_scat_dispersion_imag 
 _atom_type_scat_source 
 'C'  'C'   0.0181   0.0091 
 'International Tables Vol C Tables 4.2.6.8 and 6.1.1.4' 
 'H'  'H'   0.0000   0.0000 
 'International Tables Vol C Tables 4.2.6.8 and 6.1.1.4' 
 'Si'  'Si'   0.2541   0.3302 
 'International Tables Vol C Tables 4.2.6.8 and 6.1.1.4' 
 'S'  'S'   0.3331   0.5567 
 'International Tables Vol C Tables 4.2.6.8 and 6.1.1.4' 
 
_space_group_crystal_system       triclinic 
_space_group_IT_number            2 
_space_group_name_H-M_alt         'P -1' 
_space_group_name_Hall            '-P 1' 
 
_shelx_space_group_comment 
; 
The symmetry employed for this shelxl refinement is uniquely defined 
by the following loop, which should always be used as a source of 
symmetry information in preference to the above space-group names. 
They are only intended as comments. 
; 
 
loop_ 
 _space_group_symop_operation_xyz 
 'x, y, z' 
 '-x, -y, -z' 
 
_cell_length_a                    6.6763(2) 
_cell_length_b                    7.2490(2) 
_cell_length_c                    16.6736(4) 
_cell_angle_alpha                 97.840(1) 
_cell_angle_beta                  94.768(2) 
_cell_angle_gamma                 103.770(2) 
_cell_volume                      770.80(4) 
_cell_formula_units_Z             1 
_cell_measurement_temperature     90.0(2) 
_cell_measurement_reflns_used     6331 
_cell_measurement_theta_min       2.69 
_cell_measurement_theta_max       68.05 
 
_exptl_crystal_description        'rhombus-shaped slab' 
_exptl_crystal_colour             red 
_exptl_crystal_density_meas       ? 
_exptl_crystal_density_method     ? 
_exptl_crystal_density_diffrn     1.221 
_exptl_crystal_F_000              302 
_exptl_transmission_factor_min    ? 
_exptl_transmission_factor_max    ? 
_exptl_crystal_size_max           0.600 
_exptl_crystal_size_mid           0.550 
_exptl_crystal_size_min           0.200 
_exptl_absorpt_coefficient_mu     2.460 
_shelx_estimated_absorpt_T_min    0.320 
_shelx_estimated_absorpt_T_max    0.639 
_exptl_absorpt_correction_type    multi-scan 
_exptl_absorpt_correction_T_min   0.165 
_exptl_absorpt_correction_T_max   0.320 
_exptl_absorpt_process_details    '<i>SADABS</i> (Krause et al., 2015)' 
_exptl_absorpt_special_details 
; 
In addition to absorption, multi-scan techniques also correct other slowly 
varying changes in scale factor over reciprocal space, such as those caused 
by x-ray beam inhomogeneity, goniometer imperfection, crystal decomposition, 
crystal longer than the x-ray beam cross section, absorption by the crystal 
mount etc.  These account, by and large, for much of the difference between 
estimated values of Tmin and Tmax and the _exptl_absorpt_correction_ values. 
; 
 
_exptl_special_details 
; 
The crystal was mounted using polyisobutene oil on the tip of a fine glass 
fibre, which was fastened in a copper mounting pin with electrical solder. 
It was placed directly into the cold gas stream of a liquid-nitrogen based 
cryostat (Hope, 1994; Parkin & Hope, 1998). 
 
Diffraction data were collected with the crystal at 90K, which is standard 
practice in this laboratory for the majority of flash-cooled crystals. 
; 
 
_diffrn_ambient_temperature       90.0(2) 
_diffrn_radiation_wavelength      1.54178 
_diffrn_radiation_type            CuK\a 
_diffrn_source                    'fine-focus rotating anode' 
_diffrn_measurement_device_type   'Bruker X8 Proteum diffractometer' 
_diffrn_measurement_method        '\f and \w scans' 
_diffrn_detector_area_resol_mean  5.6 
_diffrn_reflns_number             10300 
_diffrn_reflns_av_unetI/netI      0.0394 
_diffrn_reflns_av_R_equivalents   0.0408 
_diffrn_reflns_limit_h_min        -7 
_diffrn_reflns_limit_h_max        3 
_diffrn_reflns_limit_k_min        -8 
_diffrn_reflns_limit_k_max        8 
_diffrn_reflns_limit_l_min        -19 
_diffrn_reflns_limit_l_max        20 
_diffrn_reflns_theta_min          2.695 
_diffrn_reflns_theta_max          68.139 
_diffrn_reflns_theta_full         67.679 
_diffrn_measured_fraction_theta_max                0.974 
_diffrn_measured_fraction_theta_full               0.979 
_diffrn_reflns_Laue_measured_fraction_max          0.974 
_diffrn_reflns_Laue_measured_fraction_full         0.979 
_diffrn_reflns_point_group_measured_fraction_max   0.974 
_diffrn_reflns_point_group_measured_fraction_full  0.979 
 
_reflns_number_total              2736 
_reflns_number_gt                 2460 
_reflns_threshold_expression      'I > 2\s(I)' 
_reflns_Friedel_coverage          0.000 
_reflns_Friedel_fraction_max      . 
_reflns_Friedel_fraction_full     . 
_reflns_special_details 
; 
Reflections were merged by SHELXL according to the crystal 
class for the calculation of statistics and refinement. 
 
_reflns_Friedel_fraction is defined as the number of unique 
Friedel pairs measured divided by the number that would be 
possible theoretically, ignoring centric projections and 
systematic absences. 
; 
 
_computing_data_collection        '<i>APEX2</i> (Bruker-AXS, 2006)' 
_computing_cell_refinement        '<i>APEX2</i> (Bruker-AXS, 2006)' 
_computing_data_reduction         '<i>APEX2</i> (Bruker-AXS, 2006)' 
_computing_structure_solution     '<i>SHELXT</i> (Sheldrick, 2015a)' 
_computing_structure_refinement   '<i>SHELXL-2014/7</i> (Sheldrick, 2015b)' 
_computing_molecular_graphics     '<i>XP in SHELXTL</i> (Sheldrick, 2008)' 
_computing_publication_material 
'<i>SHELX</i> (Sheldrick, 2008) and <i>CIFFIX</i> (Parkin, 2013)' 
 
_refine_special_details 
; 
Refinement progress was checked using <i>Platon</i> (Spek, 2009) and by 
an <i>R</i>-tensor (Parkin, 2000). The final model was further checked 
with the IUCr utility <i>checkCIF</i>. 
; 
_refine_ls_structure_factor_coef  Fsqd 
_refine_ls_matrix_type            full 
_refine_ls_weighting_scheme       calc 
_refine_ls_weighting_details 
'w=1/[\s^2^(Fo^2^)+(0.0806P)^2^+0.1628P] where P=(Fo^2^+2Fc^2^)/3' 
_atom_sites_solution_primary      direct 
_atom_sites_solution_secondary    difmap 
_atom_sites_solution_hydrogens    difmap 
_refine_ls_hydrogen_treatment     constr 
_refine_ls_extinction_method      none 
_refine_ls_extinction_coef        . 
_refine_ls_number_reflns          2736 
_refine_ls_number_parameters      185 
_refine_ls_number_restraints      10 
_refine_ls_R_factor_all           0.0478 
_refine_ls_R_factor_gt            0.0443 
_refine_ls_wR_factor_ref          0.1343 
_refine_ls_wR_factor_gt           0.1315 
_refine_ls_goodness_of_fit_ref    1.151 
_refine_ls_restrained_S_all       1.151 
_refine_ls_shift/su_max           0.000 
_refine_ls_shift/su_mean          0.000 
 
loop_ 
 _atom_site_label 
 _atom_site_type_symbol 
 _atom_site_fract_x 
 _atom_site_fract_y 
 _atom_site_fract_z 
 _atom_site_U_iso_or_equiv 
 _atom_site_adp_type 
 _atom_site_occupancy 
 _atom_site_site_symmetry_order 
 _atom_site_calc_flag 
 _atom_site_refinement_flags_posn 
 _atom_site_refinement_flags_adp 
 _atom_site_refinement_flags_occupancy 
 _atom_site_disorder_assembly 
 _atom_site_disorder_group 
Si1 Si 0.78889(8) 0.37902(8) 0.17776(3) 0.0252(2) Uani 1 1 d . . . . . 
C1 C 0.5740(3) 0.4585(3) 0.42377(11) 0.0207(4) Uani 1 1 d . . . . . 
C2 C 0.3682(3) 0.3652(3) 0.43523(12) 0.0204(4) Uani 1 1 d . . . . . 
C3 C 0.2375(3) 0.2273(3) 0.37274(11) 0.0215(4) Uani 1 1 d . . . . . 
H3 H 0.2868 0.1943 0.3223 0.026 Uiso 1 1 calc R U . A 1 
C4 C 0.0388(3) 0.1413(3) 0.38553(12) 0.0232(4) Uani 0.901(2) 1 d D . P B 1 
S5 S -0.14867(9) -0.03331(12) 0.31896(4) 0.0251(2) Uani 0.901(2) 1 d D . P B 1 
C6 C -0.3295(3) -0.0331(3) 0.38853(15) 0.0260(5) Uani 0.901(2) 1 d D . P B 1 
H6 H -0.4677 -0.1118 0.3784 0.031 Uiso 0.901(2) 1 calc R U P B 1 
C7 C -0.2534(8) 0.0894(10) 0.4575(4) 0.0256(8) Uani 0.901(2) 1 d D . P B 1 
H7 H -0.3334 0.1072 0.5011 0.031 Uiso 0.901(2) 1 calc R U P B 1 
C8 C -0.0409(3) 0.1917(3) 0.46010(12) 0.0222(4) Uani 0.901(2) 1 d D . P B 1 
C4' C 0.0388(3) 0.1413(3) 0.38553(12) 0.0232(4) Uani 0.099(2) 1 d D . P B 2 
C5' C -0.107(3) 0.000(5) 0.3279(14) 0.0251(2) Uani 0.099(2) 1 d D . P B 2 
H5' H -0.0798 -0.0453 0.2746 0.030 Uiso 0.099(2) 1 calc R U P B 2 
C6' C -0.285(2) -0.063(3) 0.3572(10) 0.0260(5) Uani 0.099(2) 1 d D . P B 2 
H6' H -0.3978 -0.1617 0.3279 0.031 Uiso 0.099(2) 1 calc R U P B 2 
S7' S -0.2929(18) 0.055(3) 0.4547(10) 0.0256(8) Uani 0.099(2) 1 d D . P B 2 
C8' C -0.0409(3) 0.1917(3) 0.46010(12) 0.0222(4) Uani 0.099(2) 1 d D . P B 2 
C9 C 0.0851(3) 0.3219(3) 0.52234(12) 0.0213(4) Uani 1 1 d . . . . . 
H9 H 0.0327 0.3531 0.5723 0.026 Uiso 1 1 calc R U . B 1 
C10 C 0.2927(3) 0.4098(3) 0.51222(11) 0.0202(4) Uani 1 1 d . . . . . 
C11 C 0.6447(3) 0.4221(3) 0.34625(12) 0.0222(4) Uani 1 1 d . . . . . 
C12 C 0.7032(3) 0.3963(3) 0.27989(12) 0.0245(4) Uani 1 1 d . . . . . 
C13 C 1.0789(3) 0.4307(3) 0.18784(13) 0.0338(5) Uani 1 1 d . . . . . 
H13A H 1.1213 0.3239 0.2099 0.041 Uiso 1 1 calc R U . . . 
H13B H 1.1237 0.4325 0.1328 0.041 Uiso 1 1 calc R U . . . 
C14 C 1.1939(3) 0.6201(4) 0.24230(16) 0.0428(6) Uani 1 1 d . . . . . 
H14A H 1.1544 0.7275 0.2209 0.064 Uiso 1 1 calc R U . . . 
H14B H 1.3441 0.6364 0.2430 0.064 Uiso 1 1 calc R U . . . 
H14C H 1.1569 0.6177 0.2979 0.064 Uiso 1 1 calc R U . . . 
C15 C 0.6931(3) 0.5634(3) 0.12759(12) 0.0277(5) Uani 1 1 d . . . . . 
H15A H 0.5394 0.5240 0.1192 0.033 Uiso 1 1 calc R U . . . 
H15B H 0.7351 0.6877 0.1652 0.033 Uiso 1 1 calc R U . . . 
C16 C 0.7719(3) 0.5946(4) 0.04555(14) 0.0358(5) Uani 1 1 d . . . . . 
H16A H 0.9236 0.6412 0.0535 0.054 Uiso 1 1 calc R U . . . 
H16B H 0.7111 0.6898 0.0231 0.054 Uiso 1 1 calc R U . . . 
H16C H 0.7314 0.4726 0.0076 0.054 Uiso 1 1 calc R U . . . 
C17 C 0.6750(4) 0.1308(3) 0.11970(13) 0.0379(5) Uani 1 1 d . . . . . 
H17A H 0.6917 0.1332 0.0614 0.046 Uiso 1 1 calc R U . . . 
H17B H 0.7558 0.0439 0.1391 0.046 Uiso 1 1 calc R U . . . 
C18 C 0.4462(4) 0.0463(4) 0.12671(16) 0.0490(7) Uani 1 1 d . . . . . 
H18A H 0.4270 0.0433 0.1842 0.074 Uiso 1 1 calc R U . . . 
H18B H 0.4017 -0.0849 0.0961 0.074 Uiso 1 1 calc R U . . . 
H18C H 0.3629 0.1261 0.1043 0.074 Uiso 1 1 calc R U . . . 
 
loop_ 
 _atom_site_aniso_label 
 _atom_site_aniso_U_11 
 _atom_site_aniso_U_22 
 _atom_site_aniso_U_33 
 _atom_site_aniso_U_23 
 _atom_site_aniso_U_13 
 _atom_site_aniso_U_12 
Si1 0.0300(3) 0.0275(3) 0.0199(3) 0.0037(2) 0.0072(2) 0.0094(2) 
C1 0.0243(10) 0.0204(10) 0.0194(9) 0.0054(7) 0.0039(7) 0.0078(8) 
C2 0.0206(9) 0.0191(10) 0.023(1) 0.0059(7) 0.0029(7) 0.0066(7) 
C3 0.0235(9) 0.0217(10) 0.0199(10) 0.0037(8) 0.0030(7) 0.0066(8) 
C4 0.0246(10) 0.0195(10) 0.0246(10) 0.0032(8) -0.0008(7) 0.0055(8) 
S5 0.0231(4) 0.0219(4) 0.0262(4) -0.0007(2) -0.0004(3) 0.0015(3) 
C6 0.0187(10) 0.0246(12) 0.0337(14) 0.0059(10) 0.0028(9) 0.0030(9) 
C7 0.016(2) 0.024(3) 0.0371(12) 0.0113(15) 0.0074(16) 0.0012(15) 
C8 0.0224(10) 0.0193(10) 0.0262(10) 0.0071(8) 0.0027(7) 0.0058(8) 
C4' 0.0246(10) 0.0195(10) 0.0246(10) 0.0032(8) -0.0008(7) 0.0055(8) 
C5' 0.0231(4) 0.0219(4) 0.0262(4) -0.0007(2) -0.0004(3) 0.0015(3) 
C6' 0.0187(10) 0.0246(12) 0.0337(14) 0.0059(10) 0.0028(9) 0.0030(9) 
S7' 0.016(2) 0.024(3) 0.0371(12) 0.0113(15) 0.0074(16) 0.0012(15) 
C8' 0.0224(10) 0.0193(10) 0.0262(10) 0.0071(8) 0.0027(7) 0.0058(8) 
C9 0.0211(9) 0.0215(10) 0.0236(10) 0.0073(8) 0.0051(7) 0.0072(7) 
C10 0.0209(9) 0.0186(9) 0.0221(10) 0.0048(7) 0.0023(7) 0.0063(7) 
C11 0.0196(9) 0.0205(10) 0.0258(10) 0.0037(8) 0.0028(7) 0.0037(7) 
C12 0.0245(10) 0.0231(10) 0.0254(10) 0.0034(8) 0.0048(8) 0.0046(8) 
C13 0.0348(11) 0.0471(14) 0.0264(11) 0.009(1) 0.0098(9) 0.0198(10) 
C14 0.0272(11) 0.0559(16) 0.0450(14) 0.0036(12) 0.0111(10) 0.0103(10) 
C15 0.0289(10) 0.0301(11) 0.0254(10) 0.0044(8) 0.0049(8) 0.0094(8) 
C16 0.0385(12) 0.0436(14) 0.0295(12) 0.0122(10) 0.0067(9) 0.014(1) 
C17 0.0600(15) 0.0312(13) 0.0239(11) 0.0007(9) 0.0068(10) 0.0158(11) 
C18 0.0620(16) 0.0350(14) 0.0373(14) -0.0030(11) 0.0034(11) -0.0066(12) 
 
_geom_special_details 
; 
 All esds (except the esd in the dihedral angle between two l.s. planes) 
 are estimated using the full covariance matrix.  The cell esds are taken 
 into account individually in the estimation of esds in distances, angles 
 and torsion angles; correlations between esds in cell parameters are only 
 used when they are defined by crystal symmetry.  An approximate (isotropic) 
 treatment of cell esds is used for estimating esds involving l.s. planes. 
; 
 
loop_ 
 _geom_bond_atom_site_label_1 
 _geom_bond_atom_site_label_2 
 _geom_bond_distance 
 _geom_bond_site_symmetry_2 
 _geom_bond_publ_flag 
Si1 C12 1.839(2) . ? 
Si1 C13 1.871(2) . ? 
Si1 C17 1.872(2) . ? 
Si1 C15 1.875(2) . ? 
C1 C10 1.415(3) 2_666 ? 
C1 C2 1.421(3) . ? 
C1 C11 1.425(3) . ? 
C2 C3 1.413(3) . ? 
C2 C10 1.441(3) . ? 
C3 C4' 1.372(3) . ? 
C3 C4 1.372(3) . ? 
C3 H3 0.9500 . ? 
C4 C8 1.429(3) . ? 
C4 S5 1.7414(19) . ? 
S5 C6 1.743(2) . ? 
C6 C7 1.333(7) . ? 
C6 H6 0.9500 . ? 
C7 C8 1.430(4) . ? 
C7 H7 0.9500 . ? 
C8 C9 1.373(3) . ? 
C4' C5' 1.423(10) . ? 
C4' C8' 1.429(3) . ? 
C5' C6' 1.328(11) . ? 
C5' H5' 0.9500 . ? 
C6' S7' 1.741(10) . ? 
C6' H6' 0.9500 . ? 
S7' C8' 1.725(9) . ? 
C8' C9 1.373(3) . ? 
C9 C10 1.416(3) . ? 
C9 H9 0.9500 . ? 
C10 C1 1.415(3) 2_666 ? 
C11 C12 1.209(3) . ? 
C13 C14 1.530(3) . ? 
C13 H13A 0.9900 . ? 
C13 H13B 0.9900 . ? 
C14 H14A 0.9800 . ? 
C14 H14B 0.9800 . ? 
C14 H14C 0.9800 . ? 
C15 C16 1.532(3) . ? 
C15 H15A 0.9900 . ? 
C15 H15B 0.9900 . ? 
C16 H16A 0.9800 . ? 
C16 H16B 0.9800 . ? 
C16 H16C 0.9800 . ? 
C17 C18 1.525(3) . ? 
C17 H17A 0.9900 . ? 
C17 H17B 0.9900 . ? 
C18 H18A 0.9800 . ? 
C18 H18B 0.9800 . ? 
C18 H18C 0.9800 . ? 
 
loop_ 
 _geom_angle_atom_site_label_1 
 _geom_angle_atom_site_label_2 
 _geom_angle_atom_site_label_3 
 _geom_angle 
 _geom_angle_site_symmetry_1 
 _geom_angle_site_symmetry_3 
 _geom_angle_publ_flag 
C12 Si1 C13 109.31(9) . . ? 
C12 Si1 C17 109.79(10) . . ? 
C13 Si1 C17 109.26(11) . . ? 
C12 Si1 C15 105.73(9) . . ? 
C13 Si1 C15 111.41(10) . . ? 
C17 Si1 C15 111.28(10) . . ? 
C10 C1 C2 120.74(18) 2_666 . ? 
C10 C1 C11 119.79(16) 2_666 . ? 
C2 C1 C11 119.45(17) . . ? 
C3 C2 C1 120.98(18) . . ? 
C3 C2 C10 119.53(16) . . ? 
C1 C2 C10 119.48(18) . . ? 
C4' C3 C2 119.48(18) . . ? 
C4 C3 C2 119.48(18) . . ? 
C4 C3 H3 120.3 . . ? 
C2 C3 H3 120.3 . . ? 
C3 C4 C8 121.41(17) . . ? 
C3 C4 S5 127.93(16) . . ? 
C8 C4 S5 110.66(14) . . ? 
C4 S5 C6 91.28(10) . . ? 
C7 C6 S5 112.8(2) . . ? 
C7 C6 H6 123.6 . . ? 
S5 C6 H6 123.6 . . ? 
C6 C7 C8 114.2(4) . . ? 
C6 C7 H7 122.9 . . ? 
C8 C7 H7 122.9 . . ? 
C9 C8 C4 120.01(16) . . ? 
C9 C8 C7 129.0(3) . . ? 
C4 C8 C7 111.0(3) . . ? 
C3 C4' C5' 124.9(8) . . ? 
C3 C4' C8' 121.41(17) . . ? 
C5' C4' C8' 113.7(8) . . ? 
C6' C5' C4' 112.1(11) . . ? 
C6' C5' H5' 123.9 . . ? 
C4' C5' H5' 123.9 . . ? 
C5' C6' S7' 113.2(8) . . ? 
C5' C6' H6' 123.4 . . ? 
S7' C6' H6' 123.4 . . ? 
C8' S7' C6' 92.3(6) . . ? 
C9 C8' C4' 120.01(16) . . ? 
C9 C8' S7' 131.3(5) . . ? 
C4' C8' S7' 108.6(5) . . ? 
C8' C9 C10 120.17(18) . . ? 
C8 C9 C10 120.17(18) . . ? 
C8 C9 H9 119.9 . . ? 
C10 C9 H9 119.9 . . ? 
C1 C10 C9 120.96(17) 2_666 . ? 
C1 C10 C2 119.75(17) 2_666 . ? 
C9 C10 C2 119.29(17) . . ? 
C12 C11 C1 178.0(2) . . ? 
C11 C12 Si1 174.72(18) . . ? 
C14 C13 Si1 115.18(15) . . ? 
C14 C13 H13A 108.5 . . ? 
Si1 C13 H13A 108.5 . . ? 
C14 C13 H13B 108.5 . . ? 
Si1 C13 H13B 108.5 . . ? 
H13A C13 H13B 107.5 . . ? 
C13 C14 H14A 109.5 . . ? 
C13 C14 H14B 109.5 . . ? 
H14A C14 H14B 109.5 . . ? 
C13 C14 H14C 109.5 . . ? 
H14A C14 H14C 109.5 . . ? 
H14B C14 H14C 109.5 . . ? 
C16 C15 Si1 115.04(14) . . ? 
C16 C15 H15A 108.5 . . ? 
Si1 C15 H15A 108.5 . . ? 
C16 C15 H15B 108.5 . . ? 
Si1 C15 H15B 108.5 . . ? 
H15A C15 H15B 107.5 . . ? 
C15 C16 H16A 109.5 . . ? 
C15 C16 H16B 109.5 . . ? 
H16A C16 H16B 109.5 . . ? 
C15 C16 H16C 109.5 . . ? 
H16A C16 H16C 109.5 . . ? 
H16B C16 H16C 109.5 . . ? 
C18 C17 Si1 115.25(16) . . ? 
C18 C17 H17A 108.5 . . ? 
Si1 C17 H17A 108.5 . . ? 
C18 C17 H17B 108.5 . . ? 
Si1 C17 H17B 108.5 . . ? 
H17A C17 H17B 107.5 . . ? 
C17 C18 H18A 109.5 . . ? 
C17 C18 H18B 109.5 . . ? 
H18A C18 H18B 109.5 . . ? 
C17 C18 H18C 109.5 . . ? 
H18A C18 H18C 109.5 . . ? 
H18B C18 H18C 109.5 . . ? 
 
loop_ 
 _geom_torsion_atom_site_label_1 
 _geom_torsion_atom_site_label_2 
 _geom_torsion_atom_site_label_3 
 _geom_torsion_atom_site_label_4 
 _geom_torsion 
 _geom_torsion_site_symmetry_1 
 _geom_torsion_site_symmetry_2 
 _geom_torsion_site_symmetry_3 
 _geom_torsion_site_symmetry_4 
 _geom_torsion_publ_flag 
C10 C1 C2 C3 -177.19(16) 2_666 . . . ? 
C11 C1 C2 C3 4.3(3) . . . . ? 
C10 C1 C2 C10 1.8(3) 2_666 . . . ? 
C11 C1 C2 C10 -176.65(16) . . . . ? 
C1 C2 C3 C4' -179.33(17) . . . . ? 
C10 C2 C3 C4' 1.7(3) . . . . ? 
C1 C2 C3 C4 -179.33(17) . . . . ? 
C10 C2 C3 C4 1.7(3) . . . . ? 
C2 C3 C4 C8 1.5(3) . . . . ? 
C2 C3 C4 S5 -179.12(14) . . . . ? 
C3 C4 S5 C6 -178.0(2) . . . . ? 
C8 C4 S5 C6 1.41(16) . . . . ? 
C4 S5 C6 C7 -0.4(5) . . . . ? 
S5 C6 C7 C8 -0.8(8) . . . . ? 
C3 C4 C8 C9 -3.1(3) . . . . ? 
S5 C4 C8 C9 177.44(15) . . . . ? 
C3 C4 C8 C7 177.4(4) . . . . ? 
S5 C4 C8 C7 -2.1(4) . . . . ? 
C6 C7 C8 C9 -177.6(3) . . . . ? 
C6 C7 C8 C4 1.8(8) . . . . ? 
C2 C3 C4' C5' -179(2) . . . . ? 
C2 C3 C4' C8' 1.5(3) . . . . ? 
C3 C4' C5' C6' 178(2) . . . . ? 
C8' C4' C5' C6' -3(4) . . . . ? 
C4' C5' C6' S7' 3(4) . . . . ? 
C5' C6' S7' C8' -2(3) . . . . ? 
C3 C4' C8' C9 -3.1(3) . . . . ? 
C5' C4' C8' C9 178(2) . . . . ? 
C3 C4' C8' S7' -179.8(8) . . . . ? 
C5' C4' C8' S7' 1(2) . . . . ? 
C6' S7' C8' C9 -175.7(8) . . . . ? 
C6' S7' C8' C4' 0.5(13) . . . . ? 
C4' C8' C9 C10 1.4(3) . . . . ? 
S7' C8' C9 C10 177.1(10) . . . . ? 
C4 C8 C9 C10 1.4(3) . . . . ? 
C7 C8 C9 C10 -179.2(5) . . . . ? 
C8' C9 C10 C1 -178.77(16) . . . 2_666 ? 
C8 C9 C10 C1 -178.77(16) . . . 2_666 ? 
C8' C9 C10 C2 1.8(3) . . . . ? 
C8 C9 C10 C2 1.8(3) . . . . ? 
C3 C2 C10 C1 177.23(16) . . . 2_666 ? 
C1 C2 C10 C1 -1.8(3) . . . 2_666 ? 
C3 C2 C10 C9 -3.3(3) . . . . ? 
C1 C2 C10 C9 177.65(16) . . . . ? 
C12 Si1 C13 C14 -53.21(19) . . . . ? 
C17 Si1 C13 C14 -173.37(16) . . . . ? 
C15 Si1 C13 C14 63.27(18) . . . . ? 
C12 Si1 C15 C16 172.02(15) . . . . ? 
C13 Si1 C15 C16 53.37(18) . . . . ? 
C17 Si1 C15 C16 -68.83(18) . . . . ? 
C12 Si1 C17 C18 43.7(2) . . . . ? 
C13 Si1 C17 C18 163.55(17) . . . . ? 
C15 Si1 C17 C18 -73.01(19) . . . . ? 
 
_refine_diff_density_max    0.352 
_refine_diff_density_min   -0.344 
_refine_diff_density_rms    0.062 
 
_shelx_res_file 
; 
 
    x15373.res created by SHELXL-2014/7 
 
 
TITL x15373 : space group P-1 
CELL  1.54178   6.6763   7.2490  16.6736   97.840   94.768  103.770 
ZERR    1.000   0.0002   0.0002   0.0004    0.001    0.002    0.002 
LATT  1 
SFAC C H SI S 
UNIT 34 38 2 2 
TEMP -183 
SIZE 0.6 0.55 0.20 
REM COLR red 
REM FORM rhombus-shaped slab 
L.S. 10 
BOND $H 
LIST 4 
CONF 
ACTA 
FMAP 2 
PLAN 5 
REM EXTI    0.000000 not needed. 
WGHT    0.080600    0.162800 
FVAR       0.64028   0.90134 
SI1   3    0.788890    0.379016    0.177758    11.00000    0.03000    0.02748 = 
         0.01991    0.00372    0.00718    0.00945 
C1    1    0.573962    0.458479    0.423767    11.00000    0.02431    0.02041 = 
         0.01942    0.00539    0.00389    0.00778 
C2    1    0.368165    0.365193    0.435225    11.00000    0.02065    0.01908 = 
         0.02302    0.00591    0.00287    0.00655 
C3    1    0.237491    0.227267    0.372737    11.00000    0.02351    0.02173 = 
         0.01994    0.00367    0.00303    0.00659 
AFIX  43 
H3    2    0.286778    0.194266    0.322258    11.00000   -1.20000 
AFIX   0 
EXYZ C4 C4' 
EXYZ C8 C8' 
EADP C4 C4' 
EADP S5 C5' 
EADP C6 C6' 
EADP C7 S7' 
EADP C8 C8' 
SAME 0.010 C8' S7' C6' C5' C4' 
PART 1 
C4    1    0.038785    0.141331    0.385533    21.00000    0.02462    0.01946 = 
         0.02460    0.00318   -0.00076    0.00554 
S5    4   -0.148668   -0.033310    0.318958    21.00000    0.02312    0.02193 = 
         0.02617   -0.00069   -0.00039    0.00149 
C6    1   -0.329546   -0.033068    0.388533    21.00000    0.01873    0.02465 = 
         0.03369    0.00585    0.00279    0.00298 
AFIX  43 
H6    2   -0.467711   -0.111839    0.378407    21.00000   -1.20000 
AFIX   0 
C7    1   -0.253419    0.089418    0.457486    21.00000    0.01635    0.02409 = 
         0.03706    0.01133    0.00742    0.00115 
AFIX  43 
H7    2   -0.333437    0.107208    0.501095    21.00000   -1.20000 
AFIX   0 
C8    1   -0.040912    0.191661    0.460100    21.00000    0.02238    0.01927 = 
         0.02622    0.00708    0.00272    0.00578 
PART 2 
C4'   1    0.038785    0.141331    0.385533   -21.00000    0.02462    0.01946 = 
         0.02460    0.00318   -0.00076    0.00554 
C5'   1   -0.106981   -0.000442    0.327877   -21.00000    0.02312    0.02193 = 
         0.02617   -0.00069   -0.00039    0.00149 
AFIX  43 
H5'   2   -0.079757   -0.045267    0.274650   -21.00000   -1.20000 
AFIX   0 
C6'   1   -0.285470   -0.062726    0.357184   -21.00000    0.01873    0.02465 = 
         0.03369    0.00585    0.00279    0.00298 
AFIX  43 
H6'   2   -0.397768   -0.161658    0.327898   -21.00000   -1.20000 
AFIX   0 
S7'   4   -0.292913    0.055199    0.454681   -21.00000    0.01635    0.02409 = 
         0.03706    0.01133    0.00742    0.00115 
C8'   1   -0.040912    0.191661    0.460100   -21.00000    0.02238    0.01927 = 
         0.02622    0.00708    0.00272    0.00578 
PART 0 
C9    1    0.085074    0.321910    0.522344    11.00000    0.02114    0.02155 = 
         0.02364    0.00730    0.00514    0.00723 
AFIX  43 
H9    2    0.032747    0.353140    0.572329    11.00000   -1.20000 
AFIX   0 
C10   1    0.292749    0.409782    0.512222    11.00000    0.02091    0.01857 = 
         0.02213    0.00480    0.00226    0.00634 
C11   1    0.644724    0.422143    0.346253    11.00000    0.01957    0.02054 = 
         0.02581    0.00365    0.00280    0.00367 
C12   1    0.703160    0.396309    0.279893    11.00000    0.02447    0.02312 = 
         0.02543    0.00339    0.00482    0.00463 
C13   1    1.078920    0.430715    0.187845    11.00000    0.03479    0.04710 = 
         0.02636    0.00899    0.00981    0.01985 
AFIX  23 
H13A  2    1.121313    0.323901    0.209935    11.00000   -1.20000 
H13B  2    1.123716    0.432518    0.132765    11.00000   -1.20000 
AFIX   0 
C14   1    1.193924    0.620088    0.242304    11.00000    0.02717    0.05595 = 
         0.04500    0.00357    0.01108    0.01032 
AFIX 137 
H14A  2    1.154441    0.727502    0.220942    11.00000   -1.50000 
H14B  2    1.344076    0.636387    0.242975    11.00000   -1.50000 
H14C  2    1.156919    0.617675    0.297879    11.00000   -1.50000 
AFIX   0 
C15   1    0.693121    0.563370    0.127595    11.00000    0.02885    0.03007 = 
         0.02539    0.00444    0.00489    0.00945 
AFIX  23 
H15A  2    0.539399    0.524036    0.119204    11.00000   -1.20000 
H15B  2    0.735127    0.687663    0.165209    11.00000   -1.20000 
AFIX   0 
C16   1    0.771910    0.594551    0.045545    11.00000    0.03850    0.04357 = 
         0.02954    0.01222    0.00667    0.01405 
AFIX 137 
H16A  2    0.923637    0.641191    0.053456    11.00000   -1.50000 
H16B  2    0.711106    0.689817    0.023104    11.00000   -1.50000 
H16C  2    0.731391    0.472591    0.007586    11.00000   -1.50000 
AFIX   0 
C17   1    0.674986    0.130779    0.119697    11.00000    0.06001    0.03124 = 
         0.02394    0.00075    0.00677    0.01580 
AFIX  23 
H17A  2    0.691676    0.133222    0.061376    11.00000   -1.20000 
H17B  2    0.755802    0.043934    0.139080    11.00000   -1.20000 
AFIX   0 
C18   1    0.446201    0.046271    0.126706    11.00000    0.06196    0.03504 = 
         0.03730   -0.00304    0.00341   -0.00664 
AFIX 137 
H18A  2    0.426965    0.043300    0.184190    11.00000   -1.50000 
H18B  2    0.401697   -0.084865    0.096095    11.00000   -1.50000 
H18C  2    0.362923    0.126074    0.104336    11.00000   -1.50000 
 
AFIX   0 
HKLF 4 
 
REM  x15373 : space group P-1 
REM R1 =  0.0443 for    2460 Fo > 4sig(Fo)  and  0.0478 for all    2736 data 
REM    185 parameters refined using     10 restraints 
 
END 
 
WGHT      0.0790      0.1717 
 
REM Highest difference peak  0.352,  deepest hole -0.344,  1-sigma level  0.062 
Q1    1   0.7496  0.4910  0.1599  11.00000  0.05    0.35 
Q2    1   0.7029  0.4668  0.1451  11.00000  0.05    0.35 
Q3    1   0.7006  0.2381  0.1453  11.00000  0.05    0.30 
Q4    1   0.7532  0.4045  0.2385  11.00000  0.05    0.29 
Q5    1   0.1367  0.1789  0.3790  11.00000  0.05    0.28 
; 
_shelx_res_checksum   16190 
 
_shelx_hkl_file
;
  -1   0   0 56.9184 3.17862   6
  -1   0   0 55.6955 3.14106   7
  -1   0   0 52.1384 3.17900   5
  -1   0   0 52.8328 3.12550   4
  -2   0   0 1362.36 76.5517   7
  -2   0   0 1396.63 77.1075   6
  -2   0   0 1428.90 76.7128   5
  -2   0   0 1414.86 76.9280   4
  -3   0   0 26.7918 2.08381   5
  -3   0   0 24.6834 1.81769   4
  -3   0   0 23.8796 1.90431   6
  -3   0   0 25.7559 1.88871   7
  -4   0   0 2.15738 0.64849   6
  -4   0   0 1.29167 0.44480   7
  -4   0   0 0.75657 0.42066   4
  -4   0   0 1.52743 0.73892   5
  -5   0   0 0.07451 0.73060  15
  -5   0   0 0.31184 0.76683  18
  -5   0   0 0.25282 0.86974  17
  -5   0   0 0.64193 0.80657  13
  -5   0   0 0.36800 0.71762  16
  -5   0   0 0.77229 0.84706  12
  -5   0   0 0.18813 0.80680  14
  -5   0   0 0.32648 0.85967  11
  -6   0   0 1.85538 1.00714  16
  -6   0   0 3.11812 1.12856  14
  -6   0   0 1.86271 0.81813  17
  -6   0   0 2.19960 0.98152  15
  -6   0   0 1.07903 0.77985  18
  -6   0   0 2.63819 0.90194  13
  -6   0   0 2.75505 1.46394  12
  -6   0   0 3.43109 1.26219  11
  -7   0   0 0.72054 0.81813  13
  -7   0   0 0.56588 0.85770  15
  -7   1   0 29.8588 2.72500  12
  -7   1   0 29.3271 2.89218  11
  -7   1   0 30.3311 2.46057  17
  -7   1   0 31.4240 2.54116  18
  -6   1   0 5.91312 1.31061  13
  -6   1   0 5.04848 1.30586  14
  -6   1   0 5.15165 1.30229  17
  -6   1   0 5.83859 1.48937  12
  -6   1   0 5.78798 1.33300  11
  -6   1   0 7.18487 1.40133  18
  -6   1   0 6.50827 1.24892  15
  -6   1   0 4.96070 1.13350  16
  -5   1   0 14.1058 2.02508  14
  -5   1   0 16.2059 1.92499  18
  -5   1   0 12.5662 1.77887  13
  -5   1   0 13.1088 2.09376  12
  -5   1   0 8.50856 1.29483   4
  -5   1   0 14.0436 1.91750  16
  -5   1   0 15.9261 2.03643  17
  -5   1   0 14.3360 1.97892  11
  -5   1   0 9.91115 1.50528  15
  -4   1   0 2.08353 0.57324   7
  -4   1   0 2.11104 0.74806   5
  -4   1   0 2.15306 0.58607   4
  -3   1   0 15.5281 1.35369   6
  -3   1   0 17.6927 1.47394   7
  -3   1   0 17.8648 1.46267   4
  -3   1   0 16.4096 1.40704   5
   2  -1   0 364.828 18.6528   1
   2  -1   0 353.074 18.6389   1
  -2   1   0 335.408 18.8515   4
  -2   1   0 341.227 18.6581   2
  -2   1   0 320.783 18.7343   5
  -2   1   0 298.608 18.7236   3
  -2   1   0 355.141 18.8736   7
  -2   1   0 332.512 18.6188   1
  -2   1   0 344.459 18.6596   2
  -2   1   0 343.666 18.6170   1
  -2   1   0 325.820 18.7519   6
  -2   1   0 348.530 18.7364   3
   1  -1   0 29.0410 1.79488   1
   1  -1   0 30.1859 1.82262   1
  -1   1   0 29.3565 1.81583   1
  -1   1   0 27.6920 1.94490   3
  -1   1   0 28.5965 1.98133   3
  -1   1   0 29.8759 1.80191   1
  -1   1   0 26.4427 1.79761   4
  -1   1   0 28.3688 1.87238   2
  -1   1   0 28.5258 1.79767   7
  -1   1   0 25.3328 1.81552   2
   0  -1   0 332.740 17.9026   1
   0  -1   0 324.558 17.9023   1
   0  -1   0 304.252 17.9471   2
   0  -1   0 322.758 18.0841   3
   0   1   0 328.602 18.1279   3
   0   1   0 344.761 17.9136   1
   0   1   0 310.507 17.9629   2
   0   1   0 320.871 17.8925   1
  -1  -1   0 33.0418 2.11325   2
  -1  -1   0 33.5209 2.04381   1
  -1  -1   0 32.5130 2.10002   6
  -1  -1   0 27.8432 1.87831   7
  -1  -1   0 33.6509 2.18547   5
  -1  -1   0 28.8776 2.19166   3
  -1  -1   0 34.8641 2.21587   3
  -1  -1   0 34.1665 2.05056   1
  -1  -1   0 30.9096 2.08572   2
   1   1   0 32.2924 2.04033   1
   1   1   0 33.6204 2.03731   1
  -2  -1   0 78.6389 4.54066   1
  -2  -1   0 72.3171 4.57948   7
  -2  -1   0 80.9646 4.58440   2
  -2  -1   0 80.8028 4.63594   3
  -2  -1   0 82.5773 4.99075   5
  -2  -1   0 77.2063 4.68657   3
  -2  -1   0 77.7376 4.84654   6
  -2  -1   0 74.8793 4.55819   2
  -2  -1   0 79.1723 4.53308   1
   2   1   0 82.0599 4.53836   1
   2   1   0 82.1518 4.56798   1
  -3  -1   0 196.288 11.2365   5
  -3  -1   0 196.115 11.1054   6
  -3  -1   0 176.012 10.6996   7
  -4  -1   0 119.976 7.66311   5
  -4  -1   0 115.856 7.35154  15
  -4  -1   0 125.638 8.03350  14
  -4  -1   0 125.532 7.61702  13
  -4  -1   0 111.389 7.86016  16
  -4  -1   0 116.707 7.73195  12
  -4  -1   0 119.286 7.43372   6
  -4  -1   0 110.823 7.73805  11
  -5  -1   0 17.7037 2.39089  14
  -5  -1   0 14.2397 2.08810   6
  -5  -1   0 17.1384 2.49226  11
  -5  -1   0 17.2862 2.14562  13
  -5  -1   0 17.6899 1.99137  15
  -5  -1   0 15.9194 2.46999  12
  -5  -1   0 13.5949 2.22199  16
  -6  -1   0 87.3478 6.15743  12
  -6  -1   0 87.1961 5.92586  16
  -6  -1   0 96.5876 6.05260  15
  -6  -1   0 88.8626 5.96346  13
  -7  -1   0 103.653 6.49028  15
  -7   2   0 130.530 8.68130  12
  -7   2   0 140.717 8.49125  18
  -7   2   0 137.387 8.36202  17
  -7   2   0 134.667 8.71470  11
  -6   2   0 113.171 8.24270  12
  -6   2   0 118.406 7.55820  16
  -6   2   0 119.623 8.05626  11
  -6   2   0 124.960 8.10772  18
  -6   2   0 122.411 7.85334  17
  -5   2   0 36.9113 3.09643  16
  -5   2   0 41.6647 3.45872  17
  -5   2   0 30.6979 3.73577  12
  -5   2   0 41.7208 3.58821  11
  -5   2   0 31.8644 2.86013   4
  -5   2   0 43.3734 3.64463  18
  -4   2   0 889.335 48.2455   7
  -4   2   0 849.383 48.1821   4
   3  -2   0 80.7871 4.86175   1
  -3   2   0 85.0975 4.99103   3
  -3   2   0 79.2652 5.00845   3
  -3   2   0 82.8150 5.10970   4
  -3   2   0 74.7067 4.82205   2
  -3   2   0 77.6086 4.84623   5
  -3   2   0 76.0030 4.75988   1
  -3   2   0 88.4306 5.12693   7
  -3   2   0 88.9044 4.89276   2
   2  -2   0 1.61139 0.43165   1
   2  -2   0 1.84686 0.43766   1
  -2   2   0 1.79465 0.45876   1
  -2   2   0 1.90359 0.34074   5
  -2   2   0 2.09901 0.57634   3
  -2   2   0 0.90740 0.40505   2
  -2   2   0 2.05673 0.49417   4
  -2   2   0 2.13961 0.56451   2
  -2   2   0 2.98858 0.55014   7
  -2   2   0 1.58216 0.61843   3
  -2   2   0 1.46835 0.39598   1
   1  -2   0 86.4566 5.65154   2
   1  -2   0 93.1944 5.52510   1
   1  -2   0 82.9778 5.78795   3
   1  -2   0 94.2876 5.55266   1
  -1   2   0 93.2882 5.55042   1
  -1   2   0 96.2235 5.68577   2
  -1   2   0 92.9366 5.86707   3
  -1   2   0 92.3682 5.49855   1
  -1   2   0 90.8816 5.40410   4
   0  -2   0 1242.57 66.0015   3
   0  -2   0 1192.74 65.5602   1
   0  -2   0 1207.78 65.5590   1
   0  -2   0 1210.24 65.7077   2
   0   2   0 1109.40 65.6514   2
   0   2   0 1180.40 65.5458   1
   0   2   0 1166.71 65.9614   3
   0   2   0 1240.53 65.5583   1
  -1  -2   0 266.772 14.9157   1
  -1  -2   0 277.876 14.9755   5
  -1  -2   0 280.210 15.2595   3
  -1  -2   0 268.292 14.9037   6
  -1  -2   0 221.662 14.9401   2
  -1  -2   0 270.458 14.9182   1
  -1  -2   0 284.407 15.0649   2
  -1  -2   0 223.226 15.1878   3
   1   2   0 271.707 14.9357   1
   1   2   0 267.049 14.8906   1
  -2  -2   0 207.077 12.5486   1
  -2  -2   0 234.115 12.8750   6
  -2  -2   0 243.927 13.0306   5
  -2  -2   0 234.986 12.7356   2
  -2  -2   0 214.140 13.0043   3
  -2  -2   0 204.508 12.6534   2
  -2  -2   0 242.332 12.8869   3
  -2  -2   0 196.049 12.3398   7
  -3  -2   0 3.03934 0.50098   3
  -3  -2   0 2.59749 0.47071   2
  -3  -2   0 4.72810 1.16938   5
  -3  -2   0 2.64081 0.52165   3
  -3  -2   0 1.97615 0.71172   6
  -3  -2   0 4.00808 0.55709   2
  -4  -2   0 58.5617 4.56332  12
  -4  -2   0 61.7123 4.50426  13
  -4  -2   0 57.2278 3.56285  10
  -4  -2   0 64.8674 4.99594  14
  -4  -2   0 58.2564 4.81314  16
  -4  -2   0 58.4993 4.43537   6
  -4  -2   0 59.9967 4.27795  15
  -5  -2   0 0.04601 0.86865  16
  -5  -2   0 0.91022 0.90097   6
  -5  -2   0 0.52558 0.92107  14
  -5  -2   0 -0.2034 0.78262  13
  -5  -2   0 -0.2099 0.53873  15
  -6  -2   0 0.76217 0.61457  14
  -6  -2   0 1.40855 0.71554  13
  -6  -2   0 0.86889 0.72809  15
  -6  -2   0 -0.1153 0.61172  16
  -7   3   0 3.06275 0.94433  18
  -7   3   0 2.07577 1.11300  12
  -7   3   0 4.79469 1.18044  11
  -6   3   0 5.77659 1.37486  18
  -6   3   0 5.49772 1.32372  17
  -6   3   0 4.81817 1.39166  11
  -6   3   0 3.30240 1.94390  12
  -5   3   0 11.8667 1.00718  10
  -5   3   0 14.4099 2.16250  18
  -5   3   0 9.49051 2.52776  12
  -5   3   0 12.3613 2.00738  11
  -5   3   0 10.4703 1.72495  17
  -5   3   0 10.7255 1.61207   4
  -4   3   0 0.14986 0.34507   3
  -4   3   0 0.55608 0.84503  11
  -4   3   0 -0.0560 0.34991  10
  -4   3   0 0.07301 0.33837   9
  -4   3   0 0.36416 0.38420   2
  -4   3   0 0.07119 0.79431  18
  -4   3   0 0.07905 0.48348  17
  -4   3   0 -0.6378 1.61519  12
  -4   3   0 0.20921 0.55658   4
  -3   3   0 0.48860 0.41271   3
  -3   3   0 0.03713 0.42704   2
  -3   3   0 0.16448 0.42501   4
   2  -3   0 66.3581 4.66177   1
  -2   3   0 65.1939 4.58887   1
  -2   3   0 69.7937 4.51674   4
  -2   3   0 75.3082 5.08032   3
  -2   3   0 71.7923 4.80036   2
   1  -3   0 9.93956 1.51486   2
   1  -3   0 10.3113 1.24515   1
   1  -3   0 9.97072 1.62805   3
   1  -3   0 9.92942 1.20553   1
  -1   3   0 10.2335 1.35995   2
  -1   3   0 8.64801 1.27650   1
  -1   3   0 9.97398 1.18645   1
  -1   3   0 11.5011 1.59142   3
  -1   3   0 10.5553 1.10350   4
   0  -3   0 361.483 19.9839   2
   0  -3   0 351.818 19.7835   1
   0  -3   0 360.501 19.5150   6
   0  -3   0 343.791 20.2583   3
   0  -3   0 347.849 19.7875   1
   0   3   0 328.290 19.9499   2
   0   3   0 346.253 19.7869   1
   0   3   0 336.605 20.3661   3
   0   3   0 336.929 19.7163   1
  -1  -3   0 117.571 7.30616   2
  -1  -3   0 110.200 6.96136   6
  -1  -3   0 112.581 7.48125   3
  -2  -3   0 304.001 17.5928   2
  -2  -3   0 300.547 17.5972   6
  -2  -3   0 307.731 17.7525   3
  -3  -3   0 536.675 30.5337  14
  -3  -3   0 488.821 30.5038  16
  -3  -3   0 552.669 29.5229  10
  -3  -3   0 548.437 29.5521   2
  -3  -3   0 514.864 29.8513  15
  -3  -3   0 518.671 29.2675   9
  -3  -3   0 536.194 29.6310   3
  -3  -3   0 527.795 30.1712   6
  -3  -3   0 534.949 29.9504  13
  -4  -3   0 124.925 7.95496  13
  -4  -3   0 121.631 8.58764  16
  -4  -3   0 111.260 8.01714   6
  -4  -3   0 124.777 7.90818  15
  -4  -3   0 122.795 7.16592  10
  -4  -3   0 127.522 8.50130  14
  -5  -3   0 25.2496 2.50183  13
  -5  -3   0 22.1047 2.83942  16
  -5  -3   0 26.3766 2.43963  15
  -6  -3   0 57.4945 4.02495  15
  -7   4   0 115.899 8.02802  18
  -7   4   0 149.698 8.49617  11
  -6   4   0 2.62177 1.29001  11
  -6   4   0 4.01841 2.23235  12
  -6   4   0 3.32844 0.40023  10
  -6   4   0 4.47118 1.24766  18
  -5   4   0 173.022 9.60093  10
  -5   4   0 171.473 10.3471  17
  -5   4   0 172.273 10.8605  11
  -5   4   0 168.249 10.5950  18
  -5   4   0 138.138 11.3734  12
  -5   4   0 156.699 10.2605   4
  -4   4   0 172.323 9.83407  10
  -4   4   0 163.469 10.6059  11
  -4   4   0 167.431 10.2277  17
  -4   4   0 170.906 10.2866   4
  -4   4   0 164.099 10.2405   3
  -4   4   0 158.821 10.4724  18
  -4   4   0 162.994 11.3141  12
  -3   4   0 38.7097 3.18797   9
  -3   4   0 40.6669 3.14831  10
  -3   4   0 39.9314 3.61019  11
  -3   4   0 46.4700 3.56331   2
  -3   4   0 46.3571 3.41085   4
  -3   4   0 43.0107 2.89522   8
  -3   4   0 47.5635 3.85900   3
  -2   4   0 207.789 13.4178   3
  -2   4   0 216.907 13.1402   2
  -2   4   0 217.642 12.6470   4
  -1   4   0 18.0123 2.20892   2
  -1   4   0 18.0914 1.71524   4
  -1   4   0 17.4974 2.37069   3
   0  -4   0 332.836 20.0055   2
   0  -4   0 333.243 19.3718   6
   0  -4   0 348.190 20.4342   3
  -1  -4   0 26.4289 2.36029   6
  -1  -4   0 25.6911 2.79830   3
  -1  -4   0 29.9799 2.90368   2
  -1  -4   0 23.8068 2.04353   8
  -2  -4   0 40.4163 3.30092  15
  -2  -4   0 46.1126 3.62777   2
  -2  -4   0 40.5443 3.48544   6
  -2  -4   0 45.2417 3.35335  10
  -2  -4   0 44.0894 3.72314   3
  -2  -4   0 44.6874 2.81561   8
  -2  -4   0 40.8478 3.26256   9
  -3  -4   0 291.375 17.5800  16
  -3  -4   0 285.700 17.1460  14
  -3  -4   0 265.667 16.4431   3
  -3  -4   0 291.225 16.3171  10
  -3  -4   0 287.202 16.0783   9
  -3  -4   0 285.458 16.4506   2
  -3  -4   0 279.502 17.0414   6
  -3  -4   0 286.450 16.6584  15
  -4  -4   0 5.30573 1.31537  14
  -4  -4   0 6.15857 1.29208  15
  -4  -4   0 4.18760 1.49564  16
  -4  -4   0 5.08637 0.76555  10
  -5  -4   0 6.33028 1.19946  15
  -5  -4   0 5.72243 1.53965  16
  -7   5   0 0.53542 0.58906  11
  -6   5   0 1.64736 0.90461  11
  -6   5   0 0.96010 0.34206  10
  -6   5   0 0.25659 1.47271  12
  -5   5   0 0.66920 0.42548   9
  -5   5   0 0.05729 1.07522  11
  -5   5   0 0.12934 0.47231  10
  -5   5   0 -0.3416 1.39569  12
  -5   5   0 0.16587 0.95952  18
  -4   5   0 5.68736 1.36713   3
  -4   5   0 7.14567 1.56156   4
  -4   5   0 6.50236 2.17960  12
  -4   5   0 11.5898 1.50331  10
  -4   5   0 5.83381 1.59909  11
  -3   5   0 106.226 7.04295   4
  -3   5   0 101.073 6.87007   9
  -3   5   0 98.0493 7.28587  11
  -3   5   0 112.818 6.50203   8
  -3   5   0 101.787 6.77884  10
  -3   5   0 104.104 7.71276   3
  -3   5   0 109.287 7.49310   2
  -2   5   0 11.0620 2.28102   3
  -2   5   0 14.5656 1.89721   4
  -2   5   0 17.2745 2.69863   2
  -2   5   0 14.3780 1.74002   8
   1  -5   0 281.085 16.8968   6
  -1   5   0 299.614 16.9635   4
   0  -5   0 366.860 22.6187   3
   0  -5   0 373.387 21.3779   6
  -1  -5   0 76.7942 5.30302   6
  -1  -5   0 72.4726 5.16917   9
  -1  -5   0 67.4281 4.84790  15
  -1  -5   0 67.4614 5.10974  10
  -1  -5   0 71.3455 5.69649   2
  -1  -5   0 79.3597 4.80472   8
  -1  -5   0 67.0662 5.77719   3
  -2  -5   0 332.026 18.5949  16
  -2  -5   0 298.060 17.5222  15
  -2  -5   0 286.292 16.6569   8
  -2  -5   0 316.468 17.5401  10
  -2  -5   0 303.705 17.3993   9
  -2  -5   0 271.411 17.8251   6
  -3  -5   0 12.1661 2.37737  16
  -3  -5   0 9.06544 1.17053   9
  -3  -5   0 11.3540 1.45064  10
  -3  -5   0 9.97368 1.66024  15
  -4  -5   0 25.0834 1.80878  10
  -4  -5   0 25.0714 2.40398  15
  -4  -5   0 20.7724 2.43694  16
  -5  -5   0 16.5548 1.57157  15
  -6   6   0 17.1002 2.75027  12
  -6   6   0 24.2126 2.31088  11
  -6   6   0 21.5629 1.52993  10
  -5   6   0 50.8456 5.45993  12
  -5   6   0 58.3148 3.88443  10
  -5   6   0 58.0625 4.66496  11
  -5   6   0 59.1313 3.59337   9
  -4   6   0 65.4012 5.99556  12
  -4   6   0 69.3455 4.71681  10
  -4   6   0 67.4208 4.64576   9
  -4   6   0 63.9193 5.25546  11
  -3   6   0 14.1668 1.87196   9
  -3   6   0 12.8156 1.45613   8
  -3   6   0 14.4050 1.95310   4
  -3   6   0 9.72011 1.99427  11
  -2   6   0 13.2967 1.93746   4
  -2   6   0 17.6461 1.96233   8
   1  -6   0 48.6493 3.92212   8
   0  -6   0 23.4663 2.21726   8
   0  -6   0 15.1923 2.12404   6
  -1  -6   0 8.42201 1.16068   8
  -1  -6   0 6.53261 1.54758   9
  -1  -6   0 6.89282 1.44638  15
  -2  -6   0 154.185 9.48420  10
  -2  -6   0 169.368 10.5025  16
  -2  -6   0 147.526 9.49894  15
  -2  -6   0 154.546 9.38412   9
  -3  -6   0 50.5874 3.78896  15
  -3  -6   0 49.9091 4.12196  16
  -3  -6   0 55.2038 3.55888  10
  -4  -6   0 1.58002 0.65377  15
  -6   7   0 1.32239 0.74022  11
  -5   7   0 144.023 7.96702  10
  -5   7   0 125.148 8.90190  12
  -5   7   0 131.958 8.43074  11
  -4   7   0 39.3364 3.21866  10
  -4   7   0 39.0580 4.28962  12
  -4   7   0 43.1782 3.84945  11
  -4   7   0 44.7070 3.16903   9
  -3   7   0 9.79967 1.76619   9
  -3   7   0 12.5581 1.28399   8
  -2   7   0 106.391 6.88739   8
  -1   7   0 116.721 7.65366   8
   0  -7   0 0.24685 0.89553   9
  -1  -7   0 98.9950 6.81186  16
  -2  -7   0 17.2795 2.11355  16
  -2  -7   0 12.3258 1.38453  10
  -4   8   0 0.97180 1.14649  12
  -3   8   0 -0.2572 0.94612  12
   2  -8   0 4.55934 1.18414   8
   1  -8   0 14.4667 1.48580   8
  -1   8   0 13.5928 1.52006   8
   0  -8   0 0.92435 0.74838  16
  -1  -8   1 0.83879 0.78581  16
   0  -8   1 0.49696 0.74706  16
   0  -8   1 0.03111 0.32101   8
  -3   8  -1 0.32171 0.98110  12
  -4   8  -1 1.07152 1.13896  12
  -2  -7   1 173.858 10.8979  16
  -1  -7   1 32.1165 2.55183   9
  -1  -7   1 30.3478 3.18851  16
  -1  -7   1 24.9397 1.79552   8
   0  -7   1 71.3818 5.30062   9
  -1   7  -1 3.58419 1.06925   8
   1  -7   1 5.48973 1.39366   8
  -2   7  -1 11.1802 1.58096   8
  -3   7  -1 25.2663 2.70652   9
  -3   7  -1 22.9359 1.91458   8
  -4   7  -1 5.22365 1.68370  12
  -4   7  -1 4.33900 0.94450  10
  -4   7  -1 5.45040 1.09933   9
  -5   7  -1 3.28838 0.66662  10
  -5   7  -1 1.54120 1.88155  12
  -5   7  -1 2.02707 1.19409  11
  -4  -6   1 35.5690 2.52790  15
  -3  -6   1 0.40174 0.63805  15
  -3  -6   1 1.52191 1.45220  16
  -2  -6   1 164.925 9.73870   9
  -2  -6   1 165.657 9.85312  10
  -2  -6   1 148.132 9.77974  15
  -2  -6   1 170.156 10.9026  16
  -1  -6   1 0.19340 0.58438   8
  -1  -6   1 0.19241 0.64987   9
   0  -6   1 15.1275 2.02622   8
   1  -6   1 298.418 17.5204   8
  -2   6  -1 9.03242 1.44875   8
  -3   6  -1 53.2166 4.80773  11
  -3   6  -1 66.3853 4.22446   8
  -3   6  -1 70.9295 4.75659   4
  -4   6  -1 244.617 13.6706  10
  -4   6  -1 225.966 13.5341   9
  -4   6  -1 227.686 14.9900  12
  -4   6  -1 224.819 14.2426  11
  -5   6  -1 28.7058 2.88261  11
  -5   6  -1 33.2756 4.18487  12
  -5   6  -1 33.6197 2.15847   9
  -5   6  -1 26.2739 2.24952  10
  -6   6  -1 15.6704 2.58756  12
  -6   6  -1 21.9855 1.50104  10
  -6   6  -1 20.9352 2.23060  11
  -5  -5   1 0.36230 0.56198  15
  -4  -5   1 29.0697 3.09631  16
  -4  -5   1 29.7076 2.57327  15
  -4  -5   1 28.5560 2.08714  10
  -3  -5   1 11.2099 2.56909  16
  -3  -5   1 9.28004 1.53328  15
  -3  -5   1 9.65484 1.23821   9
  -3  -5   1 8.74146 1.24927  10
  -2  -5   1 45.8108 2.84818   8
  -2  -5   1 39.1370 3.65265   6
  -2  -5   1 41.7404 3.88461   2
  -2  -5   1 46.1014 4.26550  16
  -2  -5   1 41.3056 3.46389  15
  -2  -5   1 47.0059 3.49594  10
  -2  -5   1 43.4054 3.31029   9
  -1  -5   1 228.038 15.3898   3
  -1  -5   1 255.489 15.1891   2
  -1  -5   1 255.941 14.0458   8
  -1  -5   1 249.560 14.5394   9
  -1  -5   1 235.107 14.2301  15
  -1  -5   1 230.299 14.3475  10
  -1  -5   1 247.567 14.6647   6
   0  -5   1 102.364 6.73633   6
   0  -5   1 117.397 8.23968   2
   0  -5   1 91.7231 7.69650   3
   0  -5   1 102.230 6.50363   8
  -1   5  -1 104.680 6.69402   4
   1  -5   1 103.271 6.63823   6
  -2   5  -1 11.4948 1.62099   4
  -2   5  -1 10.4864 1.48950   8
  -2   5  -1 6.46722 1.73927   3
  -2   5  -1 6.27217 1.69493   9
  -2   5  -1 8.91617 1.88862   2
  -3   5  -1 5.17463 1.25063   9
  -3   5  -1 6.02571 1.46354   2
  -3   5  -1 3.32634 1.02408  10
  -3   5  -1 5.03543 1.20674   4
  -3   5  -1 5.23615 1.49401   3
  -3   5  -1 5.63361 0.93123   8
  -3   5  -1 4.31537 1.38565  11
  -4   5  -1 27.8979 2.68534   2
  -4   5  -1 26.1926 2.35283   9
  -4   5  -1 24.9073 2.83288  11
  -4   5  -1 28.6378 2.86248   4
  -4   5  -1 25.8139 2.88315   3
  -4   5  -1 33.3375 3.97040  12
  -4   5  -1 28.0495 2.39933  10
  -5   5  -1 6.36323 0.96208  10
  -5   5  -1 5.14271 0.70281   9
  -5   5  -1 4.79923 1.23647  18
  -5   5  -1 5.02094 1.38048  11
  -5   5  -1 4.78910 1.88289  12
  -6   5  -1 51.8994 5.37324  12
  -6   5  -1 58.9799 4.52773  11
  -6   5  -1 57.7054 3.41496  10
  -6   5  -1 53.1847 4.07696  18
  -7   5  -1 3.74218 1.44097  12
  -7   5  -1 6.12774 1.10763  11
  -5  -4   1 0.20279 0.58006  14
  -5  -4   1 0.65550 0.59472  15
  -5  -4   1 0.34508 1.23289  16
  -4  -4   1 28.8326 3.65079  16
  -4  -4   1 26.0226 2.85867  14
  -4  -4   1 29.3835 2.60876  15
  -3  -4   1 36.9796 3.10419   3
  -3  -4   1 40.4745 3.12338   2
  -3  -4   1 40.5121 2.81289   9
  -3  -4   1 42.7629 3.37733  15
  -3  -4   1 38.1809 4.04641  16
  -3  -4   1 36.9485 3.45621   6
  -3  -4   1 44.5546 3.03500  10
  -3  -4   1 36.6694 3.44819  14
  -2  -4   1 41.1572 3.11207  10
  -2  -4   1 39.6575 3.51418   3
  -2  -4   1 43.3368 3.41062   2
  -2  -4   1 41.8026 2.63027   8
  -2  -4   1 36.1442 3.21073   6
  -2  -4   1 36.3965 3.00393   9
  -2  -4   1 37.8103 3.12776  15
  -1  -4   1 1.67443 0.69999   8
  -1  -4   1 1.94698 0.92486   2
  -1  -4   1 1.01946 0.62703   6
  -1  -4   1 1.54025 0.85719   3
   0   4  -1 352.765 20.2264   4
   0  -4   1 365.230 21.0516   2
   0  -4   1 360.916 20.4207   6
   0  -4   1 354.707 21.4534   3
  -1   4  -1 407.389 23.7167   2
  -1   4  -1 401.647 24.2258   3
  -1   4  -1 411.132 23.0012   4
   1  -4   1 409.484 22.9529   6
  -2   4  -1 103.350 6.63999   4
  -2   4  -1 107.849 7.59883   3
  -2   4  -1 105.689 7.09073   2
  -3   4  -1 101.960 6.62539   9
  -3   4  -1 112.653 6.86320   4
  -3   4  -1 104.195 6.26018   8
  -3   4  -1 100.491 6.55605  10
  -3   4  -1 98.6768 7.10436  11
  -3   4  -1 113.579 7.46366   3
  -3   4  -1 113.696 7.02485   2
  -4   4  -1 16.3872 2.05960  18
  -4   4  -1 17.1073 1.90567   3
  -4   4  -1 19.3456 2.31724  11
  -4   4  -1 18.4216 1.70448  10
  -4   4  -1 17.3987 1.62765   9
  -4   4  -1 21.0597 2.19564   4
  -4   4  -1 20.4243 1.92089   2
  -4   4  -1 20.1503 3.06427  12
  -5   4  -1 47.7723 3.21450  10
  -5   4  -1 47.6309 3.88711   4
  -5   4  -1 49.5742 4.15617  18
  -5   4  -1 52.5994 4.38914  11
  -5   4  -1 46.4458 5.07524  12
  -6   4  -1 68.4441 5.08311  11
  -6   4  -1 64.8388 4.91997  18
  -6   4  -1 62.7495 6.07350  12
  -7   4  -1 -0.1206 0.89599  11
  -7   4  -1 0.16455 1.07068  12
  -7   4  -1 0.25589 0.47878  18
  -6  -3   1 18.0654 1.81230  15
  -6  -3   1 15.0627 1.68988  16
  -5  -3   1 31.5536 2.67075  15
  -5  -3   1 28.5257 3.35517  16
  -5  -3   1 28.4806 2.88932  14
  -4  -3   1 175.180 11.7375  16
  -4  -3   1 177.864 10.8175  15
  -4  -3   1 166.262 11.0281   6
  -4  -3   1 184.332 11.4228  14
  -4  -3   1 184.873 10.8976  13
  -4  -3   1 173.793 10.1087  10
  -3  -3   1 43.5216 3.47413  13
  -3  -3   1 46.7510 3.13378   2
  -3  -3   1 43.5513 3.41701  15
  -3  -3   1 48.9394 3.65183   6
  -3  -3   1 45.6493 3.17608   3
  -3  -3   1 35.0347 3.85065  16
  -3  -3   1 42.8506 2.87041   9
  -3  -3   1 43.4141 3.03356  10
  -3  -3   1 45.7369 3.85865  14
  -2  -3   1 10.7751 1.47962   2
  -2  -3   1 10.7526 1.52827   3
  -2  -3   1 11.3753 1.58592   6
  -1  -3   1 252.778 15.4592   1
  -1  -3   1 282.900 16.0359   3
  -1  -3   1 269.435 15.6348   2
  -1  -3   1 266.829 15.3783   6
   0   3  -1 43.7713 3.63438   2
   0   3  -1 51.5454 4.11991   3
   0   3  -1 49.4940 3.56449   1
   0   3  -1 48.7112 3.56499   1
   0  -3   1 54.6835 3.40155   6
   0  -3   1 48.3486 3.54877   1
   0  -3   1 53.1002 3.78729   2
   0  -3   1 49.2853 3.57242   1
   0  -3   1 57.8477 4.21491   3
  -1   3  -1 138.383 8.43187   1
  -1   3  -1 138.613 8.41503   1
  -1   3  -1 143.626 9.01034   3
  -1   3  -1 148.679 8.66308   2
  -1   3  -1 141.136 8.14016   4
   1  -3   1 137.776 8.99725   3
   1  -3   1 136.777 8.42094   1
   1  -3   1 129.865 8.56259   2
   1  -3   1 135.722 8.40070   1
  -2   3  -1 406.144 22.0608   3
  -2   3  -1 371.167 21.3008   4
  -2   3  -1 390.059 21.6090   2
  -2   3  -1 341.516 21.3710   1
   2  -3   1 384.729 21.5959   1
  -3   3  -1 5.97350 1.01159   4
  -3   3  -1 5.92783 1.13775   3
  -3   3  -1 6.52364 1.04346   2
  -4   3  -1 77.4146 5.52626  18
  -4   3  -1 84.2608 5.21665   4
  -4   3  -1 72.7989 6.03900  12
  -4   3  -1 82.6371 5.31684  17
  -4   3  -1 74.6658 4.58930   2
  -4   3  -1 74.2515 5.54851  11
  -4   3  -1 78.9407 4.63384  10
  -4   3  -1 75.0875 4.75975   3
  -4   3  -1 65.5446 4.40691   9
  -5   3  -1 190.996 11.1134  17
  -5   3  -1 178.003 10.0539  10
  -5   3  -1 167.231 10.8209   4
  -5   3  -1 180.591 11.4057  11
  -5   3  -1 167.932 12.2401  12
  -5   3  -1 181.729 11.3282  18
  -6   3  -1 68.4742 6.49535  12
  -6   3  -1 78.2816 5.81593  11
  -6   3  -1 82.4613 5.63588  17
  -6   3  -1 85.7938 5.87054  18
  -7   3  -1 93.8335 6.05489  11
  -7   3  -1 90.0821 6.32643  12
  -7   3  -1 76.9414 5.59830  18
  -7  -2   1 2.46155 0.71024  15
  -6  -2   1 10.7659 1.53968  15
  -6  -2   1 8.80059 1.66343  16
  -5  -2   1 4.47724 1.66660  16
  -5  -2   1 4.62040 1.11928  15
  -5  -2   1 4.78040 1.37458  14
  -5  -2   1 3.67111 1.06997   6
  -5  -2   1 6.03083 1.27665  13
  -4  -2   1 114.469 7.52358  12
  -4  -2   1 116.005 7.36400  15
  -4  -2   1 112.285 8.14391  16
  -4  -2   1 119.085 7.45889  13
  -4  -2   1 111.693 6.59862  10
  -4  -2   1 127.980 8.13877  14
  -4  -2   1 108.383 7.40723   6
  -3  -2   1 120.265 6.99936   3
  -3  -2   1 128.031 6.99294   2
  -3  -2   1 128.434 7.64487   6
  -3  -2   1 113.750 6.95015   2
  -3  -2   1 118.309 7.05334   3
  -2  -2   1 70.7569 4.26392   3
  -2  -2   1 59.3849 3.93148   1
  -2  -2   1 62.2752 4.19725   3
  -2  -2   1 51.5434 3.94425   2
  -2  -2   1 66.5750 4.01616   2
  -2  -2   1 60.3768 3.75730   7
  -2  -2   1 72.8486 4.25921   6
  -2  -2   1 62.4619 3.95688   1
   1   2  -1 223.459 12.3359   1
   1   2  -1 195.667 12.7163   3
   1   2  -1 218.223 12.2900   1
  -1  -2   1 221.489 12.3013   1
  -1  -2   1 226.923 12.4158   2
  -1  -2   1 208.406 12.2870   1
  -1  -2   1 234.357 12.7350   3
  -1  -2   1 184.378 12.3758   2
  -1  -2   1 226.021 12.2981   6
   0   2  -1 52.1374 3.73162   2
   0   2  -1 57.0237 3.67690   1
   0   2  -1 57.7285 4.04589   3
   0   2  -1 57.1298 3.67233   1
   0  -2   1 59.3979 3.70168   1
   0  -2   1 57.2831 3.49763   6
   0  -2   1 58.0359 3.66420   1
   0  -2   1 55.9692 3.78106   2
   0  -2   1 61.0194 4.06182   3
  -1   2  -1 1075.20 58.2859   3
  -1   2  -1 1086.85 58.0266   2
  -1   2  -1 1013.67 57.7048   4
  -1   2  -1 1077.00 57.8984   1
  -1   2  -1 1081.55 57.8906   1
   1  -2   1 1086.68 57.8836   1
   1  -2   1 1073.36 57.8999   1
   1  -2   1 987.725 57.9850   2
   1  -2   1 998.339 58.2342   3
  -2   2  -1 344.399 18.3549   2
  -2   2  -1 348.210 18.6774   3
  -2   2  -1 301.522 18.5387   3
  -2   2  -1 334.728 18.3252   4
  -2   2  -1 327.962 18.2518   1
  -2   2  -1 312.205 18.1684   5
  -2   2  -1 325.493 18.2656   1
  -2   2  -1 291.814 18.3355   2
   2  -2   1 340.957 18.3164   1
   2  -2   1 336.404 18.2724   1
  -3   2  -1 0.92877 0.46353   4
  -3   2  -1 0.36937 0.28652   2
  -3   2  -1 0.71666 0.33632   1
  -3   2  -1 0.82671 0.37303   3
  -3   2  -1 0.75921 0.31398   2
  -3   2  -1 0.71928 0.39244   5
  -3   2  -1 0.55418 0.34257   3
   3  -2   1 0.17386 0.25689   1
  -4   2  -1 55.8673 3.77041   4
  -4   2  -1 54.6437 4.23686  18
  -4   2  -1 50.9541 4.14216  11
  -5   2  -1 30.8637 2.81488  17
  -5   2  -1 27.9329 2.49224  16
  -5   2  -1 23.4947 2.56873  13
  -5   2  -1 31.4912 2.95913  18
  -5   2  -1 28.0590 2.41428   4
  -5   2  -1 24.4035 3.24933  12
  -5   2  -1 30.3092 2.97143  11
  -6   2  -1 23.5126 3.41300  12
  -6   2  -1 25.4815 2.71537  18
  -6   2  -1 30.0436 2.66394  17
  -6   2  -1 28.2325 2.74008  11
  -7   2  -1 9.04838 1.67273  11
  -7   2  -1 9.77535 1.28858  18
  -7   2  -1 8.66299 1.71389  12
  -7  -1   1 16.8634 1.68030  15
  -6  -1   1 6.52075 1.37673  14
  -6  -1   1 5.29707 1.23828  13
  -6  -1   1 4.51437 1.19475  16
  -6  -1   1 4.72911 1.08297  15
  -5  -1   1 112.482 6.94366  15
  -5  -1   1 96.3811 6.93741   6
  -5  -1   1 111.636 7.54367  16
  -5  -1   1 113.609 7.50957  14
  -5  -1   1 102.944 7.15022  12
  -5  -1   1 99.0649 7.08668  17
  -5  -1   1 110.681 7.03010  13
  -4  -1   1 2.20627 1.26823  16
  -4  -1   1 0.69431 0.59309   6
  -4  -1   1 0.26768 0.22084  10
  -4  -1   1 0.50639 0.83432  14
  -4  -1   1 -0.2655 0.97209  12
  -4  -1   1 0.60851 0.68887  15
  -4  -1   1 0.59868 0.73808  13
  -3  -1   1 13.2970 1.19837   7
  -3  -1   1 13.1152 1.36803   6
  -3  -1   1 13.5797 1.42001   5
   2   1  -1 97.4799 5.36965   1
   2   1  -1 96.7659 5.39261   1
  -2  -1   1 91.6248 5.42568   2
  -2  -1   1 89.9840 5.45644   3
  -2  -1   1 90.4164 5.46051   7
  -2  -1   1 94.2878 5.39138   2
  -2  -1   1 94.1294 5.38228   1
  -2  -1   1 91.5834 5.34358   1
  -2  -1   1 95.1357 5.74047   5
  -2  -1   1 103.095 5.76092   6
  -2  -1   1 92.8335 5.50245   3
   1   1  -1 229.964 12.4450   1
   1   1  -1 236.229 12.4243   1
  -1  -1   1 227.765 12.6229   3
  -1  -1   1 203.283 12.4754   2
  -1  -1   1 216.413 12.5905   3
  -1  -1   1 217.847 12.5038   5
  -1  -1   1 225.778 12.4555   2
  -1  -1   1 222.408 12.4215   1
  -1  -1   1 229.076 12.4024   1
  -1  -1   1 217.955 12.4829   6
   0   1  -1 104.125 6.30271   2
   0   1  -1 115.039 6.26777   1
   0   1  -1 109.155 6.46700   3
   0   1  -1 113.910 6.27179   1
   0  -1   1 109.621 6.25788   1
   0  -1   1 103.502 6.29817   2
   0  -1   1 114.145 6.27233   1
   0  -1   1 113.087 6.46460   3
   0  -1   1 106.416 6.15235   6
  -1   1  -1 1070.77 63.5967   2
  -1   1  -1 1167.91 64.1192   2
  -1   1  -1 1224.90 63.9706   1
  -1   1  -1 1191.25 64.2381   3
  -1   1  -1 1158.56 64.0503   3
  -1   1  -1 1126.48 63.8227   4
  -1   1  -1 1170.46 63.9171   1
   1  -1   1 1177.78 63.8156   1
   1  -1   1 1179.95 64.0114   1
  -2   1  -1 775.472 43.7145   1
  -2   1  -1 765.597 43.7352   6
  -2   1  -1 790.285 43.6683   1
  -2   1  -1 820.811 43.8539   7
  -2   1  -1 759.855 43.8342   5
  -2   1  -1 801.834 43.9588   3
  -2   1  -1 819.284 43.9177   4
  -2   1  -1 787.619 43.7862   2
  -2   1  -1 823.681 43.9214   2
  -2   1  -1 804.665 44.0064   3
   2  -1   1 811.172 43.6917   1
   2  -1   1 824.485 43.7767   1
  -3   1  -1 459.577 24.7582   4
  -3   1  -1 429.078 24.6152   6
  -3   1  -1 454.350 24.7012   7
  -3   1  -1 431.652 24.7698   5
  -4   1  -1 0.70267 0.43836   4
  -4   1  -1 1.01860 0.62277   5
  -4   1  -1 1.02302 0.44268   7
  -5   1  -1 32.7662 3.25409  14
  -5   1  -1 36.1198 2.81194   4
  -5   1  -1 37.8701 3.19078  11
  -5   1  -1 31.4256 3.67571  12
  -5   1  -1 31.9306 2.85815  15
  -5   1  -1 35.8068 3.03795  16
  -5   1  -1 38.5378 3.29418  18
  -5   1  -1 38.8488 3.24275  17
  -5   1  -1 36.1822 3.13639  13
  -6   1  -1 123.529 7.99684  11
  -6   1  -1 107.141 7.71777  14
  -6   1  -1 117.026 7.42940  16
  -6   1  -1 125.107 7.74404  17
  -6   1  -1 131.784 7.90335  18
  -6   1  -1 114.104 7.64302  13
  -6   1  -1 116.468 8.28730  12
  -7   1  -1 10.5441 1.70062  11
  -7   1  -1 8.57485 1.89819  12
  -7   1  -1 6.58133 1.11349  18
  -7   1  -1 6.41920 1.09515  13
  -7   0   1 33.7894 2.75389  15
  -7   0   1 39.3255 2.75045  16
  -6   0   1 7.95058 1.47748  13
  -6   0   1 10.3724 1.75175  14
  -6   0   1 9.13189 1.65735  12
  -6   0   1 7.05765 1.31200  15
  -6   0   1 9.98141 1.87644  11
  -6   0   1 8.47828 1.50078  18
  -6   0   1 7.93896 1.58117  16
  -6   0   1 8.19350 1.55627  17
  -5   0   1 112.792 7.15407  13
  -5   0   1 99.6376 7.00690   6
  -5   0   1 115.171 7.48720  16
  -5   0   1 105.937 7.32502  11
  -5   0   1 110.401 7.36572  18
  -5   0   1 111.016 7.42810  17
  -5   0   1 111.863 6.99064  15
  -5   0   1 103.824 7.32633  12
  -5   0   1 119.091 7.56845  14
  -4   0   1 39.4914 2.86451   7
  -4   0   1 39.2005 3.00396   5
  -4   0   1 40.9223 2.95513   6
  -4   0   1 37.8636 2.76224   4
  -3   0   1 2.08840 0.59375   5
  -3   0   1 1.00460 0.38847   4
  -3   0   1 1.53208 0.47622   7
  -3   0   1 1.60076 0.49692   6
  -2   0   1 10.7837 0.93240   6
  -2   0   1 10.4604 0.85546   4
  -2   0   1 10.9523 0.94489   7
  -2   0   1 10.6885 0.97355   5
  -1   0   1 1853.98 101.926   4
  -1   0   1 1864.30 101.865   7
  -1   0   1 1826.77 101.969   5
  -1   0   1 1912.85 102.273   6
   0   0  -1 974.419 54.5882   3
   0   0  -1 933.200 54.2928   2
   0   0  -1 981.628 54.4318   1
   0   0  -1 1067.46 54.5142   1
   0   0   1 1048.81 54.4429   1
   0   0   1 1028.47 54.4569   1
   0   0   1 934.039 54.3045   2
   0   0   1 965.718 54.5792   3
  -1   0  -1 633.167 35.3046   5
  -1   0  -1 651.747 35.3566   1
  -1   0  -1 649.104 35.2389   2
  -1   0  -1 656.214 35.3281   2
  -1   0  -1 636.287 35.2747   6
  -1   0  -1 625.670 35.1611   7
  -1   0  -1 627.123 35.3535   3
  -1   0  -1 634.609 35.4507   3
  -1   0  -1 638.508 35.2209   1
  -1   0  -1 647.117 35.3966   4
   1   0   1 648.126 35.3417   1
   1   0   1 675.551 35.3443   1
  -2   0  -1 100.213 5.85136   4
  -2   0  -1 102.129 6.03422   5
  -2   0  -1 103.361 5.92395   6
  -2   0  -1 99.2230 5.81943   7
  -3   0  -1 514.563 28.3928   5
  -3   0  -1 499.900 28.1803   6
  -3   0  -1 514.884 28.1094   4
  -3   0  -1 496.224 28.0324   7
  -4   0  -1 8.72392 1.45786  13
  -4   0  -1 8.10386 1.17351   6
  -4   0  -1 8.56927 1.12555   4
  -4   0  -1 6.41351 0.88416   7
  -4   0  -1 7.93482 1.73641  12
  -4   0  -1 11.1224 1.62404   5
  -5   0  -1 14.3313 1.89966  18
  -5   0  -1 14.3517 1.79878  16
  -5   0  -1 16.4183 1.99686  11
  -5   0  -1 16.0687 2.27266  14
  -5   0  -1 13.0110 1.71859  17
  -5   0  -1 15.4056 2.29968  12
  -5   0  -1 15.4851 1.89121  15
  -5   0  -1 16.3542 1.86744  13
  -5   0  -1 14.7406 2.11683   5
  -6   0  -1 12.0852 1.79556  13
  -6   0  -1 13.7382 2.13340  12
  -6   0  -1 7.55095 1.39593  16
  -6   0  -1 11.4923 1.69562  14
  -6   0  -1 9.61681 1.32748  18
  -6   0  -1 11.7622 1.78165  15
  -6   0  -1 12.1572 2.00130  11
  -7   0  -1 0.55389 0.63002  13
  -7   1   1 21.7188 2.04868  16
  -7   1   1 20.4986 2.01637  17
  -7   1   1 22.3539 2.10903  18
  -7   1   1 21.7599 2.45166  11
  -6   1   1 22.7886 2.24497  16
  -6   1   1 19.3102 2.23037  14
  -6   1   1 20.2105 2.29567  18
  -6   1   1 20.6100 2.17237  15
  -6   1   1 21.2640 2.41216  17
  -6   1   1 19.9708 2.63496  12
  -6   1   1 22.9183 2.45315  11
  -5   1   1 74.2837 5.02416   7
  -5   1   1 66.6347 5.04405  13
  -5   1   1 74.0543 5.38821  11
  -5   1   1 81.1778 5.41548  16
  -5   1   1 85.3031 5.64805  17
  -5   1   1 71.3084 5.30641  14
  -5   1   1 71.8701 4.97308   4
  -5   1   1 82.5899 5.69140  18
  -5   1   1 70.5584 5.60019  12
  -5   1   1 76.1052 5.01552  15
  -4   1   1 190.203 10.9770   7
  -4   1   1 181.042 10.8190   4
  -3   1   1 49.8960 3.24699   4
  -3   1   1 42.5779 3.09975   5
  -3   1   1 53.6982 3.26526   6
  -3   1   1 53.5643 3.35248   7
   2  -1  -1 13.4527 0.92100   1
   2  -1  -1 12.3243 0.92423   1
  -2   1   1 12.7533 1.09393   7
  -2   1   1 13.4225 0.99705   3
  -2   1   1 11.4306 0.90532   5
  -2   1   1 13.3920 0.89919   1
  -2   1   1 12.8289 0.92203   1
  -2   1   1 10.8399 1.02275   4
  -2   1   1 12.7796 0.98210   2
  -2   1   1 11.0441 0.89183   2
  -2   1   1 12.2053 1.04385   3
   1  -1  -1 1099.20 62.5165   3
   1  -1  -1 1178.11 62.5487   1
   1  -1  -1 1246.36 62.7194   1
  -1   1   1 1196.38 62.7282   1
  -1   1   1 1042.18 62.2095   2
  -1   1   1 1150.18 62.1666   7
  -1   1   1 1145.98 62.5239   1
  -1   1   1 1173.74 62.6623   2
  -1   1   1 1188.15 63.0797   3
  -1   1   1 965.240 62.3579   3
   0  -1  -1 1296.00 71.6557   1
   0  -1  -1 1364.34 72.1087   3
   0  -1  -1 1319.80 71.4316   5
   0  -1  -1 1344.52 71.6211   1
   0  -1  -1 1272.14 71.6960   2
   0   1   1 1259.65 71.8233   3
   0   1   1 1299.14 71.7100   1
   0   1   1 1331.05 71.7197   1
   0   1   1 1230.34 71.5506   2
  -1  -1  -1 112.230 6.64643   5
  -1  -1  -1 115.740 6.65970   3
  -1  -1  -1 118.815 6.52051   1
  -1  -1  -1 107.202 6.55478   2
  -1  -1  -1 112.888 6.58532   6
  -1  -1  -1 118.382 6.62154   2
  -1  -1  -1 108.102 6.76810   3
  -1  -1  -1 121.884 6.56842   1
  -1  -1  -1 104.576 6.28435   7
   1   1   1 113.103 6.48864   1
   1   1   1 121.283 6.56648   1
  -2  -1  -1 1445.60 77.0001   2
  -2  -1  -1 1363.63 76.6423   1
  -2  -1  -1 1455.72 77.0048   5
  -2  -1  -1 1384.12 76.5162   1
  -2  -1  -1 1412.10 77.1549   3
  -2  -1  -1 1347.44 76.5681   2
  -2  -1  -1 1366.37 76.7629   3
  -2  -1  -1 1392.68 77.2250   6
  -2  -1  -1 1320.14 76.4665   7
   2   1   1 1473.99 76.8595   1
   2   1   1 1455.87 76.7864   1
  -3  -1  -1 53.0591 3.67815   6
  -3  -1  -1 53.6903 3.88458   5
  -4  -1  -1 99.4008 6.18115  13
  -4  -1  -1 82.1229 6.21684  16
  -4  -1  -1 101.759 6.77350  14
  -4  -1  -1 98.1935 6.29692   5
  -4  -1  -1 96.0261 5.99938  15
  -4  -1  -1 82.1197 5.07595  10
  -4  -1  -1 92.9383 6.53673  12
  -4  -1  -1 90.2908 5.98284   6
  -4  -1  -1 87.2711 6.31082  11
  -5  -1  -1 168.846 11.5389  16
  -5  -1  -1 200.182 12.3168  14
  -5  -1  -1 204.575 11.7780  13
  -5  -1  -1 189.281 12.0526  11
  -5  -1  -1 186.019 12.0318  12
  -5  -1  -1 195.258 11.5714  15
  -6  -1  -1 6.82434 1.42322  15
  -6  -1  -1 6.69329 1.76081  12
  -6  -1  -1 8.75674 1.49602  13
  -7  -1  -1 2.40907 0.75503  15
  -7   2   1 120.584 7.71729  11
  -7   2   1 111.396 7.28529  17
  -7   2   1 114.901 7.41209  18
  -6   2   1 5.53665 1.35993  17
  -6   2   1 6.01491 1.55469  11
  -6   2   1 6.05606 1.45801  18
  -6   2   1 4.51414 1.22406  16
  -6   2   1 4.22067 1.68019  12
  -5   2   1 217.189 12.4142  17
  -5   2   1 203.951 11.9677   7
  -5   2   1 176.403 11.6691  15
  -5   2   1 180.865 12.6261  12
  -5   2   1 206.373 12.4109  11
  -5   2   1 210.888 12.1228  16
  -5   2   1 211.813 12.6023  18
  -5   2   1 185.598 11.7605   4
  -4   2   1 15.0755 1.54165   7
  -4   2   1 12.8869 1.48707   4
   3  -2  -1 10.8323 1.08583   1
  -3   2   1 13.2242 1.27094   7
  -3   2   1 10.6161 0.95230   1
  -3   2   1 11.9228 1.24296   4
  -3   2   1 12.7471 1.13645   3
  -3   2   1 12.5454 1.10325   2
  -3   2   1 11.3112 1.20479   3
  -3   2   1 9.45311 0.96081   2
   2  -2  -1 1.17691 0.35708   1
   2  -2  -1 1.27861 0.41788   1
  -2   2   1 1.05194 0.37608   1
  -2   2   1 0.57000 0.40105   2
  -2   2   1 1.28339 0.46387   4
  -2   2   1 0.70798 0.35255   7
  -2   2   1 0.68384 0.42870   3
  -2   2   1 1.62954 0.45263   1
  -2   2   1 1.41493 0.51677   3
  -2   2   1 1.50007 0.49985   2
   1  -2  -1 182.643 11.0284   2
   1  -2  -1 195.226 10.9278   1
   1  -2  -1 189.422 10.8446   1
   1  -2  -1 177.904 11.1487   3
  -1   2   1 185.088 10.8242   1
  -1   2   1 192.362 11.2166   3
  -1   2   1 193.819 10.6646   7
  -1   2   1 189.106 10.8984   1
  -1   2   1 196.775 11.0634   2
   0  -2  -1 118.806 7.17202   1
   0  -2  -1 122.533 7.50376   3
   0  -2  -1 125.515 7.34239   2
   0  -2  -1 122.713 7.15016   1
   0   2   1 120.474 7.18088   1
   0   2   1 126.540 7.14026   1
   0   2   1 119.092 7.50664   3
   0   2   1 106.838 7.24402   2
  -1  -2  -1 640.668 40.6247   7
  -1  -2  -1 803.101 41.5063   3
  -1  -2  -1 730.045 41.1004   1
  -1  -2  -1 764.283 41.2105   1
  -1  -2  -1 795.539 41.1973   6
  -1  -2  -1 793.520 41.3479   2
  -1  -2  -1 792.195 41.2410   5
  -1  -2  -1 632.261 41.1612   2
   1   2   1 756.490 41.2258   1
   1   2   1 747.643 41.1048   1
  -2  -2  -1 2.20198 0.71546   5
  -2  -2  -1 1.79799 0.58738   6
  -2  -2  -1 1.80723 0.55915   3
  -2  -2  -1 1.40647 0.50417   2
  -3  -2  -1 23.4112 2.38616  15
  -3  -2  -1 26.2816 2.50833  13
  -3  -2  -1 26.9639 1.91748   3
  -3  -2  -1 29.4848 2.42813   6
  -3  -2  -1 26.8858 1.98143  10
  -3  -2  -1 25.4116 1.93409   3
  -3  -2  -1 23.8502 1.90623   2
  -3  -2  -1 27.0306 2.86589  12
  -3  -2  -1 26.6949 1.83128   2
  -3  -2  -1 28.4268 2.88341  14
  -3  -2  -1 31.5820 2.68648   5
  -4  -2  -1 0.51690 0.58589  13
  -4  -2  -1 0.15877 0.51975  15
  -4  -2  -1 0.71800 0.78902   6
  -4  -2  -1 -0.2458 1.19513  12
  -4  -2  -1 0.21981 0.81201  16
  -4  -2  -1 -0.2212 0.23405  10
  -4  -2  -1 0.44556 0.82335  14
  -5  -2  -1 37.1892 3.24758  13
  -5  -2  -1 30.9022 3.22952  16
  -5  -2  -1 35.2176 3.46377  14
  -5  -2  -1 37.9813 3.15779  15
  -6  -2  -1 48.2352 3.79044  15
  -6  -2  -1 46.7224 3.56915  13
  -7   3   1 -0.1198 0.67225  11
  -6   3   1 1.78596 0.97312  17
  -6   3   1 2.19888 1.04862  18
  -6   3   1 2.72962 1.13657  11
  -6   3   1 1.22340 1.62867  12
  -5   3   1 166.703 9.48087  10
  -5   3   1 167.694 10.8061  11
  -5   3   1 166.080 10.4650  17
  -5   3   1 176.569 10.8507  18
  -5   3   1 164.563 10.2829   4
  -5   3   1 154.088 11.2899  12
  -4   3   1 69.9783 4.33523  10
  -4   3   1 65.5605 5.16815  18
  -4   3   1 70.3753 4.47668   3
  -4   3   1 65.9315 4.68085   4
  -4   3   1 66.5348 4.88194  17
  -4   3   1 68.7833 5.18359  11
  -3   3   1 38.0882 3.10281   3
  -3   3   1 43.2260 3.12019   2
  -3   3   1 39.4143 3.02699   4
  -2   3   1 187.451 11.2140   4
  -2   3   1 178.033 11.3396   1
  -2   3   1 194.945 11.6954   3
  -2   3   1 208.043 11.6119   2
   1  -3  -1 7.59815 1.13276   1
   1  -3  -1 6.88130 1.30316   2
   1  -3  -1 7.36586 1.41759   3
   1  -3  -1 7.49909 1.20942   1
  -1   3   1 8.73523 1.56862   3
  -1   3   1 8.58791 1.23023   1
  -1   3   1 7.07610 1.30364   2
  -1   3   1 5.91868 0.99334   1
   0  -3  -1 112.286 7.15850   1
   0  -3  -1 126.927 7.72930   3
   0  -3  -1 119.589 7.40134   2
   0  -3  -1 115.712 7.09728   1
   0   3   1 114.134 7.06017   1
   0   3   1 104.906 7.32103   2
   0   3   1 111.031 7.61038   3
   0   3   1 106.789 7.12932   1
  -1  -3  -1 236.232 13.4757   6
  -1  -3  -1 237.049 13.7837   2
  -1  -3  -1 220.076 13.8168   3
  -2  -3  -1 378.577 21.6040   3
  -2  -3  -1 379.478 21.5307   2
  -2  -3  -1 366.622 21.4985   6
  -3  -3  -1 70.1062 4.46934  10
  -3  -3  -1 66.4169 4.49055   3
  -3  -3  -1 69.2683 4.45473   2
  -3  -3  -1 69.4480 5.40256  16
  -3  -3  -1 68.7446 4.24290   9
  -3  -3  -1 71.2967 5.45501  14
  -3  -3  -1 67.2925 4.90195  13
  -3  -3  -1 64.5711 4.77608  15
  -3  -3  -1 67.7965 5.00010   6
  -4  -3  -1 11.0490 1.14441  10
  -4  -3  -1 8.24962 2.01097  16
  -4  -3  -1 13.0359 2.05344   6
  -4  -3  -1 13.4351 2.00980  13
  -4  -3  -1 12.7150 1.91885  15
  -4  -3  -1 11.6643 2.09516  14
  -5  -3  -1 11.9388 1.87204  15
  -5  -3  -1 9.56871 1.69411  13
  -6  -3  -1 0.64486 0.66316  14
  -6  -3  -1 1.49195 0.76670  15
  -7   4   1 3.56826 1.05417  11
  -6   4   1 11.9200 1.85364  18
  -6   4   1 10.0277 0.78924  10
  -6   4   1 13.7748 2.12038  11
  -6   4   1 8.77976 1.56132  17
  -6   4   1 8.67644 2.00200  12
  -5   4   1 30.1026 3.94001  12
  -5   4   1 35.6659 3.17871  17
  -5   4   1 34.6470 3.29455  18
  -5   4   1 37.8069 3.56588  11
  -5   4   1 30.2815 2.93864   4
  -5   4   1 33.9259 2.49036  10
  -4   4   1 91.6712 5.53706  10
  -4   4   1 85.6108 5.37897   9
  -4   4   1 67.7432 6.51025  12
  -4   4   1 90.5842 6.32404  11
  -4   4   1 82.9282 5.78122   3
  -4   4   1 87.3796 5.88283  17
  -4   4   1 90.7856 5.94402   4
  -4   4   1 80.3896 6.03303  18
  -4   4   1 85.2593 5.66287   2
  -3   4   1 267.718 15.4773   2
  -3   4   1 269.158 15.2155   4
  -3   4   1 248.832 14.5450   8
  -3   4   1 256.448 14.9450  10
  -3   4   1 244.327 14.9918   9
  -3   4   1 272.765 15.6788   3
  -3   4   1 244.532 15.4640  11
  -2   4   1 7.35419 1.22423   4
  -2   4   1 6.98924 1.53468   2
  -2   4   1 7.05898 1.51307   3
  -1   4   1 36.6231 3.50911   3
  -1   4   1 34.2377 3.40779   2
   0  -4  -1 94.1717 6.93597   2
   0  -4  -1 102.899 6.49502   6
   0  -4  -1 104.668 7.33788   3
  -1  -4  -1 14.0314 2.20664   3
  -1  -4  -1 17.1179 2.43602   2
  -1  -4  -1 14.1368 1.63253   6
  -1  -4  -1 11.7993 1.91508   9
  -2  -4  -1 117.354 7.55976   9
  -2  -4  -1 120.537 7.63937  10
  -2  -4  -1 116.298 7.64268  15
  -2  -4  -1 122.312 8.12906   3
  -2  -4  -1 125.420 7.07600   8
  -2  -4  -1 122.913 8.05817   2
  -2  -4  -1 127.411 8.03232   6
  -3  -4  -1 406.967 23.8877  14
  -3  -4  -1 422.282 23.4569  15
  -3  -4  -1 423.100 23.0353  10
  -3  -4  -1 406.398 22.7495   9
  -3  -4  -1 378.059 23.7160   6
  -3  -4  -1 426.433 24.0170  16
  -3  -4  -1 379.155 23.0470   2
  -4  -4  -1 9.76229 1.89042  14
  -4  -4  -1 10.5307 1.15190  10
  -4  -4  -1 13.2331 1.91952  15
  -4  -4  -1 10.9377 1.97850  16
  -5  -4  -1 123.966 7.35890  15
  -5  -4  -1 103.315 7.26592  14
  -7   5   1 8.07739 1.39556  11
  -6   5   1 9.55947 1.79598  11
  -6   5   1 9.49123 2.33613  12
  -6   5   1 10.9777 0.94197  10
  -5   5   1 86.5050 6.66817  18
  -5   5   1 97.7935 7.83162  12
  -5   5   1 105.482 5.86021   9
  -5   5   1 106.754 7.41232  11
  -5   5   1 102.260 6.23629  10
  -4   5   1 18.7759 1.99157  10
  -4   5   1 18.5739 2.26862   2
  -4   5   1 22.3541 2.55555   4
  -4   5   1 18.2224 1.90910   9
  -4   5   1 17.9396 2.40130  11
  -4   5   1 15.8464 2.99607  12
  -3   5   1 4.35663 1.25946   4
  -3   5   1 1.98216 1.05658   3
  -3   5   1 2.78374 1.13272   9
  -3   5   1 3.63086 0.81143   8
  -3   5   1 2.24855 0.79503  10
  -3   5   1 2.76103 1.25105  11
  -3   5   1 3.70469 1.31104   2
  -2   5   1 260.762 14.7599   4
  -2   5   1 248.394 15.4905   2
  -2   5   1 241.567 14.4540   8
  -2   5   1 235.328 15.6510   3
   1  -5  -1 13.9546 1.88064   6
  -1   5   1 13.2399 1.80544   4
   0  -5  -1 47.1090 3.62528   6
   0  -5  -1 43.1575 3.38376   8
   0  -5  -1 44.1997 4.53665   3
  -1  -5  -1 115.707 6.69561   8
  -1  -5  -1 104.379 7.18558   6
  -1  -5  -1 101.026 7.72500   3
  -1  -5  -1 105.510 6.83869  15
  -1  -5  -1 104.305 7.07005   9
  -1  -5  -1 105.400 7.07965  10
  -1  -5  -1 107.404 7.81946   2
  -2  -5  -1 1.73827 1.33764  16
  -2  -5  -1 1.43484 0.87217   9
  -2  -5  -1 1.72533 0.97806  15
  -2  -5  -1 0.58301 0.81050  10
  -2  -5  -1 1.06223 0.78718   6
  -3  -5  -1 135.571 8.43903  10
  -3  -5  -1 133.378 9.24125  16
  -3  -5  -1 146.277 8.25228   9
  -3  -5  -1 138.198 8.87870  15
  -4  -5  -1 4.24427 1.22905  15
  -5  -5  -1 19.9993 1.79101  15
  -6   6   1 23.0002 1.63154  10
  -6   6   1 23.3978 2.49589  11
  -5   6   1 0.54094 0.85505  11
  -5   6   1 -0.0842 2.00715  12
  -5   6   1 -0.0607 0.55881  10
  -5   6   1 -0.0283 0.48083   9
  -4   6   1 1.64561 1.38622  12
  -4   6   1 1.44886 1.21697  11
  -4   6   1 1.35186 0.87597  10
  -3   6   1 -0.2819 0.62005   9
  -3   6   1 0.62471 1.16436  11
  -3   6   1 0.69190 0.61947   8
  -3   6   1 0.07810 1.24557   4
  -2   6   1 13.2067 2.24536  11
  -2   6   1 19.7331 2.06856   8
  -2   6   1 16.2478 2.12195   4
   0  -6  -1 1.26375 0.72687  15
   0  -6  -1 2.26931 1.04691   8
   0  -6  -1 1.27665 0.82821   6
  -1  -6  -1 20.6443 1.79637   8
  -1  -6  -1 20.2118 2.45736   9
  -1  -6  -1 13.8798 1.97021  15
  -2  -6  -1 5.89066 1.15195   9
  -2  -6  -1 7.65190 1.65115  16
  -2  -6  -1 6.33636 1.26077  15
  -2  -6  -1 4.84661 1.14237  10
  -3  -6  -1 0.21001 0.66225  15
  -3  -6  -1 0.09620 0.52624  10
  -3  -6  -1 -0.1359 1.10151  16
  -6   7   1 37.1414 2.27658  10
  -5   7   1 38.2888 2.67850  10
  -5   7   1 35.4101 2.99948  11
  -5   7   1 36.8893 3.47706  12
  -4   7   1 12.5346 2.18269  12
  -4   7   1 15.8331 1.79193   9
  -4   7   1 12.1186 1.86099  11
  -4   7   1 9.69671 1.50651  10
  -3   7   1 3.64205 0.78558   8
  -2   7   1 84.6759 5.65734   8
   1  -7  -1 4.46489 1.16742   8
  -1   7   1 3.67123 1.11087   8
   0  -7  -1 144.331 8.68904   8
  -1  -7  -1 17.7425 2.32596  16
  -2  -7  -1 61.4311 4.42488  16
  -2  -7  -1 68.2938 4.19367  10
  -2  -7  -1 62.5424 3.91789   9
  -2  -7  -1 62.6853 4.28032  15
  -4   8   1 -0.4401 0.83135  12
  -3   8   1 6.03459 1.36208  12
  -3   8   1 5.62233 0.58151   8
  -3   8   1 7.29193 1.43521   9
   2  -8  -1 34.3643 2.74120   8
  -2   8   1 31.5329 2.45888   8
   1  -8  -1 0.45082 0.65700   8
  -1   8   1 0.61109 0.63208   8
   0  -8  -1 43.1827 3.34518   9
   0  -8  -1 42.1800 3.27811  16
  -1  -8   2 89.6575 5.90999  16
   0  -8   2 4.57162 0.67650   8
   0  -8   2 4.07550 1.10516  16
  -2   8  -2 21.0562 1.84060   8
  -3   8  -2 35.0004 2.99536   9
  -3   8  -2 37.8067 3.46072  12
  -4   8  -2 23.9248 2.58573  12
  -2  -7   2 -0.4277 0.85156  16
  -1  -7   2 148.841 8.57557   9
  -1  -7   2 128.040 7.82692   8
  -1  -7   2 136.046 9.10562  16
   0  -7   2 10.4946 1.81067   9
  -1   7  -2 113.979 7.59857   8
   1  -7   2 118.665 7.46498   8
  -2   7  -2 40.9410 3.23113   8
  -3   7  -2 1.94885 0.63416   8
  -3   7  -2 2.29991 0.99556   9
  -4   7  -2 39.7120 2.87189   9
  -4   7  -2 39.4071 3.79146  12
  -4   7  -2 28.9038 2.61874  10
  -5   7  -2 0.98310 1.33746  12
  -5   7  -2 2.09022 0.53987  10
  -6   7  -2 0.47674 0.89835  12
  -6   7  -2 0.03727 0.34021  10
  -4  -6   2 14.9658 1.88400  16
  -4  -6   2 10.0364 0.83772  10
  -3  -6   2 2.55046 1.30386  16
  -3  -6   2 1.37786 0.85926  15
  -2  -6   2 113.450 7.92969  16
  -2  -6   2 96.2066 6.72443  15
  -2  -6   2 107.763 6.81515  10
  -2  -6   2 111.112 6.78012   9
  -1  -6   2 0.83975 0.62455   8
  -1  -6   2 0.27797 0.91648   9
   0  -6   2 145.423 8.95894   8
  -2   6  -2 40.0255 3.26643   8
  -3   6  -2 67.4825 4.87761   9
  -3   6  -2 60.1551 4.85766   4
  -3   6  -2 65.7740 4.25973   8
  -4   6  -2 8.88280 1.32659  10
  -4   6  -2 5.85392 1.58399  11
  -4   6  -2 10.4187 1.47520   9
  -4   6  -2 11.8258 2.28614  12
  -5   6  -2 49.9120 3.09723   9
  -5   6  -2 44.3317 3.87418  11
  -5   6  -2 50.2562 4.82599  12
  -5   6  -2 49.9722 3.35679  10
  -6   6  -2 52.0687 4.75323  12
  -6   6  -2 53.8308 3.90967  11
  -6   6  -2 49.0539 3.13132  10
  -4  -5   2 8.32741 1.01526  10
  -4  -5   2 8.52583 1.31758  15
  -4  -5   2 9.24121 2.22608  16
  -3  -5   2 110.047 7.21366  15
  -3  -5   2 108.426 8.33835  16
  -3  -5   2 116.886 6.95213  10
  -2  -5   2 258.164 15.4505  15
  -2  -5   2 254.791 15.8519   6
  -2  -5   2 273.291 15.4814  10
  -2  -5   2 271.956 14.8368   8
  -2  -5   2 274.362 16.5028  16
  -2  -5   2 260.654 15.3498   9
  -2  -5   2 250.416 15.8028   2
  -1  -5   2 94.5482 5.74727   8
  -1  -5   2 91.1510 7.21867   3
  -1  -5   2 83.6682 6.07383  10
  -1  -5   2 98.2138 6.35454   6
  -1  -5   2 92.2335 6.69999   2
  -1  -5   2 91.7823 6.27960   9
   0  -5   2 62.9531 4.45944   6
   0  -5   2 62.6054 5.66850   3
   0  -5   2 61.9806 4.39940   8
  -2   5  -2 55.8990 4.90567   9
  -2   5  -2 75.0027 4.84640   4
  -2   5  -2 69.4034 4.65420   8
  -2   5  -2 74.5880 6.11557   3
  -2   5  -2 69.3807 5.36988   2
  -3   5  -2 36.7527 3.77495   3
  -3   5  -2 30.3058 3.27451  11
  -3   5  -2 33.8538 2.91973  10
  -3   5  -2 39.3221 2.62537   8
  -3   5  -2 38.3098 3.07992   4
  -4   5  -2 58.0673 5.25222  12
  -4   5  -2 50.2309 4.48289  11
  -4   5  -2 51.3651 4.14998   4
  -4   5  -2 55.0017 3.81384  10
  -4   5  -2 55.9791 3.76971   9
  -4   5  -2 48.9980 4.01566   2
  -5   5  -2 11.4422 1.63383  18
  -5   5  -2 15.2737 1.41908  10
  -5   5  -2 13.7619 3.03592  12
  -5   5  -2 15.4558 2.08889  11
  -6   5  -2 63.7489 4.69567  11
  -6   5  -2 64.8372 5.54893  12
  -6   5  -2 59.7903 3.65430  10
  -6   5  -2 56.9382 4.26574  18
  -7   5  -2 0.26175 0.54102  11
  -7   5  -2 0.05033 0.95051  12
  -5  -4   2 8.70119 1.29536  15
  -5  -4   2 6.26115 1.84207  16
  -4  -4   2 29.4904 2.95742  14
  -4  -4   2 29.7568 2.17942  10
  -4  -4   2 26.5080 3.42075  16
  -4  -4   2 30.3664 2.73047  15
  -3  -4   2 52.5788 3.94139  15
  -3  -4   2 49.9451 4.10429  14
  -3  -4   2 44.2102 3.74699   3
  -3  -4   2 56.3697 3.48340   9
  -3  -4   2 49.1472 4.72780  16
  -3  -4   2 50.8424 4.06993   6
  -3  -4   2 55.1421 3.59795  10
  -3  -4   2 49.4791 3.69924   2
  -2  -4   2 -0.1871 0.51058  10
  -2  -4   2 0.69479 0.43378   8
  -2  -4   2 0.13797 0.67004   3
  -2  -4   2 1.02430 0.71154   6
  -2  -4   2 0.59051 0.59159   9
  -2  -4   2 0.38761 0.68462  15
  -2  -4   2 0.51905 0.63251   2
  -1  -4   2 302.653 17.4661   2
  -1  -4   2 286.389 17.9505   3
  -1  -4   2 304.709 17.1551   6
  -1  -4   2 287.138 16.7351   8
   0  -4   2 347.787 20.4417   2
   0  -4   2 344.096 19.8045   6
   0  -4   2 353.863 21.0981   3
  -1   4  -2 685.330 37.3230   4
  -1   4  -2 665.770 38.6787   3
  -1   4  -2 670.569 38.0191   2
   1  -4   2 663.832 37.2078   6
  -2   4  -2 39.7318 3.32977   2
  -2   4  -2 39.5360 3.75903   3
  -2   4  -2 38.9448 2.95959   4
  -3   4  -2 39.0488 2.96081  10
  -3   4  -2 32.6630 3.39275  11
  -3   4  -2 44.0655 3.15571   4
  -3   4  -2 48.6241 3.94423   3
  -3   4  -2 38.5709 2.61679   8
  -4   4  -2 107.230 6.84014   4
  -4   4  -2 99.5830 7.14371  11
  -4   4  -2 100.339 6.93653  18
  -4   4  -2 107.941 7.84611  12
  -4   4  -2 103.604 6.89606   3
  -4   4  -2 100.002 6.23835   9
  -4   4  -2 106.834 6.57857   2
  -4   4  -2 104.522 6.33492  10
  -5   4  -2 162.755 9.34900  10
  -5   4  -2 161.566 10.5361  11
  -5   4  -2 160.487 10.2773  18
  -5   4  -2 170.312 11.6866  12
  -5   4  -2 154.815 10.0709   4
  -6   4  -2 11.0229 2.70565  12
  -6   4  -2 10.7710 1.68422  18
  -6   4  -2 12.0326 1.79529  11
  -7   4  -2 20.9958 2.05645  11
  -7   4  -2 21.9192 1.85751  18
  -7   4  -2 15.0832 2.19892  12
  -6  -3   2 148.401 8.45026  15
  -6  -3   2 129.498 8.57894  16
  -5  -3   2 55.7188 4.85035  16
  -5  -3   2 54.6127 4.02872  15
  -5  -3   2 56.1287 4.44689  14
  -4  -3   2 10.6603 1.79968   6
  -4  -3   2 10.6307 2.33159  16
  -4  -3   2 16.6594 2.07318  13
  -4  -3   2 15.3313 2.27429  14
  -4  -3   2 12.5298 1.80292  15
  -3  -3   2 43.8052 3.47140  15
  -3  -3   2 44.4032 3.89505  14
  -3  -3   2 45.0891 3.12990  10
  -3  -3   2 49.0878 3.23037   2
  -3  -3   2 49.5304 3.70578   6
  -3  -3   2 40.6359 4.03866  16
  -3  -3   2 47.5370 3.56685  13
  -3  -3   2 44.4300 3.02004   9
  -3  -3   2 48.7977 3.40895   3
  -2  -3   2 56.6328 4.24615   3
  -2  -3   2 60.0779 4.04441   6
  -2  -3   2 52.9440 3.88933   2
  -1  -3   2 0.96668 0.58071   2
  -1  -3   2 1.36400 0.76158   3
  -1  -3   2 2.08061 0.61074   6
  -1  -3   2 1.41264 0.57775   1
   0   3  -2 5.84511 1.15423   2
   0   3  -2 7.91115 1.17378   1
   0   3  -2 6.41459 1.40494   3
   0   3  -2 6.25932 0.78654   4
   0   3  -2 6.77049 1.09352   1
   0  -3   2 9.41905 1.60463   3
   0  -3   2 7.76710 1.16817   1
   0  -3   2 5.00692 0.96288   1
   0  -3   2 7.50962 0.82007   6
   0  -3   2 8.10689 1.33509   2
  -1   3  -2 56.2955 4.20100   3
  -1   3  -2 48.0656 3.56322   1
  -1   3  -2 53.4342 3.74542   2
  -1   3  -2 54.6676 3.65017   1
  -1   3  -2 51.6222 3.30022   4
   1  -3   2 46.7880 3.56552   1
   1  -3   2 51.5828 3.17452   6
   1  -3   2 43.8517 3.62488   2
   1  -3   2 50.9214 3.56977   1
   1  -3   2 49.6259 4.07430   3
  -2   3  -2 41.6804 2.97340   4
  -2   3  -2 44.7806 3.20499   2
  -2   3  -2 46.7688 3.68424   3
  -2   3  -2 39.4158 3.02549   1
  -3   3  -2 292.982 16.3588   4
  -3   3  -2 261.503 16.1189   5
  -3   3  -2 304.234 16.8223   3
  -3   3  -2 279.156 16.2143   2
  -4   3  -2 34.0800 3.28133  11
  -4   3  -2 37.9812 3.09033  17
  -4   3  -2 38.4532 3.31224  18
  -4   3  -2 36.1515 2.61107   3
  -4   3  -2 37.4162 4.03403  12
  -4   3  -2 37.3964 2.54001   2
  -4   3  -2 32.5280 2.33839   9
  -4   3  -2 37.7932 2.49037  10
  -4   3  -2 37.6734 2.96220   4
  -5   3  -2 8.27896 0.82255  10
  -5   3  -2 7.56808 1.63424  11
  -5   3  -2 9.60363 1.64313  18
  -5   3  -2 6.22078 1.26069   4
  -5   3  -2 8.62267 2.10210  12
  -5   3  -2 9.02264 1.60864  17
  -6   3  -2 85.6892 7.03746  12
  -6   3  -2 86.9552 6.04443  18
  -6   3  -2 84.5420 6.20673  11
  -7   3  -2 20.0222 2.11063  11
  -7   3  -2 20.5915 1.90853  18
  -7   3  -2 17.6560 2.76374  12
  -7  -2   2 24.3417 1.96303  15
  -6  -2   2 3.11377 0.89322  15
  -6  -2   2 3.01074 1.11569  16
  -5  -2   2 45.9164 3.48370  15
  -5  -2   2 41.7125 3.80997  14
  -5  -2   2 45.3551 3.54653  13
  -5  -2   2 41.0260 4.03203  16
  -5  -2   2 38.4208 3.40032   6
  -4  -2   2 65.0848 4.80567   6
  -4  -2   2 72.7236 4.83497  13
  -4  -2   2 52.3404 5.31499  16
  -4  -2   2 70.4452 4.77089  15
  -4  -2   2 74.4366 5.33040  14
  -4  -2   2 68.0632 4.05082  10
  -3  -2   2 37.6911 2.80060   6
  -3  -2   2 31.9946 2.30342   3
  -3  -2   2 30.7112 2.21558   2
  -3  -2   2 28.8310 2.32735   7
  -3  -2   2 35.4725 2.34626   3
  -3  -2   2 37.9133 2.35369   2
  -2  -2   2 31.2981 2.68100   2
  -2  -2   2 34.0185 2.33846   7
  -2  -2   2 40.4830 2.86958   3
  -2  -2   2 39.8621 2.73189   6
  -2  -2   2 39.0803 2.54036   2
  -2  -2   2 31.1091 2.44297   1
  -2  -2   2 36.1269 2.47161   1
   1   2  -2 353.911 20.6378   1
   1   2  -2 386.149 20.7831   1
   1   2  -2 325.691 21.1108   3
  -1  -2   2 394.246 20.6925   6
  -1  -2   2 367.825 20.6748   1
  -1  -2   2 373.097 20.7533   2
  -1  -2   2 385.149 21.1435   3
   0   2  -2 1.83867 0.53061   2
   0   2  -2 1.60416 0.46500   1
   0   2  -2 1.76085 0.65585   3
   0   2  -2 2.03843 0.49470   1
   0   2  -2 1.52680 0.31973   4
   0  -2   2 2.18369 0.50523   1
   0  -2   2 1.66275 0.48536   1
   0  -2   2 1.67447 0.35861   6
   0  -2   2 2.27915 0.70986   3
   0  -2   2 2.08598 0.56100   2
   1  -2   2 9999.99 547.371   3
  -2   2  -2 175.564 10.0273   4
  -2   2  -2 173.327 10.1145   5
  -2   2  -2 171.314 10.0487   1
  -2   2  -2 155.290 10.1217   2
  -2   2  -2 188.051 10.4730   3
   2  -2   2 173.782 9.98294   1
   2  -2   2 184.354 10.1230   1
  -3   2  -2 343.803 18.2263   4
  -3   2  -2 326.631 17.8800   2
  -3   2  -2 304.793 17.9539   2
  -3   2  -2 337.911 18.2022   3
  -3   2  -2 293.423 17.8525   1
  -3   2  -2 319.613 18.1298   5
  -4   2  -2 0.79580 0.79559  18
  -4   2  -2 1.20836 0.87323  11
  -4   2  -2 0.89228 0.30727  10
  -4   2  -2 1.07611 0.61665   5
  -4   2  -2 0.95966 0.60097  17
  -4   2  -2 0.82161 0.52606   4
  -5   2  -2 8.61843 1.56372  18
  -5   2  -2 4.08074 1.17627  11
  -5   2  -2 4.52569 1.02704   4
  -5   2  -2 5.65209 1.30885  17
  -5   2  -2 5.26698 1.88380  12
  -5   2  -2 4.08090 0.91776  16
  -5   2  -2 4.35611 1.25574  13
  -6   2  -2 7.64266 1.50139  11
  -6   2  -2 7.88383 2.16468  12
  -6   2  -2 7.56543 1.34778  17
  -6   2  -2 7.51852 1.45602  18
  -6   2  -2 6.96065 1.42145  13
  -7   2  -2 10.1633 1.81908  12
  -7   2  -2 13.2814 1.42471  18
  -7   2  -2 12.2930 1.68919  11
  -7  -1   2 13.7687 1.62937  15
  -6  -1   2 19.6231 2.17453  14
  -6  -1   2 24.1823 2.50756  16
  -6  -1   2 17.8600 2.07744  17
  -6  -1   2 20.5310 2.13876  13
  -6  -1   2 23.0750 2.07804  15
  -5  -1   2 2.54236 1.00430  17
  -5  -1   2 2.74970 1.21694  16
  -5  -1   2 2.48026 1.27129  12
  -5  -1   2 4.26937 1.06924  13
  -5  -1   2 2.37629 1.10195  14
  -5  -1   2 3.59672 0.93865  15
  -5  -1   2 3.23342 1.05853   6
  -4  -1   2 1.84427 0.56156   7
  -4  -1   2 3.70713 1.07384  14
  -4  -1   2 2.10626 0.40283  10
  -4  -1   2 3.23869 0.92283  13
  -4  -1   2 2.25193 1.10178  17
  -4  -1   2 2.17967 0.89184  12
  -4  -1   2 3.04615 0.81392   6
  -4  -1   2 2.73076 0.85408  15
  -4  -1   2 1.03320 1.18401  16
  -3  -1   2 38.3746 2.73588   6
  -3  -1   2 34.8769 2.52274   7
   2   1  -2 3.34633 0.49703   1
   2   1  -2 3.09647 0.45649   1
  -2  -1   2 3.02274 0.51731   7
  -2  -1   2 3.83654 0.50241   1
  -2  -1   2 4.05582 0.69532   6
  -2  -1   2 3.25412 0.60017   3
  -2  -1   2 3.36948 0.46211   1
  -2  -1   2 3.35046 0.53570   2
  -2  -1   2 3.63022 0.51120   2
  -2  -1   2 3.42891 0.51880   3
   1   1  -2 51.9599 3.05332   1
   1   1  -2 51.4573 3.09168   1
  -1  -1   2 50.2413 3.08344   1
  -1  -1   2 51.0072 3.12268   6
  -1  -1   2 45.5059 3.12354   2
  -1  -1   2 52.3477 3.04557   1
  -1  -1   2 50.3226 3.08260   2
  -1  -1   2 51.5335 3.31057   3
  -1  -1   2 48.4128 3.19480   3
   0   1  -2 17.7598 1.49241   3
   0   1  -2 18.6741 1.11815   4
   0   1  -2 18.3058 1.30366   1
   0  -1   2 18.1304 1.32632   2
   0  -1   2 18.2712 1.31705   1
   0  -1   2 18.9087 1.27422   1
   0  -1   2 16.7661 1.15417   6
   0  -1   2 19.3131 1.51587   3
  -1   1  -2 1.36962 0.29345   1
  -1   1  -2 1.26770 0.43670   3
  -1   1  -2 1.31297 0.30400   4
  -1   1  -2 1.16581 0.30510   2
  -1   1  -2 1.03638 0.31781   3
  -1   1  -2 1.33026 0.32855   1
  -1   1  -2 0.86582 0.30762   2
   1  -1   2 1.20265 0.27613   1
   1  -1   2 1.21829 0.34809   1
   1  -1   2 1.23909 0.44664   3
  -2   1  -2 154.213 9.21139   6
  -2   1  -2 168.485 9.32113   2
  -2   1  -2 153.278 9.33174   2
  -2   1  -2 164.903 9.26152   1
  -2   1  -2 161.805 9.47586   5
  -2   1  -2 173.542 9.46537   4
  -2   1  -2 161.192 9.36744   3
  -2   1  -2 171.830 9.50747   3
  -2   1  -2 165.185 9.28872   1
   2  -1   2 169.405 9.27839   1
   2  -1   2 175.372 9.33919   1
  -3   1  -2 3.60888 0.59211   6
  -3   1  -2 4.54201 0.75907   4
  -3   1  -2 3.86327 0.80562   5
  -4   1  -2 126.163 8.18417   5
  -4   1  -2 139.859 8.49746  11
  -4   1  -2 128.394 8.94457  12
  -4   1  -2 135.903 8.03009   4
  -5   1  -2 24.0868 2.78522  14
  -5   1  -2 26.8035 2.60740  13
  -5   1  -2 28.4777 2.69717  11
  -5   1  -2 24.4076 2.40730  16
  -5   1  -2 26.5631 2.31790   4
  -5   1  -2 28.2271 3.13216  12
  -5   1  -2 26.1492 2.56492  17
  -5   1  -2 30.1354 2.73294  18
  -6   1  -2 18.5473 2.77947  12
  -6   1  -2 18.3635 2.23587  13
  -6   1  -2 20.5772 2.30426  11
  -6   1  -2 17.6306 2.26540  14
  -6   1  -2 19.9675 2.12920  18
  -6   1  -2 19.0577 1.99043  17
  -7   1  -2 53.1292 4.41883  12
  -7   1  -2 55.6940 4.01269  13
  -7   1  -2 61.5714 4.41734  11
  -7   0   2 0.58983 0.77389  17
  -7   0   2 1.01253 0.64205  16
  -7   0   2 0.94045 0.66563  15
  -6   0   2 260.315 15.4045  13
  -6   0   2 273.936 15.7638  14
  -6   0   2 263.005 15.3727  15
  -6   0   2 249.808 15.5750  18
  -6   0   2 275.885 15.8593  17
  -6   0   2 262.546 15.8163  16
  -5   0   2 136.351 9.08137  16
  -5   0   2 125.808 8.48044   6
  -5   0   2 130.601 8.73457  11
  -5   0   2 148.315 8.65888  13
  -5   0   2 146.387 8.94623  14
  -5   0   2 140.160 8.94675  18
  -5   0   2 122.326 8.61117  12
  -5   0   2 140.332 8.43752  15
  -5   0   2 149.334 9.08023  17
  -5   0   2 131.696 8.44590   7
  -4   0   2 35.5022 2.70996   6
  -4   0   2 33.6913 2.61403   7
  -3   0   2 1932.01 103.624   7
  -3   0   2 1829.08 103.420   4
  -3   0   2 1863.56 103.585   5
  -3   0   2 1947.52 104.246   6
   2   0  -2 156.658 8.48587   1
   2   0  -2 151.976 8.46103   1
  -2   0   2 154.920 8.74154   7
  -2   0   2 155.607 8.56767   3
  -2   0   2 143.018 8.58067   4
  -2   0   2 146.575 8.67308   5
  -2   0   2 160.132 8.51484   2
  -2   0   2 147.001 8.46427   1
  -2   0   2 155.460 8.76195   6
  -2   0   2 154.027 8.55666   3
   1   0  -2 152.821 8.32512   1
   1   0  -2 160.572 8.32228   1
  -1   0   2 138.098 8.39352   3
  -1   0   2 156.803 8.41104   3
  -1   0   2 147.001 8.32339   1
  -1   0   2 139.137 8.19046   4
  -1   0   2 146.628 8.30228   6
  -1   0   2 143.658 8.26728   7
  -1   0   2 143.850 8.38485   2
  -1   0   2 156.846 8.30468   1
  -1   0   2 139.714 8.33272   2
   0   0  -2 0.40851 0.22753   1
   0   0  -2 0.47861 0.24148   3
   0   0  -2 0.37210 0.25418   2
   0   0  -2 0.53001 0.24451   1
   0   0   2 0.35141 0.23993   3
   0   0   2 0.26950 0.22641   2
   0   0   2 0.74346 0.24343   1
   0   0   2 0.76859 0.26079   1
  -1   0  -2 39.2815 2.40793   2
  -1   0  -2 35.8914 2.44233   2
  -1   0  -2 39.7384 2.47389   3
  -1   0  -2 38.2136 2.34381   4
  -1   0  -2 35.4747 2.28358   6
  -1   0  -2 38.0978 2.42161   5
  -1   0  -2 38.0656 2.38580   1
  -1   0  -2 41.9340 2.36256   1
  -1   0  -2 37.5205 2.46529   3
   1   0   2 40.2417 2.36226   1
   1   0   2 38.0968 2.36809   1
  -2   0  -2 86.0706 4.66521   2
  -2   0  -2 80.7334 4.83508   4
  -2   0  -2 80.2269 4.70925   7
  -2   0  -2 85.1020 5.06439   5
  -2   0  -2 80.2327 4.61342   1
  -2   0  -2 83.4777 4.71150   3
  -2   0  -2 80.4119 4.64652   2
  -2   0  -2 82.0896 4.74555   3
  -2   0  -2 69.1981 4.77024   6
  -2   0  -2 81.7685 4.61862   1
   2   0   2 83.8917 4.62282   1
   2   0   2 84.3095 4.63970   1
  -3   0  -2 8.40680 0.88709   7
  -3   0  -2 11.4158 1.29559   5
  -3   0  -2 9.41487 1.00910   6
  -3   0  -2 9.64779 0.99366   4
  -4   0  -2 29.2817 2.24034   4
  -4   0  -2 25.1272 2.52466  11
  -4   0  -2 28.8834 2.57745  13
  -4   0  -2 21.1677 2.06584   6
  -4   0  -2 21.3277 2.86465  12
  -4   0  -2 28.7804 2.50248   5
  -4   0  -2 26.3186 2.71810  14
  -5   0  -2 6.49409 1.24472  18
  -5   0  -2 8.36502 1.61418  11
  -5   0  -2 8.15490 1.57239   5
  -5   0  -2 6.85717 1.43725  15
  -5   0  -2 6.13708 1.54123  12
  -5   0  -2 7.31664 1.46881  13
  -5   0  -2 8.05143 1.73037  14
  -6   0  -2 9.30657 1.76585  14
  -6   0  -2 8.15109 1.46217  13
  -6   0  -2 8.49906 1.82024  12
  -6   0  -2 7.23476 1.38378  15
  -6   0  -2 10.6592 1.96725  11
  -6   0  -2 8.23098 1.29300  18
  -7   0  -2 1.82363 0.76931  13
  -7   0  -2 0.04076 0.59893  14
  -7   1   2 7.31393 1.27097  18
  -7   1   2 7.55109 1.27615  16
  -7   1   2 6.93332 1.25530  17
  -6   1   2 3.45717 1.25897  17
  -6   1   2 3.52943 1.24480  16
  -6   1   2 4.97071 1.33350  18
  -6   1   2 3.42091 1.06160  14
  -6   1   2 1.90769 0.84093  15
  -6   1   2 3.43248 1.11389  11
  -5   1   2 7.56830 1.18772  15
  -5   1   2 8.34192 1.66919  16
  -5   1   2 6.21851 1.48853  12
  -5   1   2 9.41886 1.67635  17
  -5   1   2 4.81751 1.02743   7
  -5   1   2 6.55431 1.48065  11
  -5   1   2 4.95072 1.24952  14
  -5   1   2 10.1816 1.77759  18
  -4   1   2 0.20552 0.46569   7
  -4   1   2 0.69045 0.45650   4
   3  -1  -2 0.74160 0.16317   1
   3  -1  -2 0.77469 0.17692   1
  -3   1   2 1.22922 0.24836   3
  -3   1   2 1.55491 0.24234   3
  -3   1   2 1.36545 0.22270   2
  -3   1   2 1.03234 0.34103   5
  -3   1   2 1.22622 0.19155   1
  -3   1   2 1.41374 0.24371   2
  -3   1   2 1.40263 0.21374   1
  -3   1   2 1.02898 0.38489   4
  -3   1   2 1.00292 0.45138   7
   2  -1  -2 0.59028 0.27536   1
   2  -1  -2 0.56432 0.25889   1
  -2   1   2 0.25880 0.22358   2
  -2   1   2 0.77527 0.32968   4
  -2   1   2 0.64942 0.22176   1
  -2   1   2 0.46429 0.16259   5
  -2   1   2 0.57570 0.29318   7
  -2   1   2 0.67765 0.29974   3
  -2   1   2 0.68100 0.25802   1
  -2   1   2 0.83195 0.32728   2
  -2   1   2 0.72796 0.31106   3
   1  -1  -2 1644.53 92.7747   3
   1  -1  -2 1560.45 92.0695   2
   1  -1  -2 1815.81 92.5043   1
   1  -1  -2 1779.10 92.6344   1
  -1   1   2 1578.56 92.2438   3
  -1   1   2 1715.67 92.2160   1
  -1   1   2 1732.69 92.2801   2
  -1   1   2 1590.70 92.6177   1
  -1   1   2 1728.96 93.2008   3
  -1   1   2 1702.51 92.4410   7
   0  -1  -2 69.0773 4.29047   2
   0  -1  -2 67.8652 4.12284   5
   0  -1  -2 77.7927 4.24138   1
   0  -1  -2 71.2710 4.38098   3
   0  -1  -2 72.3705 4.22774   1
   0   1   2 74.6596 4.19765   1
   0   1   2 66.5348 4.37334   3
   0   1   2 69.2651 4.31842   2
   0   1   2 67.6490 3.97527   7
   0   1   2 74.7050 4.25096   1
  -1  -1  -2 1315.92 71.2750   3
  -1  -1  -2 1248.01 70.7248   1
  -1  -1  -2 1247.66 70.4419   6
  -1  -1  -2 1331.51 70.9269   2
  -1  -1  -2 1206.27 70.7158   3
  -1  -1  -2 1178.90 70.4711   2
  -1  -1  -2 1296.33 70.7262   5
  -1  -1  -2 1325.37 70.6596   1
   1   1   2 1372.80 71.0400   1
   1   1   2 1356.12 71.1625   1
  -2  -1  -2 90.2887 5.67974   1
  -2  -1  -2 108.057 5.85438   3
  -2  -1  -2 95.3182 5.90177   6
  -2  -1  -2 97.8128 5.72669   1
  -2  -1  -2 110.532 5.85837   2
  -2  -1  -2 100.308 6.10060   5
  -2  -1  -2 90.4972 5.75917   2
  -2  -1  -2 93.3920 5.95340   3
   2   1   2 98.2884 5.75373   1
   2   1   2 94.5404 5.69619   1
  -3  -1  -2 610.945 34.5619   6
  -3  -1  -2 628.000 34.8462   5
  -4  -1  -2 363.486 21.2739   5
  -4  -1  -2 386.567 21.2365  13
  -4  -1  -2 372.006 21.3621  11
  -4  -1  -2 385.933 21.8147  14
  -4  -1  -2 361.136 21.0343   6
  -4  -1  -2 369.010 20.9581  15
  -4  -1  -2 342.778 20.0649  10
  -4  -1  -2 344.954 21.4584  12
  -5  -1  -2 39.0164 3.69868  14
  -5  -1  -2 42.0814 3.42429  13
  -5  -1  -2 37.1966 3.62007  11
  -5  -1  -2 35.7680 3.54475   5
  -5  -1  -2 40.1354 3.37631  15
  -5  -1  -2 36.7318 3.67785  12
  -6  -1  -2 8.64201 1.90453  12
  -6  -1  -2 10.1925 1.80933  14
  -6  -1  -2 10.5558 1.65423  13
  -6  -1  -2 7.55312 1.61056  15
  -7  -1  -2 38.5304 3.00532  14
  -7   2   2 34.5959 3.05076  18
  -7   2   2 34.5891 2.95535  17
  -7   2   2 33.6215 3.34879  11
  -6   2   2 235.890 14.7017  11
  -6   2   2 242.198 14.6126  17
  -6   2   2 232.159 14.3167  16
  -6   2   2 254.624 14.9655  18
  -5   2   2 4.88388 1.31746  11
  -5   2   2 4.28717 1.02750  15
  -5   2   2 6.84470 1.56817  18
  -5   2   2 4.70467 1.13935  16
  -5   2   2 4.57915 1.22710  17
  -5   2   2 2.36561 1.52441  12
  -5   2   2 3.36261 0.92014   4
  -5   2   2 4.68368 0.47664  10
  -5   2   2 5.73883 1.15670   7
  -4   2   2 215.989 13.4947  16
  -4   2   2 234.964 13.0575   7
  -4   2   2 220.097 12.9445   4
  -4   2   2 221.056 12.4616  10
  -4   2   2 219.542 13.3817  17
  -4   2   2 214.410 13.5443  18
  -3   2   2 139.174 8.98147   3
  -3   2   2 150.813 8.90245   4
  -3   2   2 132.028 8.65023   2
  -3   2   2 159.133 8.95009   7
  -3   2   2 160.887 8.87200   3
  -3   2   2 158.991 8.81863   2
   2  -2  -2 33.2697 2.34692   1
  -2   2   2 35.9821 2.36674   7
  -2   2   2 32.2168 2.26879   1
  -2   2   2 31.8888 2.40893   1
  -2   2   2 32.5499 2.38730   4
  -2   2   2 36.5487 2.60222   3
  -2   2   2 33.6904 2.53499   2
  -2   2   2 29.7156 2.72189   3
   1  -2  -2 56.5306 3.55612   1
   1  -2  -2 48.1852 3.64452   3
   1  -2  -2 54.7402 3.46252   1
   1  -2  -2 48.4562 3.60309   2
  -1   2   2 54.7891 3.42942   1
  -1   2   2 56.7205 3.71101   2
  -1   2   2 49.6823 3.21897   7
  -1   2   2 57.5917 3.56106   1
  -1   2   2 51.5352 3.71694   3
   0  -2  -2 341.557 19.1008   2
   0  -2  -2 325.200 18.6902   5
   0  -2  -2 348.668 18.8934   1
   0  -2  -2 332.946 18.9222   1
   0  -2  -2 341.138 19.1928   3
   0   2   2 347.857 18.8523   1
   0   2   2 338.736 18.9489   1
   0   2   2 319.319 19.0908   2
   0   2   2 321.853 19.1959   3
  -1  -2  -2 627.900 34.2223   3
  -1  -2  -2 627.236 34.1968   2
  -1  -2  -2 597.404 34.0250   1
  -1  -2  -2 614.893 34.0392   5
  -1  -2  -2 605.795 33.9599   6
   1   2   2 600.291 33.8804   1
   1   2   2 610.102 34.0916   1
  -2  -2  -2 0.49849 0.44681   6
  -2  -2  -2 0.49379 0.38584   3
  -2  -2  -2 0.77022 0.50166   2
  -2  -2  -2 0.59673 0.43524   5
  -3  -2  -2 200.876 12.1225  13
  -3  -2  -2 184.810 11.2921   9
  -3  -2  -2 193.309 12.3335  12
  -3  -2  -2 211.978 12.1705   6
  -3  -2  -2 196.887 11.5311  10
  -3  -2  -2 207.649 11.4729   2
  -3  -2  -2 197.849 11.9770  15
  -3  -2  -2 210.643 12.7415  14
  -3  -2  -2 210.742 12.3151   5
  -3  -2  -2 207.647 11.6259   3
  -4  -2  -2 347.111 20.7546  14
  -4  -2  -2 334.839 19.1403  10
  -4  -2  -2 335.035 20.4372  12
  -4  -2  -2 367.316 20.1421  15
  -4  -2  -2 364.666 20.1958  13
  -4  -2  -2 327.320 20.1866   6
  -4  -2  -2 334.122 20.3285   5
  -5  -2  -2 87.3852 6.12276  15
  -5  -2  -2 83.7057 6.02625  13
  -5  -2  -2 85.3104 6.44491  14
  -6  -2  -2 7.69959 1.44834  13
  -6  -2  -2 6.35617 1.51813  14
  -7   3   2 25.7621 2.58187  11
  -7   3   2 22.6085 2.21200  17
  -6   3   2 31.3958 3.19910  18
  -6   3   2 28.7028 2.82013  17
  -6   3   2 30.5708 3.17993  11
  -5   3   2 131.708 7.41950  10
  -5   3   2 129.787 8.42768  17
  -5   3   2 117.744 8.07467   4
  -5   3   2 133.791 8.74663  18
  -5   3   2 130.660 8.77288  11
  -5   3   2 115.326 8.66253  12
  -4   3   2 7.51860 1.01398   9
  -4   3   2 9.13265 1.16568  10
  -4   3   2 9.02502 1.78981  18
  -4   3   2 9.69873 1.42304   7
  -4   3   2 9.17767 1.38486   4
  -4   3   2 9.74497 1.18845   3
  -4   3   2 10.7012 1.68454  17
  -4   3   2 10.1155 1.14794   2
  -4   3   2 8.34797 1.65391  11
  -4   3   2 4.95966 2.12750  12
  -3   3   2 197.906 11.6574   3
  -3   3   2 192.836 11.5756   2
  -3   3   2 186.237 11.2969   7
  -3   3   2 193.267 11.4860   4
  -2   3   2 54.4941 4.20986   3
  -2   3   2 59.8977 3.93125   4
  -2   3   2 52.1100 3.98267   1
  -2   3   2 61.8066 4.29554   2
   1  -3  -2 14.6807 1.84428   2
   1  -3  -2 16.5429 1.67638   1
   1  -3  -2 19.1602 2.05403   3
   1  -3  -2 18.4291 1.84716   1
  -1   3   2 15.9804 1.63443   1
  -1   3   2 18.8457 2.02357   3
  -1   3   2 19.8928 2.02001   2
   0  -3  -2 482.961 27.4218   1
   0  -3  -2 451.995 27.4789   1
   0  -3  -2 522.221 27.9848   3
   0  -3  -2 482.453 27.7438   2
   0   3   2 489.882 27.3769   1
  -1  -3  -2 715.749 39.3165   2
  -1  -3  -2 672.865 38.9244   6
  -1  -3  -2 704.708 39.3059   3
  -2  -3  -2 81.7343 4.90780   8
  -2  -3  -2 83.7632 5.44303  10
  -2  -3  -2 88.6543 5.74572   2
  -2  -3  -2 78.3509 5.36264   9
  -2  -3  -2 88.3890 5.65457   3
  -2  -3  -2 83.3619 5.64862   6
  -2  -3  -2 75.8534 5.37271  15
  -2  -3  -2 87.0798 5.76020   5
  -3  -3  -2 404.586 24.9882  16
  -3  -3  -2 458.720 24.9673  13
  -3  -3  -2 438.665 25.5381  14
  -3  -3  -2 457.779 24.9469  15
  -3  -3  -2 444.753 25.1773   6
  -3  -3  -2 436.661 24.3756  10
  -3  -3  -2 418.857 24.3975   2
  -3  -3  -2 423.021 24.1399   9
  -3  -3  -2 425.771 24.5227   3
  -4  -3  -2 38.5254 3.24101  15
  -4  -3  -2 32.9549 3.38485  14
  -4  -3  -2 31.6614 3.46593   6
  -4  -3  -2 33.0758 2.39246  10
  -4  -3  -2 31.9556 3.14222  13
  -5  -3  -2 13.9624 1.91132  13
  -5  -3  -2 11.2063 1.98569  15
  -5  -3  -2 12.5620 2.10990  14
  -6  -3  -2 6.49769 1.20050  15
  -6  -3  -2 7.55745 1.33988  14
  -7   4   2 8.99787 1.56314  11
  -6   4   2 14.4543 1.07722  10
  -6   4   2 15.8831 2.07082  17
  -6   4   2 15.4327 2.22761  11
  -6   4   2 15.2486 2.13571  18
  -5   4   2 34.9030 3.15291  17
  -5   4   2 32.1571 3.50587  11
  -5   4   2 30.7660 3.04141   4
  -5   4   2 31.1676 2.34837  10
  -5   4   2 27.5599 3.79074  12
  -5   4   2 27.8050 3.03528  18
  -4   4   2 39.8289 3.88484  18
  -4   4   2 50.4305 3.84239   4
  -4   4   2 46.6527 3.28357   9
  -4   4   2 39.9226 4.34753  12
  -4   4   2 49.6455 3.70245   2
  -4   4   2 47.0065 4.18348  11
  -4   4   2 44.4515 3.73552  17
  -4   4   2 44.9924 3.64951   3
  -4   4   2 46.7234 3.40002  10
  -3   4   2 103.651 6.88632   2
  -3   4   2 91.8904 5.92099   8
  -3   4   2 95.1050 6.86412  11
  -3   4   2 94.7526 6.32776  10
  -3   4   2 104.116 6.94203   3
  -3   4   2 106.818 6.59824   4
  -3   4   2 94.2605 6.41228   9
  -2   4   2 7.31141 1.55963   2
  -2   4   2 6.79483 1.50847   3
  -2   4   2 8.74120 1.37750   4
  -1   4   2 33.3018 3.29957   2
  -1   4   2 37.3734 3.57195   3
   0  -4  -2 358.531 20.9197   6
   0  -4  -2 366.539 21.7809   3
   0  -4  -2 369.031 21.6688   2
  -1  -4  -2 11.3172 2.00934   3
  -1  -4  -2 13.5975 2.20825   2
  -1  -4  -2 15.2048 1.65275   6
  -1  -4  -2 8.63099 1.55749  10
  -1  -4  -2 12.4103 1.40643   8
  -1  -4  -2 10.8533 1.93986   9
  -2  -4  -2 29.4261 2.84716  13
  -2  -4  -2 32.3126 2.21011   8
  -2  -4  -2 25.8647 3.21143  14
  -2  -4  -2 33.1446 2.82127  15
  -2  -4  -2 33.8541 2.98700   6
  -2  -4  -2 28.6918 2.95748   2
  -2  -4  -2 31.5563 2.92774   3
  -2  -4  -2 31.9408 2.70165  10
  -2  -4  -2 29.8306 2.68460   9
  -3  -4  -2 83.0524 6.29284  16
  -3  -4  -2 90.2659 5.80913  10
  -3  -4  -2 91.4633 6.56032   6
  -3  -4  -2 96.0271 6.29402  15
  -3  -4  -2 91.3245 6.16167  13
  -3  -4  -2 91.4176 5.56423   9
  -3  -4  -2 82.8380 6.53457  14
  -4  -4  -2 59.9330 5.09460  14
  -4  -4  -2 68.9252 4.98917  15
  -4  -4  -2 67.4854 4.19288  10
  -5  -4  -2 3.48640 1.30251  14
  -5  -4  -2 5.09712 1.20813  15
  -7   5   2 4.85880 1.24765  11
  -6   5   2 57.4979 3.67652  10
  -6   5   2 65.8969 5.00642  11
  -5   5   2 11.9323 1.92939  18
  -5   5   2 12.8998 1.50264  10
  -5   5   2 17.4582 2.92839  12
  -5   5   2 15.3304 2.47332  11
  -5   5   2 12.9953 1.19540   9
  -4   5   2 300.016 18.5928   4
  -4   5   2 321.361 18.1824   9
  -4   5   2 308.990 19.4214  12
  -4   5   2 297.888 18.6429   2
  -4   5   2 329.145 19.1904  11
  -4   5   2 328.103 18.2750  10
  -3   5   2 177.183 10.0843   8
  -3   5   2 167.749 11.0418  11
  -3   5   2 166.746 10.4255  10
  -3   5   2 155.846 11.1595   3
  -3   5   2 178.543 10.7736   4
  -3   5   2 167.189 11.1574   2
  -3   5   2 176.422 10.7171   9
  -2   5   2 59.3635 5.59572   3
  -2   5   2 73.9429 4.93963   8
  -2   5   2 79.7110 5.25047   4
  -2   5   2 72.3425 5.93078   2
   1  -5  -2 409.003 24.1458   6
  -1   5   2 431.749 24.2362   4
   0  -5  -2 88.1879 5.90262   8
   0  -5  -2 86.7397 6.11393   6
  -1  -5  -2 13.3685 2.14496   9
  -1  -5  -2 11.0826 1.79212  10
  -1  -5  -2 16.5523 2.75207   2
  -1  -5  -2 11.1420 2.19475   3
  -1  -5  -2 14.2530 1.52930   8
  -1  -5  -2 12.8766 1.81552  15
  -1  -5  -2 11.1744 1.91004   6
  -2  -5  -2 18.0588 2.03247   9
  -2  -5  -2 16.3910 2.11842  10
  -2  -5  -2 16.3694 2.46192  16
  -2  -5  -2 15.9233 2.42604   6
  -2  -5  -2 17.5678 2.37188  15
  -3  -5  -2 10.5801 1.41094  10
  -3  -5  -2 8.57338 1.12101   9
  -3  -5  -2 10.5052 1.88502  15
  -3  -5  -2 8.24255 1.64885  16
  -4  -5  -2 1.66861 0.85626  15
  -6   6   2 0.52793 1.05057  11
  -6   6   2 0.39447 0.33087  10
  -5   6   2 0.83070 0.61659  10
  -5   6   2 1.44324 1.77473  12
  -5   6   2 0.11443 1.13864  11
  -5   6   2 0.55365 0.50645   9
  -4   6   2 48.1797 3.92777  10
  -4   6   2 51.6012 4.46819  11
  -4   6   2 50.8269 4.96984  12
  -4   6   2 57.4845 4.01447   9
  -3   6   2 1.54957 1.14647   9
  -3   6   2 4.87332 1.59159   4
  -3   6   2 2.70700 1.35501  11
  -3   6   2 2.52984 0.81768   8
  -2   6   2 29.3388 2.64123   8
  -2   6   2 26.9860 2.77168   4
   1  -6  -2 27.8121 2.80692   8
   1  -6  -2 23.4458 2.56405   6
   0  -6  -2 95.7245 6.94682   9
   0  -6  -2 91.3349 5.74767   8
   0  -6  -2 74.5112 5.67011  15
  -1  -6  -2 23.1157 2.46150  15
  -1  -6  -2 22.1118 2.63535   9
  -1  -6  -2 23.1376 2.01151   8
  -2  -6  -2 44.1174 3.35172  10
  -2  -6  -2 40.0723 3.35522  15
  -2  -6  -2 38.2906 3.41862  16
  -2  -6  -2 42.3761 3.22441   9
  -3  -6  -2 162.907 9.94504  15
  -3  -6  -2 166.570 9.65825  10
  -5   7   2 19.6668 1.67418  10
  -5   7   2 15.2334 2.14973  11
  -4   7   2 35.8312 3.56128  12
  -4   7   2 38.9248 3.14558  10
  -4   7   2 41.4070 3.11475   9
  -4   7   2 37.8028 3.53495  11
  -3   7   2 0.04281 1.20964  11
  -3   7   2 0.52486 1.15866   9
  -3   7   2 0.39713 0.44842   8
  -2   7   2 13.5773 1.64410   8
   1  -7  -2 56.8899 4.13000   8
  -1   7   2 54.3403 4.29755   8
   0  -7  -2 14.8161 1.51759   8
  -1  -7  -2 13.9692 1.87731  16
  -1  -7  -2 10.9065 1.47372  15
  -1  -7  -2 16.2955 1.94859   9
  -2  -7  -2 1.30289 0.44043   9
  -2  -7  -2 0.27272 0.49283  10
  -2  -7  -2 0.74689 0.68393  15
  -4   8   2 3.07971 0.68990   9
  -3   8   2 0.07333 0.77302   9
  -3   8   2 1.03037 0.91065  12
   2  -8  -2 0.15519 0.94754   8
  -2   8   2 -0.2033 0.61038   8
   1  -8  -2 39.7518 2.78515   8
  -1   8   2 41.4989 3.05763   8
   0  -8  -2 109.093 6.72802   9
  -1  -8   3 35.3585 2.96630  16
   0  -8   3 11.1100 1.67888  16
  -1   8  -3 8.66234 1.29072   8
  -2   8  -3 243.349 13.9621   8
   2  -8   3 245.519 14.1587   8
  -3   8  -3 8.96569 1.31429   9
  -3   8  -3 6.16306 0.67534   8
  -3   8  -3 7.63496 1.52031  12
  -4   8  -3 51.6625 4.15794  12
  -4   8  -3 54.8185 3.58787  10
  -3  -7   3 16.1536 1.85292  16
  -2  -7   3 16.3962 2.34562  16
  -2  -7   3 12.0094 1.34350  10
  -1  -7   3 5.48598 1.57281  16
   0  -7   3 40.1720 3.43642   9
  -1   7  -3 14.0493 2.01754   8
   1  -7   3 19.4715 1.89617   8
  -2   7  -3 7.48290 1.25446   8
  -3   7  -3 0.61920 0.79944   9
  -3   7  -3 0.65032 0.50007   8
  -4   7  -3 8.93913 1.26008  10
  -4   7  -3 14.8845 2.30206  12
  -4   7  -3 13.0755 1.43324   9
  -5   7  -3 7.15137 0.98581  10
  -5   7  -3 5.08882 2.00087  12
  -6   7  -3 28.5042 2.64564  12
  -4  -6   3 6.18890 1.37574  16
  -4  -6   3 9.02742 0.81787  10
  -3  -6   3 7.47772 1.80820  16
  -3  -6   3 6.51540 1.04288  10
  -3  -6   3 6.50532 1.17921  15
  -2  -6   3 140.925 8.85309  10
  -2  -6   3 138.295 8.75644   9
  -2  -6   3 158.482 9.99164  16
  -1  -6   3 45.5445 3.22185   8
  -1  -6   3 46.7178 3.80600   9
   0  -6   3 7.52661 1.39853   8
  -1   6  -3 181.399 11.2355   8
  -2   6  -3 95.3629 6.25637   8
  -3   6  -3 41.4190 3.62859   4
  -3   6  -3 48.3770 3.17793   8
  -3   6  -3 45.6979 3.74057   9
  -3   6  -3 38.7980 3.45222  10
  -4   6  -3 40.7810 4.10720  12
  -4   6  -3 39.9862 3.13628   9
  -4   6  -3 41.0077 3.10869  10
  -5   6  -3 11.7551 1.04219   9
  -5   6  -3 10.9945 1.78579  11
  -5   6  -3 12.9228 1.31350  10
  -5   6  -3 12.0831 2.53947  12
  -6   6  -3 11.4502 1.98527  12
  -6   6  -3 11.6071 0.98038  10
  -6   6  -3 10.5249 1.57510  11
  -5  -5   3 4.75991 1.14546  16
  -5  -5   3 4.07816 0.72844  15
  -4  -5   3 10.3666 1.46546  15
  -4  -5   3 13.0423 2.61108  16
  -4  -5   3 10.8907 1.11419  10
  -3  -5   3 94.1574 6.39253  15
  -3  -5   3 97.2430 6.16367  10
  -3  -5   3 104.521 7.66125  16
  -2  -5   3 49.6688 4.32008  16
  -2  -5   3 41.1829 3.63620   6
  -2  -5   3 44.0941 2.92217   8
  -2  -5   3 44.1476 3.31162  10
  -2  -5   3 41.9794 3.73894   2
  -2  -5   3 43.8623 3.32549   9
  -2  -5   3 39.1012 3.28344  15
  -1  -5   3 1.07679 0.59246   8
  -1  -5   3 0.26232 0.89372   2
  -1  -5   3 1.01950 0.92043   9
  -1  -5   3 0.41002 0.76232  10
  -1  -5   3 0.47918 1.01546   3
  -1  -5   3 0.70312 0.79956   6
   0  -5   3 1.45445 0.89323   8
   0  -5   3 1.29821 0.72113   6
  -2   5  -3 40.7837 3.01688   4
  -2   5  -3 33.3765 3.94305   3
  -2   5  -3 37.8994 2.96916   8
  -3   5  -3 24.8449 2.52328   9
  -3   5  -3 27.5513 2.61136   4
  -3   5  -3 24.1791 3.16695   3
  -3   5  -3 28.6569 2.87744   2
  -3   5  -3 31.3113 2.20178   8
  -3   5  -3 28.0522 2.48944  10
  -4   5  -3 36.7260 2.79409   9
  -4   5  -3 37.9714 2.82626  10
  -4   5  -3 34.7486 3.12226   2
  -4   5  -3 32.0640 2.99352   4
  -4   5  -3 35.5481 3.45968  11
  -4   5  -3 39.0414 4.14833  12
  -5   5  -3 60.0292 4.86633  11
  -5   5  -3 66.2986 4.05214  10
  -5   5  -3 64.9408 5.74413  12
  -5   5  -3 57.0085 4.37108  18
  -6   5  -3 36.4621 3.15081  11
  -6   5  -3 32.7458 3.97650  12
  -6   5  -3 30.9748 2.14648  10
  -6   5  -3 32.3838 2.71761  18
  -7   5  -3 31.5752 2.60892  11
  -6  -4   3 8.69996 0.97188  15
  -5  -4   3 56.7982 3.92372  15
  -5  -4   3 52.9957 4.64082  16
  -4  -4   3 17.4101 2.18033  14
  -4  -4   3 16.4333 1.84170  15
  -4  -4   3 17.6069 1.52400  10
  -4  -4   3 18.0953 3.04149  16
  -3  -4   3 113.159 7.22062   2
  -3  -4   3 110.480 7.60169  14
  -3  -4   3 113.748 7.59196   6
  -3  -4   3 125.900 8.46694  16
  -3  -4   3 114.716 6.99093  10
  -3  -4   3 113.573 7.31896  15
  -3  -4   3 106.056 7.36138   3
  -3  -4   3 120.265 6.93611   9
  -2  -4   3 168.407 10.0897   9
  -2  -4   3 168.299 9.71030   8
  -2  -4   3 176.150 11.0607   3
  -2  -4   3 172.297 10.5011   6
  -2  -4   3 175.101 10.4956   2
  -2  -4   3 155.927 10.1019  15
  -2  -4   3 170.197 10.1100  10
  -1  -4   3 24.7787 2.44710   2
  -1  -4   3 26.6921 3.03579   3
  -1  -4   3 22.9028 1.90082   8
  -1  -4   3 24.8515 2.19274   6
   0  -4   3 372.916 20.7917   6
   0  -4   3 368.202 22.1483   3
   0  -4   3 359.463 21.3534   2
  -1   4  -3 129.304 7.67402   4
  -1   4  -3 124.006 8.26346   2
  -1   4  -3 129.375 9.04507   3
  -2   4  -3 946.821 54.0238   4
  -2   4  -3 969.187 54.5755   2
  -2   4  -3 1018.38 55.5034   3
  -3   4  -3 57.6143 4.07332   9
  -3   4  -3 66.5200 4.32472   4
  -3   4  -3 70.3885 5.16780   3
  -3   4  -3 54.1678 4.61547  11
  -3   4  -3 57.0463 4.01591  10
  -3   4  -3 62.5930 4.38675   2
  -3   4  -3 57.7850 3.74303   8
  -4   4  -3 47.2846 3.91165  18
  -4   4  -3 47.3647 3.88316   3
  -4   4  -3 52.3455 3.40910  10
  -4   4  -3 49.5586 3.34138   9
  -4   4  -3 53.3673 3.86269   4
  -4   4  -3 53.0337 3.67647   2
  -4   4  -3 46.5031 3.97408  11
  -4   4  -3 52.0011 4.78083  12
  -5   4  -3 73.8826 5.59640  11
  -5   4  -3 73.9333 4.54168  10
  -5   4  -3 69.3537 5.22248  18
  -5   4  -3 66.2502 5.12429   4
  -5   4  -3 86.5886 6.57441  12
  -6   4  -3 8.96415 2.08802  12
  -6   4  -3 6.37179 1.34367  11
  -6   4  -3 6.78866 1.34052  18
  -7   4  -3 7.90592 1.53463  12
  -7   4  -3 7.55480 1.23187  11
  -6  -3   3 4.48866 1.23855  16
  -6  -3   3 4.15216 0.82207  15
  -5  -3   3 1.86686 1.05996  14
  -5  -3   3 0.49877 0.73259  15
  -5  -3   3 0.47327 1.57833  16
  -4  -3   3 12.4340 1.94362   6
  -4  -3   3 11.6487 1.73232  15
  -4  -3   3 13.7105 1.90068  14
  -4  -3   3 13.3874 1.25725  10
  -4  -3   3 13.3000 2.56422  16
  -3  -3   3 24.1352 2.02525   2
  -3  -3   3 22.5274 2.54714  14
  -3  -3   3 23.5637 2.14844  15
  -3  -3   3 25.5544 2.37731   6
  -3  -3   3 23.1559 2.97928  16
  -3  -3   3 24.5233 2.22009   3
  -3  -3   3 23.8725 1.87633  10
  -3  -3   3 22.9864 1.87228   9
  -2  -3   3 132.641 8.61340   3
  -2  -3   3 123.323 7.78300   7
  -2  -3   3 130.632 8.17188   6
  -2  -3   3 140.891 8.15210   2
  -1  -3   3 6.75408 1.04863   6
  -1  -3   3 4.76814 0.99054   2
  -1  -3   3 4.16315 0.84627   1
  -1  -3   3 6.00807 1.40334   3
   0   3  -3 0.77316 0.26479   4
   0   3  -3 0.52210 0.62237   3
   0   3  -3 0.33826 0.41540   1
   0   3  -3 0.15390 0.47221   2
   0   3  -3 0.81732 0.58268   1
   0  -3   3 1.31301 0.41325   6
   0  -3   3 1.42805 0.74394   3
   0  -3   3 0.90664 0.57555   1
   0  -3   3 1.19017 0.52398   1
   0  -3   3 0.72278 0.49993   2
  -1   3  -3 0.99663 0.48028   1
  -1   3  -3 1.03198 0.37953   4
  -1   3  -3 0.57615 0.49390   2
  -1   3  -3 0.75517 0.67165   3
  -1   3  -3 0.43983 0.43863   1
   1  -3   3 0.40019 0.44528   1
   1  -3   3 0.34719 0.22297   6
   1  -3   3 0.76141 0.71228   3
   1  -3   3 0.48703 0.47283   2
   1  -3   3 0.82752 0.44482   1
  -2   3  -3 924.065 50.1253   3
  -2   3  -3 859.039 49.1515   4
  -3   3  -3 149.956 9.03088   4
  -3   3  -3 140.851 9.09409   5
  -3   3  -3 158.427 9.59328   3
  -3   3  -3 153.051 8.99062   2
  -4   3  -3 539.861 29.4175   4
  -4   3  -3 466.252 29.3816  13
  -4   3  -3 480.630 28.7297   9
  -4   3  -3 526.690 28.9974   2
  -4   3  -3 519.663 29.1041   3
  -4   3  -3 536.275 30.3752  12
  -4   3  -3 537.475 28.8079  10
  -4   3  -3 510.659 29.7083  11
  -4   3  -3 542.010 29.6982  18
  -4   3  -3 548.899 29.5002  17
  -5   3  -3 1.68174 0.87742   4
  -5   3  -3 1.99502 0.97800  18
  -5   3  -3 3.57575 1.78491  12
  -5   3  -3 1.42382 1.02162  13
  -5   3  -3 2.60049 1.08574  11
  -5   3  -3 1.62599 0.43538  10
  -6   3  -3 132.281 9.12289  12
  -6   3  -3 125.205 8.40628  11
  -6   3  -3 125.126 8.18686  18
  -7   3  -3 78.0267 5.96775  12
  -7   3  -3 82.5353 5.63660  11
  -7  -2   3 11.1972 1.17432  15
  -7  -2   3 9.77713 1.24359  16
  -6  -2   3 106.269 6.31176  15
  -6  -2   3 95.8854 6.49264  14
  -6  -2   3 91.4816 6.91530  16
  -5  -2   3 6.72050 1.52347  14
  -5  -2   3 2.66435 1.72309  16
  -5  -2   3 4.09159 1.46357  17
  -5  -2   3 4.77161 1.17438  15
  -5  -2   3 4.26569 1.20957   6
  -5  -2   3 5.03147 1.33380  13
  -4  -2   3 377.012 20.5717  10
  -4  -2   3 356.104 22.1333  16
  -4  -2   3 349.313 21.6023  17
  -4  -2   3 373.495 21.4502   6
  -4  -2   3 392.358 21.8097  14
  -4  -2   3 378.433 21.2927  13
  -4  -2   3 366.632 21.2050  15
  -3  -2   3 29.0716 2.39060   6
  -3  -2   3 23.1356 2.07570   7
  -3  -2   3 28.4837 2.11358   2
  -3  -2   3 29.2375 2.18025   3
  -2  -2   3 105.539 6.60226   3
  -2  -2   3 103.002 6.32476   6
  -2  -2   3 106.124 6.23047   2
  -2  -2   3 94.1929 6.08012   7
   1   2  -3 0.49458 0.42594   2
   1   2  -3 1.76239 0.54446   1
   1   2  -3 2.28292 0.50208   1
  -1  -2   3 2.23223 0.72082   3
  -1  -2   3 1.72046 0.72679   3
  -1  -2   3 2.16387 0.54895   2
  -1  -2   3 1.65408 0.44045   1
  -1  -2   3 2.88462 0.59449   6
  -1  -2   3 1.68160 0.49076   1
   0   2  -3 799.087 44.4854   3
   0   2  -3 750.981 43.5744   4
   0   2  -3 804.091 44.0200   1
   0  -2   3 838.847 44.5267   3
   0  -2   3 781.698 44.0167   1
   0  -2   3 800.900 44.0483   2
   0  -2   3 797.592 43.7086   6
   0  -2   3 802.664 43.9230   1
  -1   2  -3 2659.47 141.698   4
  -1   2  -3 2745.07 143.476   3
  -1   2  -3 2575.38 141.774   1
   1  -2   3 2755.71 141.992   1
   1  -2   3 2614.25 141.811   3
   1  -2   3 2333.51 140.878   6
   1  -2   3 2397.52 141.717   2
   1  -2   3 2604.59 142.168   1
  -2   2  -3 443.945 23.4692   3
  -2   2  -3 427.987 22.9400   2
  -2   2  -3 386.564 23.1224   3
  -2   2  -3 440.085 22.9521   4
  -2   2  -3 354.168 23.0361   2
  -2   2  -3 376.769 23.0759   5
  -2   2  -3 416.425 22.8441   1
  -2   2  -3 402.177 22.9631   1
   2  -2   3 433.143 23.0813   1
   2  -2   3 425.317 22.9018   1
  -3   2  -3 29.1396 2.24440   3
  -3   2  -3 30.9764 2.17552   2
  -3   2  -3 34.0395 2.48460   3
  -3   2  -3 31.7736 2.45048   5
  -3   2  -3 32.9410 2.38101   4
  -3   2  -3 26.5831 2.16450   2
  -4   2  -3 364.058 20.2073   4
  -4   2  -3 368.974 20.6245  18
  -4   2  -3 350.014 21.0792  12
  -4   2  -3 348.082 19.6096  10
  -4   2  -3 352.392 20.5918  11
  -4   2  -3 343.510 20.3120   5
  -4   2  -3 353.344 20.5247  13
  -4   2  -3 353.475 20.3445  17
  -5   2  -3 36.3689 3.24884  18
  -5   2  -3 37.0343 3.40136  11
  -5   2  -3 42.5041 4.00824  12
  -5   2  -3 34.6417 2.97067   4
  -5   2  -3 37.6928 3.17975  17
  -5   2  -3 34.2119 3.27318  13
  -6   2  -3 7.07267 1.55432  13
  -6   2  -3 8.59082 1.91038  12
  -6   2  -3 7.46448 1.54826  11
  -6   2  -3 9.45432 1.50540  18
  -7   2  -3 14.4559 2.03452  11
  -7   2  -3 17.5504 2.24104  12
  -7  -1   3 0.26184 0.60817  16
  -7  -1   3 0.59085 0.55661  15
  -6  -1   3 2.44951 1.08257  16
  -6  -1   3 2.71734 0.80762  15
  -6  -1   3 1.82438 0.88807  17
  -6  -1   3 2.22687 1.02430  14
  -5  -1   3 4.23952 1.16973   6
  -5  -1   3 6.70260 1.36901  13
  -5  -1   3 4.95978 1.51246  16
  -5  -1   3 5.89550 1.43159  17
  -5  -1   3 6.45800 1.46578  14
  -5  -1   3 5.95138 1.22251  15
  -4  -1   3 18.0733 1.78156   7
  -4  -1   3 20.6173 2.10928  13
  -4  -1   3 23.2444 2.05683   6
  -4  -1   3 19.4048 1.49989  10
  -4  -1   3 20.8415 2.32303  14
  -4  -1   3 22.6441 2.96551  16
  -4  -1   3 20.6433 2.45827  17
  -4  -1   3 21.5688 2.02970  15
  -3  -1   3 88.2488 5.41231   7
  -3  -1   3 85.3275 4.96185   2
  -3  -1   3 90.6170 4.97730   2
  -3  -1   3 80.6048 4.92743   1
  -3  -1   3 89.0858 5.00697   3
  -3  -1   3 93.0888 5.60559   6
  -3  -1   3 87.0087 5.01069   3
   2   1  -3 26.8508 1.79634   1
   2   1  -3 23.9329 1.72171   1
  -2  -1   3 22.3412 1.71638   1
  -2  -1   3 25.4568 1.78335   7
  -2  -1   3 26.8743 1.92529   6
  -2  -1   3 26.6259 1.83897   2
  -2  -1   3 22.8360 1.69677   1
  -2  -1   3 27.4680 1.99280   3
  -2  -1   3 21.8736 1.77674   2
  -2  -1   3 24.2540 1.82060   3
   1   1  -3 151.018 9.38245   3
   1   1  -3 164.932 9.10818   1
   1   1  -3 174.569 9.07240   1
  -1  -1   3 158.588 9.07506   1
  -1  -1   3 168.220 9.04516   1
  -1  -1   3 145.087 9.17357   3
  -1  -1   3 162.077 9.33895   3
  -1  -1   3 168.055 9.11841   2
  -1  -1   3 136.902 9.10599   2
  -1  -1   3 162.549 9.06108   6
   0   1  -3 1817.20 99.6764   1
   0   1  -3 1879.52 99.4111   1
   0   1  -3 1788.78 99.0094   4
   0   1  -3 1849.96 100.104   3
   0   1  -3 1735.42 99.1997   2
   0  -1   3 1856.64 99.9406   1
   0  -1   3 1744.78 99.5728   2
   0  -1   3 1863.84 99.6217   1
   0  -1   3 1802.22 100.555   3
   0  -1   3 1793.55 99.2040   6
  -1   1  -3 989.573 52.7574   1
  -1   1  -3 976.164 52.7530   2
  -1   1  -3 949.839 53.0268   3
  -1   1  -3 964.846 52.5159   4
   1  -1   3 956.220 52.5985   1
   1  -1   3 864.084 52.8288   3
   1  -1   3 1015.20 52.8134   1
  -2   1  -3 38.0312 2.38818   1
  -2   1  -3 39.2205 2.51267   2
  -2   1  -3 33.1349 2.39818   2
  -2   1  -3 35.7053 2.54042   3
  -2   1  -3 40.9469 2.63683   3
  -2   1  -3 36.8606 2.61703   5
  -2   1  -3 37.7942 2.40954   1
  -2   1  -3 30.3157 2.14655   6
  -2   1  -3 39.7103 2.48562   4
   2  -1   3 38.3927 2.42826   1
   2  -1   3 38.2694 2.43344   1
  -3   1  -3 790.792 46.4079   1
  -3   1  -3 899.798 46.5627   3
  -3   1  -3 892.511 47.1628   5
  -3   1  -3 904.116 46.9164   4
  -3   1  -3 895.923 46.5358   3
  -3   1  -3 813.376 46.4432   2
   3  -1   3 758.505 46.3909   1
  -4   1  -3 37.5445 3.03974  11
  -4   1  -3 36.5979 3.46421  12
  -4   1  -3 33.6173 3.05217  13
  -4   1  -3 31.2826 2.16507  10
  -4   1  -3 34.8998 2.91448   5
  -4   1  -3 38.1894 2.72072   4
  -4   1  -3 35.6528 2.94844  18
  -5   1  -3 32.2269 2.86194  17
  -5   1  -3 35.0099 2.91018  18
  -5   1  -3 33.5467 3.65593  12
  -5   1  -3 36.6413 3.15062  13
  -5   1  -3 30.0949 2.70602   4
  -5   1  -3 31.2366 3.03442   5
  -5   1  -3 36.6344 3.12108  11
  -5   1  -3 28.4247 3.16631  14
  -6   1  -3 110.926 6.89491  18
  -6   1  -3 95.5498 7.14304  14
  -6   1  -3 106.469 7.57750  12
  -6   1  -3 104.600 7.13343  13
  -6   1  -3 116.607 7.49660  11
  -7   1  -3 2.50563 1.13917  13
  -7   1  -3 2.74849 1.26420  11
  -7   1  -3 4.45198 1.66381  12
  -7   0   3 30.5699 2.62060  16
  -7   0   3 23.2002 2.23024  17
  -7   0   3 29.1887 2.24727  15
  -6   0   3 82.8330 5.34940  15
  -6   0   3 77.6841 5.25720  13
  -6   0   3 74.5225 5.53801  18
  -6   0   3 81.3660 5.82360  17
  -6   0   3 82.3577 5.58847  14
  -6   0   3 79.1070 5.87700  16
  -5   0   3 10.1957 1.49797  15
  -5   0   3 11.2092 1.90548  18
  -5   0   3 9.13244 1.38294   7
  -5   0   3 13.8905 2.10708  17
  -5   0   3 12.9697 1.68942  13
  -5   0   3 10.9954 1.71650  14
  -5   0   3 9.28996 1.95040  16
  -4   0   3 231.155 13.6303   7
  -4   0   3 236.864 13.6086  15
  -4   0   3 244.382 13.7206   6
  -4   0   3 224.794 14.1999  16
  -3   0   3 14.1981 1.33056   6
  -3   0   3 13.3639 1.30004   7
  -3   0   3 11.7555 1.06671   4
   2   0  -3 7.00931 0.61970   1
   2   0  -3 6.13675 0.62837   1
  -2   0   3 4.88918 0.58780   2
  -2   0   3 6.33857 0.71702   2
  -2   0   3 6.41839 0.59663   1
  -2   0   3 5.85768 0.62488   1
  -2   0   3 6.37815 0.71679   3
  -2   0   3 6.93484 0.82936   7
  -2   0   3 6.88537 0.75188   6
  -2   0   3 5.85179 0.72220   3
  -2   0   3 5.52961 0.57679   4
   1   0  -3 270.117 14.4082   1
   1   0  -3 236.739 14.5084   3
   1   0  -3 269.678 14.4031   1
  -1   0   3 267.950 14.2987   6
  -1   0   3 257.768 14.2763   7
  -1   0   3 261.572 14.5020   2
  -1   0   3 260.163 14.5415   3
  -1   0   3 263.078 14.4040   1
  -1   0   3 251.341 14.3507   1
  -1   0   3 228.336 14.4088   2
   0   0  -3 450.277 25.6057   3
   0   0  -3 476.911 25.4799   1
   0   0  -3 444.647 25.5527   2
   0   0  -3 470.642 25.5036   1
   0   0   3 476.796 25.4931   1
   0   0   3 453.271 25.6293   3
   0   0   3 452.586 25.5837   2
   0   0   3 455.703 25.4556   1
  -1   0  -3 355.589 19.0895   4
  -1   0  -3 358.718 19.2001   1
  -1   0  -3 345.103 19.1504   1
  -1   0  -3 344.565 19.3163   3
  -1   0  -3 310.938 19.3167   3
  -1   0  -3 348.157 19.2528   2
  -1   0  -3 335.998 19.3036   2
  -1   0  -3 337.682 19.1912   5
   1   0   3 355.206 19.1850   1
   1   0   3 352.586 19.1654   1
  -2   0  -3 8.44588 1.03412   5
  -2   0  -3 8.25881 0.88032   3
  -2   0  -3 8.98651 0.76569   1
  -2   0  -3 7.43917 0.77432   2
  -2   0  -3 8.15955 0.84558   4
  -2   0  -3 9.31159 0.83867   2
  -2   0  -3 8.83982 0.87145   3
  -2   0  -3 7.43590 0.76527   6
  -2   0  -3 8.45633 0.75984   1
   2   0   3 8.22702 0.77203   1
   2   0   3 8.33265 0.73934   1
  -3   0  -3 43.3271 2.92983   4
  -3   0  -3 42.2140 3.17930   5
  -3   0  -3 40.6154 2.88058   6
  -4   0  -3 31.0413 2.80016   5
  -4   0  -3 36.6291 3.01808  13
  -4   0  -3 34.0635 3.14996  12
  -4   0  -3 30.0913 2.56279  18
  -4   0  -3 27.0139 1.86763  10
  -4   0  -3 33.2798 2.95950  11
  -4   0  -3 31.5673 3.23971  14
  -5   0  -3 2.59974 1.26573  11
  -5   0  -3 3.18764 0.95970  18
  -5   0  -3 2.67774 1.15767  12
  -5   0  -3 3.01007 1.28594   5
  -5   0  -3 3.03590 1.16176  15
  -5   0  -3 2.16948 1.20681  14
  -5   0  -3 2.71672 1.08300  13
  -6   0  -3 38.4454 3.64737  12
  -6   0  -3 36.9065 3.64044  11
  -6   0  -3 37.9820 3.56817  14
  -6   0  -3 43.0964 3.57889  13
  -7   0  -3 43.9027 3.55157  14
  -7   0  -3 54.7822 3.67586  13
  -7   1   3 16.3555 1.80430  17
  -7   1   3 13.8748 1.68451  18
  -7   1   3 15.8180 1.73207  16
  -6   1   3 64.5874 4.90298  18
  -6   1   3 64.0817 4.81342  17
  -6   1   3 56.0435 4.33517  14
  -6   1   3 62.5288 4.73755  16
  -6   1   3 58.3866 4.73141  11
  -6   1   3 64.7375 4.35553  15
  -5   1   3 2.80325 1.14063  16
  -5   1   3 3.89662 0.98612  15
  -5   1   3 3.68787 1.08208  14
  -5   1   3 3.74233 1.07118  11
  -5   1   3 3.43400 0.92079   7
  -5   1   3 4.27454 1.34251  17
  -5   1   3 4.79912 1.42790  18
  -4   1   3 487.997 26.3669   7
  -4   1   3 445.490 26.0573   4
   3  -1  -3 301.757 16.1370   1
  -3   1   3 294.375 16.3155   3
  -3   1   3 276.326 16.1593   2
  -3   1   3 303.010 16.1568   2
  -3   1   3 290.905 16.2350   3
  -3   1   3 270.837 16.0871   1
  -3   1   3 308.352 16.5031   7
  -3   1   3 282.936 16.3105   4
  -3   1   3 276.356 16.0744   1
   2  -1  -3 107.926 6.17557   1
   2  -1  -3 108.773 6.13470   1
  -2   1   3 105.946 6.20439   7
  -2   1   3 112.762 6.23221   2
  -2   1   3 93.3246 6.16414   2
  -2   1   3 97.7267 6.10188   4
  -2   1   3 101.470 6.10140   1
  -2   1   3 108.597 6.29987   3
  -2   1   3 106.013 6.12393   1
  -2   1   3 99.1437 6.35426   3
   1  -1  -3 1354.17 79.7988   2
   1  -1  -3 1519.75 80.4334   1
   1  -1  -3 1349.11 79.8338   3
   1  -1  -3 1583.52 80.0515   1
  -1   1   3 1470.55 79.8554   7
  -1   1   3 1493.50 80.3174   2
  -1   1   3 1489.90 80.0538   1
  -1   1   3 1470.48 80.6707   3
  -1   1   3 1386.44 79.7132   1
   0  -1  -3 99.7910 5.86359   5
   0  -1  -3 107.166 5.98033   1
   0  -1  -3 100.684 6.09550   2
   0  -1  -3 100.381 6.12309   3
   0  -1  -3 105.763 6.00444   1
   0   1   3 97.0128 6.15380   3
   0   1   3 105.328 6.03222   1
   0   1   3 98.9076 6.11387   2
   0   1   3 95.7605 5.67609   7
   0   1   3 106.438 5.95749   1
  -1  -1  -3 24.9698 1.84271   3
  -1  -1  -3 22.7309 1.98014   3
  -1  -1  -3 19.4277 1.72389   2
  -1  -1  -3 24.0715 1.82151   2
  -1  -1  -3 25.0079 1.74490   1
  -1  -1  -3 22.8725 1.70086   1
  -1  -1  -3 25.4943 1.85379   5
   1   1   3 25.3262 1.72794   1
   1   1   3 22.9206 1.73933   1
  -2  -1  -3 549.656 31.3263   3
  -2  -1  -3 560.993 31.1209   6
  -2  -1  -3 613.214 31.1316   2
  -2  -1  -3 603.033 31.4225   5
  -2  -1  -3 566.706 31.1525   3
  -2  -1  -3 501.509 31.0918   2
  -2  -1  -3 543.470 30.9612   1
  -2  -1  -3 537.387 31.0124   1
   2   1   3 565.766 31.0292   1
  -3  -1  -3 152.947 8.82006   3
  -3  -1  -3 157.024 8.79789   3
  -3  -1  -3 162.305 8.73897   2
  -3  -1  -3 157.387 9.38242   6
  -3  -1  -3 149.530 8.72700   2
  -3  -1  -3 155.546 9.64880   5
  -4  -1  -3 84.4767 6.11548  14
  -4  -1  -3 86.0530 5.72239  13
  -4  -1  -3 74.6636 5.89255  12
  -4  -1  -3 78.1679 5.42635   6
  -4  -1  -3 74.8291 5.74845  11
  -4  -1  -3 82.2968 5.74278   5
  -4  -1  -3 76.9507 5.43093  15
  -4  -1  -3 73.2209 4.55752  10
  -5  -1  -3 73.2502 5.69115  12
  -5  -1  -3 77.9611 5.46708  13
  -5  -1  -3 70.3247 5.19755  15
  -5  -1  -3 70.0765 5.73371  11
  -5  -1  -3 66.9307 5.44504   5
  -5  -1  -3 77.7324 5.92532  14
  -6  -1  -3 1.34813 1.12021  15
  -6  -1  -3 2.50779 0.89437  13
  -6  -1  -3 2.14766 1.44983  12
  -6  -1  -3 1.68997 1.14193  14
  -7  -1  -3 0.47828 0.65044  13
  -7  -1  -3 0.80143 0.97942  14
  -7   2   3 6.93738 1.33454  17
  -7   2   3 3.54085 1.46901  11
  -7   2   3 8.87037 1.45192  18
  -6   2   3 0.55725 0.96879  18
  -6   2   3 0.17225 0.77635  11
  -6   2   3 -0.0869 0.81972  16
  -6   2   3 0.81069 1.01758  17
  -5   2   3 1.53584 0.79018   7
  -5   2   3 1.20562 0.99631  18
  -5   2   3 0.85781 0.77294  11
  -5   2   3 1.12705 0.75766  16
  -5   2   3 1.01721 0.33388  10
  -5   2   3 1.11131 1.00857  17
  -5   2   3 0.41036 0.70198  15
  -5   2   3 2.22990 0.96085   4
  -4   2   3 1.70469 0.70329   7
  -4   2   3 1.12002 0.77366  11
  -4   2   3 1.40347 0.35568   2
  -4   2   3 1.48111 0.35657   3
  -4   2   3 1.73356 0.63795   4
  -4   2   3 1.92058 0.56618  10
  -4   2   3 1.26428 0.33926   3
  -4   2   3 1.25673 0.90924  16
  -4   2   3 2.74760 1.03761  17
  -4   2   3 1.46698 0.36123   2
  -4   2   3 2.18353 0.89194  18
  -3   2   3 23.0171 1.92594   3
  -3   2   3 20.7407 1.91462   4
  -3   2   3 23.8346 1.99448   7
  -3   2   3 24.5734 1.99996   2
   2  -2  -3 126.032 7.75042   1
   2  -2  -3 129.932 7.66141   1
  -2   2   3 137.863 7.93878   3
  -2   2   3 132.681 7.92963   2
  -2   2   3 132.817 7.63402   7
  -2   2   3 119.090 7.69857   1
  -2   2   3 124.573 7.59101   1
   1  -2  -3 63.5939 3.92694   1
   1  -2  -3 55.8794 4.01665   2
   1  -2  -3 57.3837 4.05803   3
   1  -2  -3 57.8611 3.78560   1
  -1   2   3 58.0523 3.74388   1
  -1   2   3 58.5291 4.03041   2
  -1   2   3 61.2038 4.12865   3
  -1   2   3 54.6229 3.55579   7
  -1   2   3 60.5615 3.91926   1
   0  -2  -3 195.001 11.3718   2
   0  -2  -3 185.380 10.9294   5
   0  -2  -3 190.471 11.1621   1
   0  -2  -3 194.387 11.0964   1
   0  -2  -3 199.682 11.4372   3
   0   2   3 200.026 11.0679   1
   0   2   3 183.891 11.3414   2
   0   2   3 183.564 11.4132   3
   0   2   3 193.061 11.2235   1
  -1  -2  -3 34.8377 2.61593   3
  -1  -2  -3 31.4882 2.48406   1
  -1  -2  -3 34.4485 2.55127   5
  -1  -2  -3 35.3823 2.68420   2
   1   2   3 32.3977 2.37501   1
   1   2   3 27.7063 2.43967   1
  -2  -2  -3 0.78127 0.42598   6
  -2  -2  -3 0.73591 0.61463   5
  -2  -2  -3 1.77043 0.68800   2
  -2  -2  -3 0.69775 0.43028   3
  -3  -2  -3 426.589 24.3259   6
  -3  -2  -3 438.976 24.4991   5
  -3  -2  -3 427.892 23.6385   2
  -3  -2  -3 381.959 23.3853   9
  -3  -2  -3 405.204 24.4543  12
  -3  -2  -3 422.440 23.6397  10
  -3  -2  -3 430.778 24.8917  14
  -3  -2  -3 443.005 23.7873   3
  -3  -2  -3 427.239 24.1727  15
  -3  -2  -3 428.853 24.2677  13
  -4  -2  -3 856.582 48.9640  12
  -4  -2  -3 887.801 49.3654  14
  -4  -2  -3 852.389 47.6007  10
  -4  -2  -3 889.525 48.7205  13
  -4  -2  -3 902.123 48.6844  15
  -4  -2  -3 811.392 48.8574   5
  -5  -2  -3 92.1830 6.54341  13
  -5  -2  -3 96.7899 7.11446  14
  -5  -2  -3 93.3623 6.57097  15
  -6  -2  -3 177.780 10.2374  13
  -6  -2  -3 169.203 10.5409  14
  -6  -2  -3 150.689 10.0763  15
  -7   3   3 36.5337 3.28597  11
  -7   3   3 34.7172 2.92760  17
  -7   3   3 30.8302 2.85883  18
  -6   3   3 69.3419 5.43255  11
  -6   3   3 57.9741 4.92814  18
  -6   3   3 62.5989 4.80184  17
  -5   3   3 131.023 8.65931  11
  -5   3   3 123.414 7.98130   7
  -5   3   3 117.423 8.02521   4
  -5   3   3 125.316 8.29497  17
  -5   3   3 125.275 8.53275  18
  -5   3   3 118.931 7.27343  10
  -4   3   3 338.181 18.7661   2
  -4   3   3 326.544 19.5208  11
  -4   3   3 317.176 18.4361   9
  -4   3   3 332.491 18.5819  10
  -4   3   3 324.479 19.5685  18
  -4   3   3 325.810 18.9378   3
  -4   3   3 331.137 19.0421   4
  -4   3   3 323.963 19.2097  17
  -4   3   3 329.292 18.9443   7
  -3   3   3 1.26510 0.51347   7
  -3   3   3 0.42588 0.52938   3
  -3   3   3 0.53390 0.52075   4
  -3   3   3 -0.1293 0.65467   2
  -2   3   3 4.35968 1.08388   2
  -2   3   3 4.28804 1.07352   3
  -2   3   3 4.68558 0.81479   7
   1  -3  -3 199.259 12.2661   3
   1  -3  -3 200.102 11.8605   1
   1  -3  -3 201.145 12.2494   2
   1  -3  -3 200.105 12.0368   1
  -1   3   3 194.731 11.7851   1
  -1   3   3 194.901 12.0008   1
  -1   3   3 204.925 12.2190   2
  -1   3   3 206.937 12.3360   3
   0  -3  -3 3.73762 0.98218   1
   0  -3  -3 2.61519 0.91724   2
   0  -3  -3 2.92939 0.90456   3
   0   3   3 1.71096 0.61575   1
  -1  -3  -3 5.43903 1.16070   3
  -1  -3  -3 6.03286 1.18494   6
  -1  -3  -3 7.58269 1.31970   5
  -1  -3  -3 5.80699 1.26411   2
  -2  -3  -3 133.539 7.77599   3
  -2  -3  -3 128.398 7.78047   6
  -2  -3  -3 111.885 7.34203   9
  -2  -3  -3 115.291 6.83520   8
  -2  -3  -3 116.645 7.49285  15
  -2  -3  -3 116.481 7.33837  10
  -2  -3  -3 119.243 7.71046   2
  -2  -3  -3 104.150 7.94173  14
  -2  -3  -3 124.954 7.81681   5
  -3  -3  -3 8.57419 1.69527   6
  -3  -3  -3 9.53161 1.36966   2
  -3  -3  -3 9.64123 1.78577  13
  -3  -3  -3 6.52711 1.20605   3
  -3  -3  -3 8.77371 1.24413  10
  -3  -3  -3 7.94250 1.11202   9
  -3  -3  -3 7.22649 1.69554  14
  -3  -3  -3 9.15816 1.73165  15
  -4  -3  -3 77.6419 4.80192  10
  -4  -3  -3 85.9592 5.85897  15
  -4  -3  -3 72.4939 5.51195  13
  -4  -3  -3 71.7413 5.96547  14
  -5  -3  -3 9.85162 1.67646  13
  -5  -3  -3 10.4781 1.96124  14
  -5  -3  -3 8.67217 1.72636  15
  -6  -3  -3 11.9751 1.62679  14
  -7   4   3 12.6497 1.86890  11
  -6   4   3 62.3093 4.65268  17
  -6   4   3 60.1325 3.50318  10
  -6   4   3 49.2651 4.45029  18
  -6   4   3 61.7620 4.96057  11
  -5   4   3 4.03863 1.32834  17
  -5   4   3 2.61448 1.42741  11
  -5   4   3 3.82285 0.81778  10
  -5   4   3 4.21863 1.48142   4
  -5   4   3 3.33509 1.31934  18
  -4   4   3 0.85881 1.09671  18
  -4   4   3 1.78395 0.77530   3
  -4   4   3 2.04144 0.78194  10
  -4   4   3 1.48749 0.99990   4
  -4   4   3 2.65879 1.31901  11
  -4   4   3 1.86847 0.77771   9
  -4   4   3 1.59640 1.08186  17
  -4   4   3 1.10617 1.02023   2
  -3   4   3 161.780 10.4147   9
  -3   4   3 168.355 9.96423   8
  -3   4   3 160.141 10.2823  10
  -3   4   3 172.182 10.5656   4
  -3   4   3 187.648 11.0683   2
  -3   4   3 176.913 10.9186   3
  -2   4   3 8.57068 1.72980   3
  -2   4   3 9.50607 1.51136   4
  -2   4   3 11.0485 1.88676   2
   0  -4  -3 255.446 16.2659   2
   0  -4  -3 266.842 16.3844   3
   0  -4  -3 274.752 15.7206   6
  -1  -4  -3 13.8968 2.15480   9
  -1  -4  -3 14.9482 1.60546   8
  -1  -4  -3 17.7196 2.00525   6
  -1  -4  -3 12.5289 1.91626  10
  -1  -4  -3 12.8399 1.86220   3
  -1  -4  -3 17.9112 2.59695   2
  -2  -4  -3 105.661 7.07649   2
  -2  -4  -3 101.808 6.56469   9
  -2  -4  -3 87.7540 7.02765  14
  -2  -4  -3 98.6180 6.85604   3
  -2  -4  -3 109.287 5.98142   8
  -2  -4  -3 100.846 6.57644  10
  -2  -4  -3 86.4925 6.63827  16
  -2  -4  -3 108.941 7.18000   6
  -2  -4  -3 100.982 6.71343  13
  -2  -4  -3 105.507 6.80430  15
  -3  -4  -3 0.19805 0.60665  10
  -3  -4  -3 0.39714 0.78528  14
  -3  -4  -3 0.07001 1.18812  13
  -3  -4  -3 0.30203 0.62564   9
  -3  -4  -3 0.28054 1.18388   6
  -3  -4  -3 -0.2171 0.87602  15
  -4  -4  -3 0.01724 0.43272  10
  -4  -4  -3 0.44641 1.13020  15
  -4  -4  -3 -0.1492 1.10685  14
  -5  -4  -3 114.344 7.54905  14
  -5  -4  -3 121.137 7.53259  15
  -7   5   3 18.2646 1.81479  18
  -6   5   3 10.4610 1.03138  10
  -6   5   3 11.1798 2.03630  11
  -5   5   3 120.874 8.72122  18
  -5   5   3 132.439 8.13501  10
  -5   5   3 140.202 9.28598  11
  -5   5   3 141.066 7.81586   9
  -4   5   3 117.592 7.46983   9
  -4   5   3 114.147 8.41059  12
  -4   5   3 116.149 7.98413   4
  -4   5   3 111.937 7.48824  10
  -4   5   3 126.073 8.44705  11
  -3   5   3 61.5992 5.52092   3
  -3   5   3 72.5945 5.31163   9
  -3   5   3 70.2621 5.15568  10
  -3   5   3 69.7331 5.73746   2
  -3   5   3 74.4221 4.74638   8
  -3   5   3 77.7086 5.42181   4
  -2   5   3 11.6384 1.87023   4
  -2   5   3 9.89385 1.64334   8
   1  -5  -3 8.95477 1.53602   6
  -1   5   3 7.53345 1.45838   4
   0  -5  -3 3.26087 1.05916   6
   0  -5  -3 2.10436 1.02062   8
  -1  -5  -3 10.1620 1.65546  15
  -1  -5  -3 10.8647 1.90673   9
  -1  -5  -3 5.88447 1.98676   2
  -1  -5  -3 7.61190 1.75401   3
  -1  -5  -3 10.6690 1.33825   8
  -1  -5  -3 8.21344 1.75182  10
  -1  -5  -3 10.2264 1.86143   6
  -2  -5  -3 24.6887 2.54571  15
  -2  -5  -3 22.9070 2.39208   9
  -2  -5  -3 23.6858 2.44735  10
  -2  -5  -3 20.0823 2.57809  16
  -3  -5  -3 27.9118 2.31537  10
  -3  -5  -3 22.5914 1.80090   9
  -3  -5  -3 26.6861 2.69038  15
  -4  -5  -3 4.01620 1.10432  15
  -6   6   3 10.4643 1.01525  10
  -6   6   3 15.6622 2.11489  11
  -5   6   3 14.5758 2.33866  11
  -5   6   3 15.8626 1.43288   9
  -5   6   3 16.1023 1.58170  10
  -4   6   3 11.8365 1.57319   9
  -4   6   3 12.2711 1.72191  10
  -4   6   3 12.6206 2.10988  11
  -4   6   3 11.6162 2.18434  12
  -3   6   3 12.2355 1.46211   8
  -3   6   3 8.48105 1.75856  11
  -3   6   3 12.1085 2.13518   9
  -2   6   3 55.7801 4.28774   8
  -2   6   3 55.1558 4.61188   4
   1  -6  -3 156.243 9.61959   8
   1  -6  -3 144.411 9.75030   6
   0  -6  -3 4.06573 1.41126   9
   0  -6  -3 5.14710 1.12638   8
   0  -6  -3 2.76282 1.11132  15
  -1  -6  -3 164.613 10.0429   8
  -1  -6  -3 176.821 10.7889   9
  -1  -6  -3 173.729 10.6152  15
  -2  -6  -3 131.359 8.42111  10
  -2  -6  -3 139.733 8.68319  15
  -2  -6  -3 134.621 8.29023   9
  -3  -6  -3 8.70453 1.50995  15
  -3  -6  -3 9.61743 1.23050  10
  -5   7   3 -0.1837 1.10209  11
  -5   7   3 0.53262 0.45187  10
  -4   7   3 5.37513 1.29202  10
  -4   7   3 4.60731 1.50995  11
  -3   7   3 28.0668 2.23338   8
  -3   7   3 26.4225 3.02342   9
  -3   7   3 26.8982 2.90165  11
  -2   7   3 7.41304 1.43567   8
   1  -7  -3 4.57942 1.34663   8
  -1   7   3 2.41606 1.21160   8
   0  -7  -3 2.39678 1.15116   9
   0  -7  -3 2.06691 1.07624  15
   0  -7  -3 3.05512 0.89969   8
  -1  -7  -3 10.0959 1.50478   9
  -1  -7  -3 7.20507 1.30107  15
  -2  -7  -3 26.1077 2.13296  15
  -4   8   3 0.74876 0.65759   9
  -3   8   3 69.6019 4.80480  12
   2  -8  -3 58.0325 4.03019   8
  -2   8   3 61.2767 3.87044   8
   1  -8  -3 12.7050 1.17536   8
  -1   8   3 13.4771 1.66025   8
   0  -8  -3 3.23645 1.15247   9
  -1  -8   4 42.0266 3.24771  16
   0  -8   4 14.8345 1.75859  16
  -1   8  -4 98.2957 6.12438   8
  -2   8  -4 17.4894 1.53700   8
   2  -8   4 17.9179 1.75315   8
  -3   8  -4 37.0260 3.27754  12
  -3   8  -4 38.2995 2.91514   9
  -4   8  -4 22.6725 1.81355   9
  -4   8  -4 20.8856 2.56039  12
  -4   8  -4 20.3884 1.75238  10
  -3  -7   4 0.21754 0.80004  16
  -2  -7   4 95.1522 6.12406  10
  -2  -7   4 105.961 6.95515  16
  -1  -7   4 22.9513 2.45189  16
  -1  -7   4 20.0631 2.08952   9
   0  -7   4 26.8664 2.22516   8
   0  -7   4 25.2039 3.03894   9
  -1   7  -4 0.78631 0.92416   8
   1  -7   4 1.85889 0.81660   8
  -2   7  -4 0.56535 0.69656   8
  -3   7  -4 24.4709 2.00143   8
  -3   7  -4 29.5753 2.77281   9
  -4   7  -4 43.6453 3.21701  10
  -4   7  -4 46.5620 3.32432   9
  -4   7  -4 44.2927 4.03022  12
  -5   7  -4 72.9948 4.93719  10
  -5   7  -4 93.2476 6.15295  12
  -3  -6   4 96.9126 6.46816  16
  -3  -6   4 73.6033 5.09278  10
  -2  -6   4 29.8708 2.51179   9
  -2  -6   4 31.2115 3.45795  16
  -1  -6   4 7.04017 1.13814   8
  -1  -6   4 5.26501 1.32882   9
   0  -6   4 163.227 9.88719   8
  -1   6  -4 76.1524 5.44549   8
  -2   6  -4 159.430 9.66714   8
  -3   6  -4 9.09943 1.19063   8
  -3   6  -4 4.77970 1.09544  10
  -3   6  -4 6.58743 1.32843   9
  -4   6  -4 18.0958 1.88042  10
  -4   6  -4 18.3953 2.70371  12
  -4   6  -4 19.0289 1.93763   9
  -5   6  -4 22.0534 1.81309  10
  -5   6  -4 18.0880 2.10563  11
  -5   6  -4 26.0283 3.39877  12
  -6   6  -4 23.7996 2.17739  11
  -6   6  -4 32.9296 3.27679  12
  -6   6  -4 24.8371 1.73377  10
  -5  -5   4 26.5740 2.77999  16
  -5  -5   4 21.9263 1.75596  15
  -4  -5   4 19.9231 2.02675  15
  -4  -5   4 24.3370 3.29380  16
  -4  -5   4 21.7841 1.70792  10
  -3  -5   4 2.89469 1.75004  16
  -3  -5   4 3.27113 0.77458   9
  -3  -5   4 2.12578 0.96198  15
  -3  -5   4 3.92227 0.96934  10
  -2  -5   4 2.72481 1.14814   2
  -2  -5   4 2.57281 1.10712  16
  -2  -5   4 2.38358 0.87644   9
  -2  -5   4 1.80296 0.76339  10
  -2  -5   4 2.22844 0.63743   8
  -2  -5   4 2.97851 1.11605   6
  -1  -5   4 -0.2939 0.99659   3
  -1  -5   4 0.34625 0.52117   8
  -1  -5   4 0.41040 0.73723   6
  -1  -5   4 0.39045 0.87240   9
  -1  -5   4 0.47122 0.99083   2
   0  -5   4 16.6644 1.88897   8
  -2   5  -4 1.07498 0.69252   4
  -2   5  -4 0.93432 1.18206   9
  -2   5  -4 1.11721 1.13636   3
  -2   5  -4 1.02326 0.66896   8
  -2   5  -4 3.23006 1.23938   2
  -3   5  -4 220.433 13.4112   9
  -3   5  -4 236.997 13.0993   8
  -3   5  -4 224.236 13.8551   2
  -3   5  -4 232.950 13.3660  10
  -3   5  -4 233.649 13.5721   4
  -3   5  -4 216.499 14.7917   3
  -4   5  -4 65.8375 4.77838   4
  -4   5  -4 71.4099 5.75422  12
  -4   5  -4 67.1097 4.39688  10
  -4   5  -4 64.4983 4.99335   2
  -4   5  -4 61.4824 5.00226  11
  -4   5  -4 64.8312 4.40089   9
  -5   5  -4 3.91294 1.54451  12
  -5   5  -4 2.58323 0.66103  10
  -5   5  -4 2.15145 1.12164  11
  -5   5  -4 2.62921 1.00910  18
  -6   5  -4 0.39052 0.31392  10
  -6   5  -4 0.80870 0.91507  11
  -6   5  -4 0.63193 1.18095  12
  -7   5  -4 46.6052 3.58048  12
  -6  -4   4 21.8032 1.66166  15
  -5  -4   4 5.00247 0.95052  15
  -5  -4   4 3.89047 1.48173  16
  -4  -4   4 47.7708 3.85253  14
  -4  -4   4 53.2660 4.78834  16
  -4  -4   4 49.0106 3.24823  10
  -4  -4   4 45.5288 3.56111  15
  -3  -4   4 77.6472 5.15416  15
  -3  -4   4 70.8905 5.09954   2
  -3  -4   4 73.0125 5.25170  14
  -3  -4   4 84.5399 6.21519  16
  -3  -4   4 75.9572 5.35565   6
  -3  -4   4 67.8440 5.22820   3
  -3  -4   4 75.1000 4.80171   9
  -2  -4   4 22.2447 2.58787   3
  -2  -4   4 22.2517 2.22404   2
  -2  -4   4 19.1742 1.60649   8
  -2  -4   4 18.6915 1.99520   6
  -2  -4   4 18.8194 1.82994  10
  -2  -4   4 21.9533 2.00625   9
  -2  -4   4 20.4658 2.24237  16
  -2  -4   4 16.0681 1.97308  15
  -1  -4   4 0.92603 0.43644   6
  -1  -4   4 1.17009 0.88553   3
  -1  -4   4 0.43314 0.58920   2
  -1  -4   4 0.13730 0.46579   8
   0  -4   4 58.2844 5.23553   3
   0  -4   4 67.7436 4.21990   6
   0  -4   4 62.7317 4.72852   2
  -1   4  -4 111.958 8.41013   3
  -1   4  -4 119.027 6.97852   4
  -2   4  -4 1645.38 89.6205   4
  -2   4  -4 1621.87 90.0512   2
  -2   4  -4 1625.56 91.1337   3
  -3   4  -4 0.16294 0.62266   9
  -3   4  -4 0.13256 0.75199  18
  -3   4  -4 0.61598 1.01873  12
  -3   4  -4 0.39624 0.59457   4
  -3   4  -4 0.36037 0.72210   3
  -3   4  -4 0.32048 0.60320   2
  -3   4  -4 0.92084 0.90208   5
  -3   4  -4 -0.0908 0.40923   8
  -3   4  -4 0.19945 0.66155  11
  -3   4  -4 0.35232 0.49818  10
  -4   4  -4 7.60208 1.51355   3
  -4   4  -4 7.85018 1.40965   2
  -4   4  -4 6.97797 1.53262  11
  -4   4  -4 8.05790 1.17248   9
  -4   4  -4 9.22459 1.46744  18
  -4   4  -4 10.4320 1.54233   4
  -4   4  -4 7.94797 1.06451  10
  -4   4  -4 8.38167 2.03090  12
  -5   4  -4 48.0779 3.15572  10
  -5   4  -4 47.4956 3.90501  11
  -5   4  -4 52.8669 4.74044  12
  -5   4  -4 39.0112 3.57183   4
  -5   4  -4 48.6987 3.84260  18
  -6   4  -4 6.99886 1.37916  11
  -6   4  -4 7.39980 1.22731  18
  -6   4  -4 7.99372 1.89224  12
  -7   4  -4 31.1603 2.75743  11
  -7   4  -4 38.1013 3.32382  12
  -6  -3   4 3.10655 1.16510  16
  -6  -3   4 2.60889 0.77546  15
  -5  -3   4 2.49938 0.90364  14
  -5  -3   4 1.15814 1.22211  16
  -5  -3   4 2.30388 0.81842  15
  -4  -3   4 10.7599 1.15694  10
  -4  -3   4 13.6859 2.05711  14
  -4  -3   4 11.6550 1.68810  15
  -4  -3   4 11.8976 1.80950   6
  -4  -3   4 12.7326 2.51319  16
  -3  -3   4 81.0341 5.62179   3
  -3  -3   4 68.5669 5.73064  17
  -3  -3   4 87.1313 5.46212   2
  -3  -3   4 85.3329 5.15104  10
  -3  -3   4 85.6529 5.82369  14
  -3  -3   4 81.8368 5.12922   9
  -3  -3   4 84.9799 6.11689  16
  -3  -3   4 83.0187 5.47573  15
  -3  -3   4 87.5765 5.69184   6
  -2  -3   4 41.9634 3.17395   7
  -2  -3   4 49.1533 3.90751   3
  -2  -3   4 44.3243 3.35241   2
  -2  -3   4 44.1220 3.33160   6
  -1  -3   4 58.0609 3.99229   2
  -1  -3   4 58.3328 3.80781   6
  -1  -3   4 51.4930 4.42120   3
   0   3  -4 194.044 12.1702   1
   0   3  -4 193.013 11.4712   4
   0   3  -4 197.130 12.8749   3
   0  -3   4 202.782 12.0261   1
   0  -3   4 212.608 12.8882   3
   0  -3   4 225.006 12.3113   2
   0  -3   4 216.873 11.7491   6
   0  -3   4 200.347 12.1901   1
  -1   3  -4 0.65966 0.32290   4
  -1   3  -4 0.17899 0.60418   3
  -1   3  -4 0.32248 0.46390   1
  -1   3  -4 0.27807 0.47510   1
  -1   3  -4 0.51901 0.50414   2
   1  -3   4 0.23478 0.39091   1
   1  -3   4 0.18999 0.49220   2
   1  -3   4 0.43706 0.72800   3
   1  -3   4 -0.0051 0.47126   1
  -2   3  -4 39.4423 3.04665   2
  -2   3  -4 40.9468 3.61110   3
  -2   3  -4 41.0850 2.87075   4
  -3   3  -4 531.701 29.3027   3
  -3   3  -4 516.054 28.5667   4
  -3   3  -4 484.999 28.8795   5
  -3   3  -4 502.944 28.5379   2
  -4   3  -4 11.1773 2.03706  12
  -4   3  -4 12.8057 1.88256  11
  -4   3  -4 13.6335 1.21431  10
  -4   3  -4 12.6938 1.45341   2
  -4   3  -4 14.0364 1.48799   3
  -4   3  -4 13.3115 1.69537  18
  -4   3  -4 14.4915 2.05320   5
  -4   3  -4 15.0618 1.62102   4
  -4   3  -4 10.9283 1.24758   9
  -4   3  -4 9.38268 1.78474  13
  -5   3  -4 159.607 10.3193  11
  -5   3  -4 152.947 9.92184   4
  -5   3  -4 176.459 10.2468  18
  -5   3  -4 155.834 9.30693  10
  -5   3  -4 151.581 10.2323  13
  -5   3  -4 180.176 11.2578  12
  -6   3  -4 0.33326 1.06596  12
  -6   3  -4 -0.1857 0.86760  11
  -6   3  -4 -0.2480 1.13726  13
  -6   3  -4 0.29785 0.52255  18
  -7   3  -4 2.18196 0.89159  11
  -7   3  -4 0.91195 1.04151  12
  -7  -2   4 79.6818 4.48202  15
  -7  -2   4 62.3777 4.59692  16
  -6  -2   4 5.20036 1.20160  14
  -6  -2   4 2.40597 0.71994  15
  -6  -2   4 3.82024 1.29485  16
  -5  -2   4 406.576 22.2721  15
  -5  -2   4 361.855 22.4468   6
  -5  -2   4 402.213 23.2981  16
  -5  -2   4 372.391 22.6912  17
  -5  -2   4 397.277 22.6578  14
  -4  -2   4 80.5549 6.27295  17
  -4  -2   4 90.7175 5.82777  15
  -4  -2   4 89.2571 6.58902  16
  -4  -2   4 87.8314 5.26748  10
  -4  -2   4 89.9798 6.25253  14
  -4  -2   4 86.1632 5.99329   6
  -4  -2   4 92.2739 5.89903  13
  -3  -2   4 62.6082 4.35055   7
  -3  -2   4 64.9709 4.36914   2
  -3  -2   4 68.4319 4.50451   3
  -3  -2   4 68.1415 5.30166  16
  -3  -2   4 68.6698 4.59431   6
  -2  -2   4 703.576 38.5725   6
  -2  -2   4 689.193 38.4752   7
  -2  -2   4 686.578 38.9601   3
  -2  -2   4 696.666 38.4872   2
   1   2  -4 8.78844 1.06614   1
   1   2  -4 8.30200 0.95600   1
  -1  -2   4 8.44200 0.93280   1
  -1  -2   4 8.91942 0.93289   6
  -1  -2   4 8.92711 1.04847   1
  -1  -2   4 9.51090 1.35694   3
  -1  -2   4 8.90498 1.04871   2
   0   2  -4 43.3697 3.13052   2
   0   2  -4 49.9327 3.22963   1
   0   2  -4 46.1177 3.60689   3
   0   2  -4 41.6476 2.70169   4
   0   2  -4 47.5604 3.07963   1
   0  -2   4 47.7313 3.09891   1
   0  -2   4 46.1013 3.58514   3
   0  -2   4 45.5233 2.82984   6
   0  -2   4 46.4160 3.17615   2
   0  -2   4 48.4521 3.20649   1
  -1   2  -4 13.3535 1.19167   1
  -1   2  -4 12.3073 1.04259   4
  -1   2  -4 12.2588 1.26174   1
  -1   2  -4 12.7265 1.57992   3
  -1   2  -4 13.6120 1.28943   2
   1  -2   4 12.8663 1.18551   1
   1  -2   4 11.1309 1.55238   3
   1  -2   4 14.2424 1.36329   1
   1  -2   4 10.7795 1.21554   2
  -2   2  -4 1.02301 0.40169   1
  -2   2  -4 2.32095 0.52884   1
  -2   2  -4 1.17752 0.60046   5
  -2   2  -4 1.46332 0.46397   4
  -2   2  -4 2.38522 0.73301   3
  -2   2  -4 1.39011 0.45332   2
   2  -2   4 0.77133 0.35058   1
   2  -2   4 1.48745 0.50619   1
  -3   2  -4 48.3416 3.45834   3
  -3   2  -4 45.9329 3.22094   4
  -3   2  -4 46.6906 3.54277   5
  -3   2  -4 45.8540 3.20245   2
  -4   2  -4 55.4640 4.38130  13
  -4   2  -4 58.7245 4.76513  12
  -4   2  -4 54.4142 4.17485  11
  -4   2  -4 54.4003 3.97126  17
  -4   2  -4 57.9149 4.23566  18
  -4   2  -4 52.9549 3.42665  10
  -4   2  -4 52.6455 4.16691   5
  -4   2  -4 54.8195 3.86997   4
  -5   2  -4 0.32411 0.28582  10
  -5   2  -4 -0.3118 0.54204  11
  -5   2  -4 0.15747 0.49297  18
  -5   2  -4 0.60189 0.72012   4
  -5   2  -4 -0.1337 1.01863  13
  -5   2  -4 0.81505 1.39589  12
  -6   2  -4 100.413 6.79065  18
  -6   2  -4 114.123 7.70289  12
  -6   2  -4 107.478 7.24645  11
  -6   2  -4 100.813 7.19730  13
  -7   2  -4 23.7594 2.45993  13
  -7   2  -4 31.9542 2.76592  11
  -7   2  -4 37.9548 3.30049  12
  -7  -1   4 -0.1396 0.89094  16
  -7  -1   4 0.10947 0.47486  15
  -6  -1   4 5.51060 1.59768  16
  -6  -1   4 4.95264 1.24844  17
  -6  -1   4 4.58666 1.04895  15
  -6  -1   4 6.31657 1.32696  14
  -5  -1   4 9.79361 1.97502  16
  -5  -1   4 14.2158 2.01455  14
  -5  -1   4 11.9459 1.72313  13
  -5  -1   4 9.50988 1.91221  17
  -5  -1   4 9.53209 1.47893  15
  -5  -1   4 9.68750 1.59587   6
  -4  -1   4 99.5699 7.12240  16
  -4  -1   4 95.7920 6.46458  13
  -4  -1   4 107.092 6.67056   6
  -4  -1   4 96.6408 6.46018   7
  -4  -1   4 102.627 6.05725  10
  -4  -1   4 104.895 6.53103  15
  -4  -1   4 110.245 6.98225  14
  -4  -1   4 104.208 7.12083  17
  -3  -1   4 0.11112 0.31537   6
  -3  -1   4 0.03113 0.37792   7
  -3  -1   4 0.03457 0.25063   2
  -3  -1   4 1.41093 0.42163   2
  -3  -1   4 0.92962 0.34755   3
  -3  -1   4 0.30520 0.29041   3
   2   1  -4 48.5812 3.17002   1
   2   1  -4 48.1102 3.15508   1
  -2  -1   4 49.0980 3.21589   6
  -2  -1   4 52.9745 3.43304   3
  -2  -1   4 40.1704 3.11978   2
  -2  -1   4 54.6291 3.33744   2
  -2  -1   4 45.8696 3.27185   3
  -2  -1   4 46.5949 3.14419   1
  -2  -1   4 50.0543 3.18079   7
  -2  -1   4 46.4177 3.09740   1
   1   1  -4 36.6122 2.97411   2
   1   1  -4 49.1003 3.34466   3
   1   1  -4 50.2491 3.03567   1
   1   1  -4 49.6692 3.02015   1
  -1  -1   4 45.3102 2.94740   1
  -1  -1   4 39.6117 3.04544   3
  -1  -1   4 52.7948 3.31542   3
  -1  -1   4 44.4463 2.87605   6
  -1  -1   4 44.5174 3.03290   2
  -1  -1   4 47.2374 2.97425   1
   0   1  -4 1993.07 107.819   3
   0   1  -4 1973.93 107.468   1
   0   1  -4 2114.18 107.542   1
   0   1  -4 1803.69 106.775   4
   0   1  -4 1963.66 107.217   2
   0  -1   4 1952.43 107.766   1
   0  -1   4 1973.76 108.612   3
   0  -1   4 1994.19 107.747   1
   0  -1   4 1885.97 106.974   6
   0  -1   4 1897.32 107.686   2
  -1   1  -4 122.093 6.91087   4
  -1   1  -4 126.610 7.41303   3
  -1   1  -4 121.545 7.06109   1
  -1   1  -4 127.591 7.16326   2
  -1   1  -4 108.677 7.19651   3
  -1   1  -4 120.794 7.03058   1
   1  -1   4 109.963 7.15798   2
   1  -1   4 127.595 7.08560   1
  -2   1  -4 347.334 20.4989   3
  -2   1  -4 391.820 20.4435   2
  -2   1  -4 380.254 20.2217   4
  -2   1  -4 376.309 20.5265   3
  -2   1  -4 346.281 20.2636   1
  -2   1  -4 366.231 20.2218   1
  -2   1  -4 361.247 20.5231   5
  -2   1  -4 320.613 20.2318   2
   2  -1   4 374.422 20.2484   1
   2  -1   4 356.203 20.2964   1
  -3   1  -4 104.790 6.04617   4
  -3   1  -4 91.8559 5.88587   3
  -3   1  -4 107.406 6.44168   5
  -3   1  -4 98.3754 5.90263   3
  -3   1  -4 94.0158 5.74420   2
  -3   1  -4 90.7705 5.75225   1
  -3   1  -4 102.155 5.78465   2
  -4   1  -4 308.617 17.6689   5
  -4   1  -4 266.358 17.7314  14
  -4   1  -4 308.886 17.6202  11
  -4   1  -4 308.115 17.2012   4
  -4   1  -4 321.970 17.7891  13
  -4   1  -4 306.868 17.4377  18
  -4   1  -4 272.729 17.1847  17
  -4   1  -4 317.526 17.9916  12
  -4   1  -4 287.997 16.6237  10
  -5   1  -4 141.502 8.66790  18
  -5   1  -4 125.857 9.01957  14
  -5   1  -4 148.947 9.17269  13
  -5   1  -4 151.801 9.35565  12
  -5   1  -4 121.918 8.89526   5
  -5   1  -4 143.173 8.98098  11
  -5   1  -4 128.524 8.41347  17
  -6   1  -4 16.9596 2.26037  13
  -6   1  -4 22.4220 2.61354  11
  -6   1  -4 16.2815 2.19010  14
  -6   1  -4 20.0042 2.77115  12
  -7   1  -4 2.29600 1.20032  13
  -7   1  -4 2.69567 1.06639  12
  -7   0   4 3.57476 0.97246  16
  -7   0   4 1.33469 0.70232  17
  -7   0   4 1.54268 0.64926  15
  -6   0   4 6.54164 1.18134  15
  -6   0   4 5.49583 1.50058  16
  -6   0   4 7.41291 1.36528  14
  -6   0   4 7.29267 1.43964  18
  -6   0   4 7.60921 1.62820  17
  -5   0   4 136.713 9.21930  18
  -5   0   4 140.737 8.90368  14
  -5   0   4 129.618 8.73581   7
  -5   0   4 141.129 8.65191  15
  -5   0   4 143.072 9.34280  16
  -5   0   4 154.681 9.53314  17
  -4   0   4 0.93077 0.73824  14
  -4   0   4 0.86957 0.82068  16
  -4   0   4 1.15423 0.68026  15
  -4   0   4 0.81684 0.35659  10
  -4   0   4 0.92819 0.42160   6
  -4   0   4 1.31443 0.82974  17
  -4   0   4 1.31883 0.56824   7
   3   0  -4 247.949 14.8716   1
  -3   0   4 299.371 14.9989   2
  -3   0   4 289.642 15.3742   6
  -3   0   4 239.584 14.8613   1
  -3   0   4 270.766 15.0773   3
  -3   0   4 283.754 15.1018   3
  -3   0   4 258.736 14.9922   4
  -3   0   4 246.261 14.9104   2
  -3   0   4 280.863 15.3721   7
   2   0  -4 77.0409 4.78973   1
   2   0  -4 79.2108 4.80824   1
  -2   0   4 84.2261 5.03295   3
  -2   0   4 76.0975 5.00409   3
  -2   0   4 77.0802 4.87823   2
  -2   0   4 73.8808 4.62318   4
  -2   0   4 81.4320 4.79826   1
  -2   0   4 80.5341 4.94020   2
  -2   0   4 76.2871 4.82576   1
  -2   0   4 88.0053 4.92151   6
  -2   0   4 85.5526 4.91298   7
   1   0  -4 128.862 7.91125   2
   1   0  -4 122.715 7.94682   3
   1   0  -4 142.362 7.80525   1
   1   0  -4 130.045 7.77604   1
  -1   0   4 135.757 7.77033   1
  -1   0   4 140.125 7.81191   1
  -1   0   4 141.612 7.93795   2
  -1   0   4 133.747 7.96958   3
  -1   0   4 125.279 7.93719   3
  -1   0   4 129.643 7.62620   7
   0   0  -4 394.846 21.7665   1
   0   0  -4 392.199 21.9068   2
   0   0  -4 396.716 21.8072   1
   0   0  -4 396.637 21.9747   3
   0   0   4 383.011 21.7436   1
   0   0   4 371.819 21.8850   2
   0   0   4 384.885 21.9789   3
   0   0   4 398.628 21.7925   1
  -1   0  -4 364.183 23.5792   2
  -1   0  -4 431.545 23.6169   2
  -1   0  -4 419.106 23.5221   5
  -1   0  -4 417.639 23.4720   1
  -1   0  -4 483.663 23.7877   3
  -1   0  -4 404.661 23.4723   1
   1   0   4 451.578 23.5062   1
   1   0   4 396.260 23.6992   3
   1   0   4 424.214 23.5013   1
  -2   0  -4 6.44608 0.88079   3
  -2   0  -4 7.83887 0.88116   2
  -2   0  -4 5.79108 0.79166   1
  -2   0  -4 6.70863 1.06436   5
  -2   0  -4 7.59723 0.79904   1
  -2   0  -4 7.34594 0.95249   3
  -2   0  -4 6.35461 0.80018   6
  -2   0  -4 6.68348 0.85534   4
  -2   0  -4 4.37135 0.76267   2
   2   0   4 6.72069 0.76465   1
   2   0   4 4.12678 0.65868   1
  -3   0  -4 45.1526 2.96593   2
  -3   0  -4 54.4514 3.03957   2
  -3   0  -4 48.9949 3.11934   3
  -3   0  -4 44.2048 3.28042   6
  -3   0  -4 51.3146 3.10268   3
  -3   0  -4 54.7345 3.84032   5
  -4   0  -4 16.8317 2.29054  14
  -4   0  -4 18.8837 2.15746  11
  -4   0  -4 18.9134 2.49888  12
  -4   0  -4 17.6833 2.03729   5
  -4   0  -4 14.3410 1.74449  18
  -4   0  -4 16.6369 1.26284  10
  -4   0  -4 16.8209 2.22428  13
  -5   0  -4 292.506 17.4985  14
  -5   0  -4 287.487 17.2087  12
  -5   0  -4 288.193 17.1063  11
  -5   0  -4 258.016 17.0287   5
  -5   0  -4 298.197 17.1604  13
  -5   0  -4 271.650 16.3903  18
  -6   0  -4 78.8756 5.58586  13
  -6   0  -4 68.1213 5.38674  11
  -6   0  -4 71.0336 5.58856  14
  -6   0  -4 72.7927 5.59635  12
  -7   0  -4 -0.0012 0.70469  13
  -7   0  -4 0.60551 0.79915  14
  -7   1   4 65.4336 4.55540  16
  -7   1   4 65.2548 4.68139  17
  -6   1   4 5.72765 1.33652  16
  -6   1   4 5.16858 1.36133  18
  -6   1   4 3.45000 1.52526  11
  -6   1   4 5.87720 1.41172  17
  -6   1   4 3.25361 0.93970  15
  -5   1   4 119.000 7.85755  14
  -5   1   4 121.593 7.98991   7
  -5   1   4 129.125 8.68364  18
  -5   1   4 119.631 8.31442  11
  -5   1   4 133.720 8.54471  17
  -5   1   4 127.406 8.33240  16
  -5   1   4 129.242 7.79516  15
  -4   1   4 363.693 21.1502  18
  -4   1   4 378.185 20.5316   7
  -4   1   4 342.451 20.1971   4
  -4   1   4 356.587 20.7488  16
  -4   1   4 357.322 19.8404  10
  -4   1   4 345.601 20.2131  15
  -4   1   4 359.404 20.9764  17
  -3   1   4 31.7412 2.65792   2
  -3   1   4 38.9282 2.85946   3
  -3   1   4 34.9328 2.62919   1
  -3   1   4 42.3783 2.75949   4
  -3   1   4 43.6458 2.93280   7
  -3   1   4 47.9422 2.78383   2
  -3   1   4 38.6739 2.80042   3
   2  -1  -4 320.751 17.9566   1
   2  -1  -4 320.342 17.8404   1
  -2   1   4 322.060 18.1219   3
  -2   1   4 303.973 17.8068   1
  -2   1   4 337.706 17.9973   2
  -2   1   4 302.154 17.8500   1
  -2   1   4 293.843 18.1262   3
  -2   1   4 337.259 17.8996   7
   1  -1  -4 13.0213 1.29981   3
   1  -1  -4 12.1409 1.15482   1
   1  -1  -4 10.2879 0.82642   5
   1  -1  -4 10.6812 1.20570   2
   1  -1  -4 13.8027 1.20996   1
  -1   1   4 13.2607 1.13821   1
  -1   1   4 13.1809 1.29059   3
  -1   1   4 13.2196 1.06182   7
  -1   1   4 12.1786 1.28388   2
  -1   1   4 12.8484 1.20507   1
   0  -1  -4 0.40783 0.31082   1
   0  -1  -4 0.54027 0.43977   2
   0  -1  -4 0.63443 0.29240   5
   0  -1  -4 0.54111 0.36289   3
   0  -1  -4 0.60040 0.35274   1
   0   1   4 0.05342 0.29903   3
   0   1   4 0.52071 0.18308   7
   0   1   4 0.16507 0.34735   1
   0   1   4 0.34382 0.28839   1
   0   1   4 0.32914 0.36514   2
  -1  -1  -4 295.898 16.4368   3
  -1  -1  -4 289.481 16.3832   2
  -1  -1  -4 306.071 16.3871   5
  -1  -1  -4 275.440 16.2346   1
   1   1   4 266.436 16.2456   1
   1   1   4 289.258 16.2461   1
  -2  -1  -4 276.407 15.2927   6
  -2  -1  -4 275.169 15.5358   5
  -2  -1  -4 266.267 15.3267   3
  -2  -1  -4 265.364 15.2381   2
  -2  -1  -4 249.542 15.3567   1
  -3  -1  -4 20.9702 1.77702   3
  -3  -1  -4 19.0309 1.64663   2
  -3  -1  -4 22.0289 1.75598   3
  -3  -1  -4 24.4282 1.70654   2
  -3  -1  -4 24.1497 2.09229   6
  -3  -1  -4 24.6299 2.40456   5
  -4  -1  -4 147.823 9.37520  12
  -4  -1  -4 143.156 9.68383  14
  -4  -1  -4 138.339 9.21134  11
  -4  -1  -4 140.466 9.13164  13
  -4  -1  -4 135.343 8.84303  15
  -4  -1  -4 139.838 9.30281   5
  -4  -1  -4 135.576 8.02899  10
  -5  -1  -4 54.8945 4.78673  14
  -5  -1  -4 50.8699 4.29893  13
  -5  -1  -4 51.1772 4.53630  12
  -5  -1  -4 42.3081 3.83650  15
  -6  -1  -4 11.4588 1.98567  13
  -6  -1  -4 11.5469 1.81329  12
  -6  -1  -4 13.0077 2.22017  14
  -7  -1  -4 0.77094 0.66250  13
  -7  -1  -4 0.45730 0.71604  14
  -7   2   4 59.9799 5.12532  11
  -7   2   4 75.0047 5.01063  17
  -6   2   4 3.03808 1.11225  18
  -6   2   4 2.15928 1.43060  11
  -6   2   4 1.55122 0.97545  16
  -6   2   4 1.49100 1.06972  17
  -5   2   4 66.4031 4.10188  10
  -5   2   4 69.6193 5.53511  18
  -5   2   4 64.9401 4.82664   7
  -5   2   4 71.1687 5.38528  17
  -5   2   4 68.5122 4.98306  16
  -5   2   4 64.7732 5.28729  11
  -4   2   4 5.99595 1.50628  11
  -4   2   4 6.80025 0.88572   2
  -4   2   4 8.46565 1.43852  16
  -4   2   4 6.82477 1.60458  17
  -4   2   4 5.73376 0.87315   3
  -4   2   4 5.90997 0.81411   9
  -4   2   4 6.87412 1.18125   7
  -4   2   4 6.65497 0.89598  10
  -4   2   4 8.25127 1.28791   4
  -4   2   4 7.94553 1.67664  18
  -3   2   4 34.5391 2.72709   2
  -3   2   4 35.2876 2.82131   3
  -3   2   4 36.0319 2.74911   7
  -3   2   4 36.9326 2.74500   4
   2  -2  -4 503.987 28.2461   1
  -2   2   4 526.821 28.5648   3
  -2   2   4 516.340 28.5079   2
  -2   2   4 516.540 28.1474   7
  -2   2   4 460.664 28.2708   1
   1  -2  -4 43.8921 3.55158   2
   1  -2  -4 50.0859 3.38684   1
   1  -2  -4 45.6379 3.56849   3
   1  -2  -4 51.5197 3.52382   1
  -1   2   4 49.6170 3.15498   7
  -1   2   4 53.7227 3.72006   3
  -1   2   4 53.6449 3.73868   2
  -1   2   4 48.7653 3.36029   1
  -1   2   4 52.1789 3.55909   1
   0  -2  -4 264.367 14.9480   2
   0  -2  -4 253.630 14.4688   5
   0  -2  -4 253.761 14.7436   1
   0  -2  -4 251.992 14.6124   1
   0  -2  -4 261.871 14.9469   3
   0   2   4 236.337 14.9110   2
   0   2   4 262.258 14.8110   1
   0   2   4 264.035 14.6203   1
   0   2   4 246.771 14.9587   3
  -1  -2  -4 386.329 24.6648   1
  -1  -2  -4 449.776 24.7739   5
  -1  -2  -4 453.403 24.9065   3
  -1  -2  -4 463.345 24.9981   2
  -2  -2  -4 254.861 14.6818   3
  -2  -2  -4 233.403 14.6128   2
  -2  -2  -4 259.053 14.7829   6
  -2  -2  -4 255.602 14.9090   5
  -3  -2  -4 139.396 8.24551  10
  -3  -2  -4 147.143 9.02039   6
  -3  -2  -4 140.327 8.91687  13
  -3  -2  -4 139.099 8.83831  15
  -3  -2  -4 128.161 8.04472   9
  -3  -2  -4 140.515 8.35526   3
  -3  -2  -4 137.961 9.06024  12
  -3  -2  -4 136.490 8.30079   2
  -3  -2  -4 144.988 9.18414   5
  -3  -2  -4 136.015 9.38142  14
  -4  -2  -4 9.74331 2.02681   6
  -4  -2  -4 8.87227 1.86522  15
  -4  -2  -4 11.5012 2.34357   5
  -4  -2  -4 11.5958 2.20142  14
  -4  -2  -4 8.11836 1.73326  13
  -4  -2  -4 10.2872 1.96865  12
  -4  -2  -4 8.62833 1.07759  10
  -5  -2  -4 39.9674 3.86354  15
  -5  -2  -4 43.6182 3.92976  13
  -5  -2  -4 48.4186 4.42385  14
  -6  -2  -4 0.42368 0.72255  13
  -6  -2  -4 0.24752 0.68752  15
  -6  -2  -4 0.59287 0.84970  14
  -7   3   4 31.0894 2.85165  17
  -7   3   4 29.9321 2.89300  18
  -7   3   4 27.3465 3.14443  11
  -6   3   4 5.01787 1.46533  17
  -6   3   4 7.11200 1.70395  11
  -6   3   4 6.32930 1.63789  18
  -5   3   4 135.878 9.14681  18
  -5   3   4 133.614 7.85300  10
  -5   3   4 130.859 8.84073  17
  -5   3   4 138.048 9.27458  11
  -5   3   4 127.825 8.49892   7
  -5   3   4 123.538 8.48255   4
  -4   3   4 1.84655 1.10373  18
  -4   3   4 1.72924 1.15864  17
  -4   3   4 2.09002 0.82223   3
  -4   3   4 2.45767 0.82619   2
  -4   3   4 1.29262 0.85448   4
  -4   3   4 1.86622 0.80233   7
  -4   3   4 1.60259 1.16939  11
  -4   3   4 2.53984 0.73257  10
  -4   3   4 2.01938 0.67789   9
  -3   3   4 518.155 29.5504   2
  -3   3   4 500.581 29.0932   7
  -3   3   4 540.430 29.5685   3
  -3   3   4 508.954 29.2712   4
  -2   3   4 103.206 6.34545   7
  -2   3   4 103.664 6.96496   2
  -2   3   4 103.611 6.93847   3
   1  -3  -4 23.7728 2.27743   1
   1  -3  -4 30.9591 2.80636   3
  -1   3   4 26.3734 2.69268   2
  -1   3   4 27.2900 2.53399   1
  -1   3   4 32.2533 2.86270   3
   0  -3  -4 772.022 42.2477   3
   0  -3  -4 769.565 42.2797   2
   0  -3  -4 703.795 41.9913   1
  -1  -3  -4 133.938 8.58319   5
  -1  -3  -4 139.565 8.85208   3
  -1  -3  -4 131.607 8.89821   2
  -1  -3  -4 145.228 8.76395   6
  -2  -3  -4 32.8284 3.00929   5
  -2  -3  -4 25.9600 2.51187   9
  -2  -3  -4 32.0965 2.96079   2
  -2  -3  -4 27.3738 2.44357  10
  -2  -3  -4 23.6236 2.94205  14
  -2  -3  -4 22.3849 2.68808  13
  -2  -3  -4 30.4477 2.66658   3
  -2  -3  -4 27.3161 2.64962  15
  -2  -3  -4 31.1553 2.83426   6
  -3  -3  -4 0.29136 0.48898   9
  -3  -3  -4 -0.0454 0.91422  14
  -3  -3  -4 1.53754 0.85039  15
  -3  -3  -4 0.73150 0.89160   2
  -3  -3  -4 0.64539 1.07510  13
  -3  -3  -4 0.69978 1.36083   5
  -3  -3  -4 0.62574 0.55725   3
  -3  -3  -4 2.76799 1.05388   6
  -3  -3  -4 0.54544 0.60610  10
  -4  -3  -4 0.27668 0.47615  10
  -4  -3  -4 0.88926 1.21064  13
  -4  -3  -4 0.05986 1.03133  14
  -4  -3  -4 0.06463 0.80569  15
  -5  -3  -4 6.08154 1.43809  13
  -5  -3  -4 8.27075 1.63195  15
  -5  -3  -4 7.79280 1.61703  14
  -6  -3  -4 77.7823 4.75122  15
  -6  -3  -4 73.6183 5.17061  14
  -7   4   4 4.99533 1.50616  11
  -6   4   4 71.8641 5.46362  17
  -6   4   4 85.1947 6.18047  11
  -6   4   4 73.9410 4.49157  10
  -6   4   4 75.2345 5.74317  18
  -5   4   4 16.1892 2.24943  18
  -5   4   4 13.1221 2.21344   4
  -5   4   4 18.2844 2.50164  11
  -5   4   4 16.3174 1.63361  10
  -5   4   4 14.7670 1.13901   9
  -5   4   4 16.5274 2.31376  17
  -4   4   4 49.7409 4.02017   2
  -4   4   4 50.8876 3.69268   9
  -4   4   4 47.8231 3.97189  17
  -4   4   4 52.4220 3.76232  10
  -4   4   4 47.9918 3.99495   3
  -4   4   4 48.9473 4.11591   4
  -4   4   4 54.8710 4.75288  11
  -4   4   4 45.9831 4.21626  18
  -3   4   4 43.1601 3.87565   2
  -3   4   4 44.3594 3.11862   8
  -3   4   4 36.7172 3.32893  10
  -3   4   4 48.1736 3.97031   3
  -3   4   4 48.7742 3.74924   4
  -3   4   4 40.6320 3.51135   9
  -2   4   4  99.999 6.32634   4
  -2   4   4 92.7127 6.69845   3
  -2   4   4 88.3248 6.03157   8
  -2   4   4 89.2227 6.77499   2
   0  -4  -4 4.74633 1.32928   3
   0  -4  -4 2.00646 1.10627   8
   0  -4  -4 3.61925 1.44213   2
  -1  -4  -4 72.1431 5.57429   3
  -1  -4  -4 83.0190 5.73181   6
  -1  -4  -4 68.7022 5.40846   9
  -1  -4  -4 69.6761 5.24578  10
  -1  -4  -4 83.0030 6.05588   2
  -1  -4  -4 74.2135 4.94247   8
  -2  -4  -4 19.3539 2.84108   6
  -2  -4  -4 18.7159 1.46970   8
  -2  -4  -4 15.6486 2.08406   9
  -2  -4  -4 13.3345 2.40429  14
  -2  -4  -4 23.7655 3.12599   2
  -2  -4  -4 19.5480 2.54940  15
  -2  -4  -4 16.1160 2.23837   3
  -2  -4  -4 18.4850 2.22983  10
  -3  -4  -4 26.6690 2.14372   9
  -3  -4  -4 18.9785 2.55103  13
  -3  -4  -4 24.2479 2.94029  15
  -3  -4  -4 25.2858 2.24400  10
  -3  -4  -4 22.3681 3.01657  14
  -4  -4  -4 193.111 12.3903  15
  -4  -4  -4 205.373 11.3936  10
  -4  -4  -4 189.214 12.4886  14
  -5  -4  -4 14.3446 1.82908  15
  -5  -4  -4 11.7955 1.81628  14
  -6   5   4 85.0577 5.29286  10
  -6   5   4 95.1553 6.77383  11
  -5   5   4 1.69271 1.10240  11
  -5   5   4 1.20516 1.20455  18
  -5   5   4 0.45359 0.61241  10
  -4   5   4 31.1119 3.07886   4
  -4   5   4 27.3372 2.64845  10
  -4   5   4 32.0984 3.50161  11
  -4   5   4 31.6874 2.86062   9
  -3   5   4 18.6749 2.23616   9
  -3   5   4 18.8727 2.39540   4
  -3   5   4 18.1930 2.42481  10
  -3   5   4 25.7225 3.37547   2
  -3   5   4 11.9307 2.26008   3
  -3   5   4 19.8105 1.91004   8
  -2   5   4 25.1801 2.62184   8
  -2   5   4 29.8725 2.93132   4
   0  -5  -4 8.12443 1.80517   6
   0  -5  -4 8.78848 1.62229   8
  -1  -5  -4 105.447 7.27565   9
  -1  -5  -4 101.741 7.14694  10
  -1  -5  -4 109.173 7.19946  15
  -1  -5  -4 99.9821 8.01139   2
  -1  -5  -4 108.971 7.51556   6
  -2  -5  -4 1.97603 1.03997   9
  -2  -5  -4 2.18953 1.17423  15
  -2  -5  -4 1.34492 0.80570  10
  -3  -5  -4 3.99662 1.26586  15
  -3  -5  -4 4.56471 1.04088  10
  -4  -5  -4 1.30397 0.85319  15
  -6   6   4 39.0808 3.22063  11
  -6   6   4 32.2463 2.27560  10
  -5   6   4 83.3793 5.09484   9
  -5   6   4 81.5141 5.41170  10
  -5   6   4 86.9596 6.40630  11
  -4   6   4 1.51683 0.77192  10
  -4   6   4 1.63522 1.10759  11
  -4   6   4 0.69597 0.87955   9
  -3   6   4 52.1331 4.65690  11
  -3   6   4 47.3658 4.38394   9
  -3   6   4 55.0716 3.78094   8
  -2   6   4 14.2034 2.07140   8
   1  -6  -4 -0.5256 0.79026   8
   0  -6  -4 126.563 8.63791   9
  -1  -6  -4 99.7015 6.53521   8
  -1  -6  -4 113.561 7.44436   9
  -1  -6  -4 118.710 7.40688  15
  -2  -6  -4 22.1826 2.29385  15
  -2  -6  -4 20.9191 2.09952   9
  -2  -6  -4 19.9993 2.21051  10
  -3  -6  -4 42.5661 2.85415  10
  -3  -6  -4 40.5578 3.20849  15
  -5   7   4 9.36271 1.07337  10
  -5   7   4 7.12782 1.34384  11
  -4   7   4 18.3458 2.47865  11
  -4   7   4 17.2894 2.07062  10
  -3   7   4 6.47514 0.98417   8
  -3   7   4 5.27987 1.53704  11
  -3   7   4 6.00074 1.68144   9
  -2   7   4 -0.1484 0.57477   8
  -2   7   4 -1.0365 1.33469  11
   1  -7  -4 41.3467 3.21811   8
   1  -7  -4 33.9746 3.09658  15
  -1   7   4 38.0831 3.26445   8
   0  -7  -4 1.00206 1.01980  15
   0  -7  -4 0.72036 0.64966   8
   0  -7  -4 -0.3092 0.96068   9
  -1  -7  -4 25.7676 2.27148  15
  -2  -7  -4 3.95060 0.91470  10
  -3   8   4 193.409 11.3641   9
   2  -8  -4 0.84393 0.64028   8
  -2   8   4 0.00935 0.55882   8
   1  -8  -4 17.8653 1.38632   8
  -1   8   4 19.8709 1.76960   8
  -1  -8   5 117.468 7.33521  16
   0  -8   5 13.1993 1.73989   9
   0  -8   5 13.3215 1.58514  16
  -1   8  -5 3.96401 0.85408   8
   1  -8   5 4.57306 0.94902   8
  -2   8  -5 73.1694 4.50953   8
   2  -8   5 69.4764 4.65469   8
  -3   8  -5 6.16883 1.40403  12
  -3   8  -5 11.2024 1.42693   9
  -4   8  -5 26.9293 2.03844   9
  -4   8  -5 29.7117 2.16085  10
  -3  -7   5 2.67952 0.98388  16
  -2  -7   5 8.53766 1.22577  10
  -2  -7   5 11.2224 1.80658  16
  -1  -7   5 55.8710 4.17445   9
  -1  -7   5 58.9185 4.40160  16
   0  -7   5 23.9127 2.08195   8
   0  -7   5 21.7858 2.87952   9
  -1   7  -5 2.73839 1.06305   8
   1  -7   5 4.69143 1.10465   8
  -2   7  -5 6.18543 1.13677   8
  -3   7  -5 59.1924 4.12462   8
  -3   7  -5 70.4025 4.83824   9
  -3   7  -5 70.4904 5.25679  12
  -4   7  -5 6.23431 1.15706   9
  -4   7  -5 5.61163 1.53839  12
  -4   7  -5 6.90147 1.16951  10
  -5   7  -5 42.3763 3.59822  12
  -5   7  -5 39.9031 2.75419  10
  -3  -6   5 20.5830 2.76500  16
  -3  -6   5 17.5428 1.69361  10
  -2  -6   5 113.016 7.54671  16
  -2  -6   5 102.729 6.81244  10
  -2  -6   5 107.618 6.79854   9
  -1  -6   5 61.8647 4.69492   9
  -1  -6   5 66.5411 4.29013   8
   0  -6   5 0.09954 0.67661   8
  -1   6  -5 93.1381 6.21378   8
  -2   6  -5 53.0865 3.85650   8
  -3   6  -5 308.275 18.1844  10
  -3   6  -5 305.119 17.8422   8
  -3   6  -5 330.991 18.3967   9
  -4   6  -5 8.26942 1.82569  12
  -4   6  -5 8.07164 1.21381  10
  -4   6  -5 8.16670 1.31160   9
  -5   6  -5 40.7233 2.85455  10
  -5   6  -5 38.1840 4.05277  12
  -6   6  -5 39.5523 3.44144  12
  -6   6  -5 37.5737 2.29879  10
  -5  -5   5 8.93683 0.98019  15
  -5  -5   5 12.3919 1.95098  16
  -4  -5   5 3.87514 0.96204  15
  -4  -5   5 7.95425 1.85553  16
  -4  -5   5 6.93997 0.94516  10
  -3  -5   5 0.24297 0.48554  10
  -3  -5   5 0.14066 0.54530  15
  -3  -5   5 -0.2454 0.49404   9
  -3  -5   5 -0.0111 0.84681  16
  -2  -5   5 21.9768 1.84541   8
  -2  -5   5 19.2608 2.15398   6
  -2  -5   5 24.6915 2.60445  16
  -2  -5   5 24.9634 2.29993   9
  -1  -5   5 141.114 10.3478   3
  -1  -5   5 148.242 8.49892   8
  -1  -5   5 140.127 8.84287   6
  -1  -5   5 134.234 8.85586   9
  -1  -5   5 143.107 9.46711   2
   0  -5   5 59.4029 4.13244   8
  -1   5  -5 6.42612 1.33135   8
  -2   5  -5 32.9836 3.32640   9
  -2   5  -5 37.6180 3.55746   2
  -2   5  -5 31.9344 4.00033   3
  -2   5  -5 42.8898 2.91676   8
  -3   5  -5 135.488 10.5208   3
  -3   5  -5 151.210 9.80896   2
  -3   5  -5 153.149 9.39561   4
  -3   5  -5 156.693 9.23973  10
  -3   5  -5 155.796 9.35610   9
  -3   5  -5 158.097 9.01091   8
  -4   5  -5 45.7189 4.08752  11
  -4   5  -5 47.6981 3.80962   4
  -4   5  -5 53.5772 3.71323   9
  -4   5  -5 57.2611 4.98602  12
  -4   5  -5 54.9693 3.64709  10
  -5   5  -5 153.625 10.0425  11
  -5   5  -5 164.794 9.40957  10
  -5   5  -5 160.668 10.8253  12
  -6   5  -5 1.10612 0.70418  11
  -6   5  -5 0.99663 0.27999  10
  -6   5  -5 1.76039 1.18059  12
  -7   5  -5 33.5225 2.55322  11
  -7   5  -5 33.5740 2.70666  12
  -5  -4   5 48.6979 3.54168  15
  -5  -4   5 58.5153 4.74729  16
  -4  -4   5 12.8524 1.91368  14
  -4  -4   5 10.7042 1.21608  10
  -4  -4   5 14.3679 2.69154  16
  -4  -4   5 10.8401 1.55731  15
  -3  -4   5 223.407 12.6128   9
  -3  -4   5 209.529 13.0935   6
  -3  -4   5 215.224 13.0444   2
  -3  -4   5 195.699 13.6137   3
  -3  -4   5 236.388 13.7640  16
  -3  -4   5 223.474 12.5887  10
  -3  -4   5 210.261 12.9778  14
  -3  -4   5 216.154 12.7918  15
  -2  -4   5 19.0033 1.96819   9
  -2  -4   5 18.1285 1.79752  10
  -2  -4   5 17.5980 2.10082  16
  -2  -4   5 20.4502 2.05722   6
  -2  -4   5 17.1833 1.64397   8
  -2  -4   5 23.8615 2.33273   2
  -2  -4   5 19.3841 2.59179   3
  -1  -4   5 110.499 7.03768   6
  -1  -4   5 118.870 7.52416   2
  -1  -4   5 103.714 6.75539   8
  -1  -4   5 119.203 8.35641   3
   0  -4   5 0.60876 0.86254   3
   0  -4   5 0.18033 0.59182   2
   0  -4   5 0.60005 0.42796   6
  -1   4  -5 24.6973 3.15641   3
  -1   4  -5 28.6192 2.73720   2
  -2   4  -5 1041.50 57.4055   3
  -2   4  -5 1017.89 56.2079   2
  -2   4  -5 1079.12 55.7953   4
  -2   4  -5 900.336 55.5675   8
  -3   4  -5 -0.0676 0.47304  10
  -3   4  -5 0.74195 0.86703   3
  -3   4  -5 0.27343 0.65485   9
  -3   4  -5 0.47499 0.62915   2
  -3   4  -5 0.34256 0.70156  18
  -3   4  -5 0.35727 0.61335   4
  -3   4  -5 0.61097 0.90322   5
  -3   4  -5 -0.1603 0.66922  12
  -3   4  -5 0.38821 0.40990   8
  -4   4  -5 28.0347 2.93958  11
  -4   4  -5 30.3146 2.68026   4
  -4   4  -5 30.6231 2.33292  10
  -4   4  -5 33.2402 3.65288  12
  -4   4  -5 32.1699 2.84088   2
  -4   4  -5 30.5642 2.72665  18
  -4   4  -5 27.6615 3.21026  13
  -4   4  -5 32.2272 2.44089   9
  -4   4  -5 28.4718 2.95590   3
  -5   4  -5 35.8571 3.77928  12
  -5   4  -5 36.6641 3.06685  18
  -5   4  -5 30.2859 3.33038  13
  -5   4  -5 32.7390 3.22750  11
  -5   4  -5 34.7810 2.49743  10
  -6   4  -5 34.9434 3.13083  11
  -6   4  -5 41.1946 3.95589  12
  -7   4  -5 5.51180 1.29877  12
  -7   4  -5 4.87951 1.03735  11
  -6  -3   5 16.5607 2.19760  16
  -6  -3   5 12.1824 1.30744  15
  -5  -3   5 20.4545 2.97605  16
  -5  -3   5 20.0753 2.23504  14
  -5  -3   5 18.8589 1.99580  15
  -4  -3   5 122.796 8.49398   6
  -4  -3   5 142.409 9.32403  16
  -4  -3   5 138.174 8.69275  14
  -4  -3   5 125.710 8.90481  17
  -4  -3   5 134.903 8.34004  15
  -4  -3   5 137.309 7.90795  10
  -3  -3   5 9.78618 1.61806  14
  -3  -3   5 6.07134 1.14807  15
  -3  -3   5 7.51664 1.13114   9
  -3  -3   5 6.11195 1.11528   7
  -3  -3   5 7.08830 1.38675   3
  -3  -3   5 8.22524 1.82762  17
  -3  -3   5 9.91531 1.54874   6
  -3  -3   5 10.5604 2.01541  16
  -3  -3   5 12.1247 1.34245  10
  -3  -3   5 7.72894 1.33523   2
  -2  -3   5 3.20002 0.82164   2
  -2  -3   5 1.46805 0.56988   8
  -2  -3   5 2.17336 0.89893   3
  -2  -3   5 2.02772 0.68529   7
  -2  -3   5 3.15440 0.83298   6
  -1  -3   5 54.6761 4.57509   3
  -1  -3   5 51.9192 3.95897   2
  -1  -3   5 59.7566 3.77763   6
   0   3  -5 38.1005 3.16783   1
   0   3  -5 39.0458 3.79248   3
   0   3  -5 35.5641 3.05864   2
   0  -3   5 42.7962 2.70001   6
   0  -3   5 40.8308 3.16721   2
   0  -3   5 46.5306 3.81090   3
   0  -3   5 37.3639 3.13887   1
   0  -3   5 40.0805 3.04569   1
  -1   3  -5 1058.39 58.7787   3
  -1   3  -5 1018.45 57.7124   1
  -1   3  -5 1045.12 57.3220   4
  -1   3  -5 1085.87 57.9229   2
   1  -3   5 1012.60 57.9971   1
  -2   3  -5 533.826 30.2066   2
  -2   3  -5 537.063 29.9161   4
  -2   3  -5 539.169 31.0370   3
  -3   3  -5 183.724 11.8371   5
  -3   3  -5 212.180 11.5808   2
  -3   3  -5 182.603 11.1577   9
  -3   3  -5 196.716 12.0937   3
  -3   3  -5 215.706 11.4644   4
  -3   3  -5 168.012 11.8722  12
  -4   3  -5 385.715 20.6279  18
  -4   3  -5 357.376 20.1608   2
  -4   3  -5 364.912 19.9238  10
  -4   3  -5 355.126 20.9984   5
  -4   3  -5 338.112 20.6191  11
  -4   3  -5 326.485 19.8060   9
  -4   3  -5 347.626 21.1599  12
  -4   3  -5 357.710 20.4331   3
  -4   3  -5 351.007 20.3303   4
  -4   3  -5 370.128 21.0660  13
  -5   3  -5 4.09692 1.24963  11
  -5   3  -5 3.94344 1.05176  18
  -5   3  -5 3.37077 1.69396  12
  -5   3  -5 3.29871 1.06313   4
  -5   3  -5 3.29481 1.52722  13
  -5   3  -5 3.88903 0.71460  10
  -6   3  -5 11.0237 2.03299  13
  -6   3  -5 13.3432 2.26175  12
  -6   3  -5 12.3603 1.66787  18
  -6   3  -5 11.6951 1.84689  11
  -7   3  -5 0.87347 0.85222  12
  -7   3  -5 1.30357 0.79121  11
  -7  -2   5 59.3255 4.25224  16
  -7  -2   5 67.7445 4.01004  15
  -6  -2   5 57.8208 4.42775  17
  -6  -2   5 61.7460 4.08061  15
  -6  -2   5 60.5670 4.77615  16
  -5  -2   5 28.7664 2.49264  15
  -5  -2   5 28.3791 3.16092  16
  -5  -2   5 28.3606 2.79432  14
  -5  -2   5 28.8927 3.02899  17
  -4  -2   5 49.9070 3.65516  15
  -4  -2   5 43.0160 3.59941   7
  -4  -2   5 49.7888 3.22354  10
  -4  -2   5 49.2430 3.80574   6
  -4  -2   5 50.7330 4.38670  16
  -4  -2   5 53.0693 4.02999  14
  -4  -2   5 43.9793 4.17915  17
  -3  -2   5 27.5365 2.34296   9
  -3  -2   5 22.2798 2.45222  15
  -3  -2   5 34.9176 2.63759   6
  -3  -2   5 29.4405 2.80429  16
  -3  -2   5 32.8393 2.55719   2
  -3  -2   5 33.1641 2.67297   3
  -3  -2   5 32.5668 2.27886  10
  -3  -2   5 33.1180 2.54941   7
  -3  -2   5 31.0312 2.80050  14
  -2  -2   5 30.7057 2.41940   7
  -2  -2   5 31.1767 2.75688   3
  -2  -2   5 29.9729 2.35478   6
  -2  -2   5 30.5225 2.44246   2
   1   2  -5 39.0602 2.97201   1
   1   2  -5 39.5382 2.86032   1
  -1  -2   5 37.8370 2.91389   1
  -1  -2   5 40.7028 2.83811   1
  -1  -2   5 43.4050 3.43886   3
  -1  -2   5 40.0623 2.72928   6
  -1  -2   5 43.0244 2.98036   2
   0   2  -5 97.8071 6.07400   1
   0   2  -5 96.1640 5.86551   1
   0   2  -5 90.5568 5.96194   2
   0   2  -5 93.0793 5.44456   4
   0   2  -5 96.7592 6.53206   3
   0  -2   5 95.9808 5.99279   2
   0  -2   5 94.6904 5.86837   1
   0  -2   5 100.819 6.07311   1
   0  -2   5 95.4669 5.55954   6
   0  -2   5 99.7878 6.55469   3
  -1   2  -5 333.141 18.5414   2
  -1   2  -5 331.517 18.1788   4
  -1   2  -5 327.357 18.4262   1
  -1   2  -5 350.166 19.1924   3
  -1   2  -5 314.188 18.5756   1
   1  -2   5 334.900 18.4619   1
   1  -2   5 292.527 18.5175   2
   1  -2   5 321.635 19.1794   3
   1  -2   5 332.225 18.6441   1
  -2   2  -5 132.223 8.74666   1
  -2   2  -5 151.110 8.71799   4
  -2   2  -5 150.253 9.42257   3
  -2   2  -5 162.204 9.13170   5
  -2   2  -5 153.081 8.95517   2
  -3   2  -5 107.107 6.76453   4
  -3   2  -5 102.892 6.84713   2
  -3   2  -5 101.377 7.22518   5
  -3   2  -5 131.574 7.34285   3
  -4   2  -5 9.87200 1.78414  12
  -4   2  -5 9.78103 1.35146   4
  -4   2  -5 9.80632 1.86037   5
  -4   2  -5 9.58751 1.05483  10
  -4   2  -5 8.29413 1.70851  13
  -4   2  -5 8.07477 1.47338  11
  -4   2  -5 10.0350 1.55747  18
  -5   2  -5 255.237 15.1454  13
  -5   2  -5 247.256 14.4807  18
  -5   2  -5 253.641 15.1517  12
  -5   2  -5 218.464 13.5201  10
  -5   2  -5 248.080 14.7357  11
  -6   2  -5 2.70686 1.20500  13
  -6   2  -5 0.88123 1.36192  12
  -6   2  -5 2.38089 1.21073  11
  -7   2  -5 65.0764 4.55824  11
  -7   2  -5 55.3639 4.33526  13
  -7   2  -5 67.9483 4.64510  12
  -7  -1   5 14.6235 1.87544  16
  -7  -1   5 14.1967 1.45162  15
  -7  -1   5 11.2062 1.46226  17
  -6  -1   5 28.0491 2.84691  16
  -6  -1   5 26.0958 2.82560  17
  -6  -1   5 26.0255 2.26869  15
  -5  -1   5 236.433 14.6937  17
  -5  -1   5 253.124 14.7771  16
  -5  -1   5 210.639 13.9798   6
  -5  -1   5 237.615 14.1928  14
  -5  -1   5 243.148 13.9014  15
  -4  -1   5 16.5694 1.99519  14
  -4  -1   5 15.5484 2.43113  17
  -4  -1   5 15.0384 1.44818  10
  -4  -1   5 18.5048 1.90018   7
  -4  -1   5 17.3291 1.86640   6
  -4  -1   5 16.7480 2.37395  16
  -4  -1   5 17.2833 1.70045  15
  -3  -1   5 716.114 40.3983   3
  -3  -1   5 753.199 40.4851   6
  -3  -1   5 752.578 40.5055   7
  -3  -1   5 689.106 40.2510   2
   2   1  -5 578.034 33.3460   1
  -2  -1   5 595.907 33.4704   2
  -2  -1   5 648.000 33.7185   3
  -2  -1   5 641.226 33.2863   6
  -2  -1   5 555.770 33.3034   1
  -2  -1   5 581.059 33.2343   1
  -2  -1   5 593.769 33.2965   7
   1   1  -5 233.117 13.1359   1
   1   1  -5 221.577 13.5622   3
   1   1  -5 235.189 13.1483   1
   1   1  -5 204.589 13.2234   2
  -1  -1   5 242.769 13.3024   2
  -1  -1   5 226.295 13.1106   1
  -1  -1   5 239.906 12.9457   6
   0   1  -5 1023.62 57.5221   1
   0   1  -5 1061.95 57.4450   1
   0   1  -5 1045.08 57.9392   3
   0   1  -5 1042.47 57.5910   2
   0  -1   5 1050.55 57.6351   2
   0  -1   5 1078.85 57.4765   1
   0  -1   5 1006.98 57.8590   3
   0  -1   5 1044.16 57.4845   1
  -1   1  -5 44.8144 3.08492   1
  -1   1  -5 46.7635 3.07059   1
  -1   1  -5 46.6702 2.84599   4
  -1   1  -5 49.2029 3.51872   3
  -1   1  -5 45.5155 3.18906   2
   1  -1   5 44.9690 3.06280   1
   1  -1   5 41.5354 3.38331   3
   1  -1   5 36.1168 3.10487   2
   1  -1   5 47.6870 3.12017   1
  -2   1  -5 34.6093 2.55094   2
  -2   1  -5 34.0950 2.30719   4
  -2   1  -5 29.2991 2.32383   1
  -2   1  -5 35.0988 2.68999   3
  -2   1  -5 32.9679 2.42810   1
  -2   1  -5 30.6497 2.59654   5
   2  -1   5 29.8628 2.37261   1
  -3   1  -5 439.783 23.9036   5
  -3   1  -5 375.357 23.0507   2
  -3   1  -5 426.595 23.3310   3
  -3   1  -5 413.064 23.2012   4
  -4   1  -5 86.3402 6.02013  11
  -4   1  -5 85.5975 5.66113   4
  -4   1  -5 89.8254 5.79418  18
  -4   1  -5 86.7032 6.18897  12
  -4   1  -5 96.5445 6.38247  13
  -4   1  -5 86.2280 5.15949  10
  -4   1  -5 84.2675 6.19502   5
  -4   1  -5 75.0437 6.18283  14
  -5   1  -5 33.2612 3.71203   5
  -5   1  -5 43.4060 3.66167  11
  -5   1  -5 33.1872 3.69727  14
  -5   1  -5 42.8559 3.98177  13
  -5   1  -5 38.3155 3.71631  12
  -5   1  -5 39.4565 3.17971  18
  -6   1  -5 95.3502 6.39349  12
  -6   1  -5 90.2660 6.32506  11
  -6   1  -5 72.0823 6.13877  14
  -6   1  -5 99.7822 6.72690  13
  -7   1  -5 19.0338 2.13982  13
  -7   1  -5 22.3937 2.31540  12
  -7   0   5 46.3252 3.58915  17
  -7   0   5 45.9258 3.51586  16
  -6   0   5 2.34420 1.20167  16
  -6   0   5 3.67602 1.21081  17
  -6   0   5 1.84007 1.06293  18
  -6   0   5 3.85357 0.95777  15
  -5   0   5 21.8291 2.58906  18
  -5   0   5 28.0936 2.94067  16
  -5   0   5 21.4316 2.85177  17
  -5   0   5 23.0017 2.36927   7
  -5   0   5 22.4587 2.35884  14
  -5   0   5 25.2529 2.16229  15
  -4   0   5 -0.1578 0.37970  15
  -4   0   5 -0.0871 0.53612   7
  -4   0   5 0.22542 0.64120  14
  -4   0   5 0.83840 0.95501  16
  -4   0   5 0.00900 0.83609  18
  -4   0   5 0.11685 0.39782  10
  -4   0   5 1.05040 1.05718  17
  -3   0   5 20.8115 1.84475   7
  -3   0   5 16.6133 1.50391   2
  -3   0   5 17.0027 1.63098   3
  -3   0   5 21.0439 1.62014   2
  -3   0   5 19.7240 1.67782   3
  -3   0   5 20.1188 1.70871   6
   2   0  -5 1.07740 0.47283   1
   2   0  -5 1.01470 0.38413   1
  -2   0   5 0.25957 0.37230   2
  -2   0   5 1.22616 0.40082   1
  -2   0   5 0.78609 0.42215   3
  -2   0   5 1.03075 0.44262   1
  -2   0   5 0.57458 0.26692   4
  -2   0   5 1.61885 0.57301   3
  -2   0   5 0.92474 0.50719   2
  -2   0   5 0.87938 0.41046   7
   1   0  -5 135.736 8.51132   2
   1   0  -5 147.333 8.37228   1
   1   0  -5 143.591 8.39859   1
   1   0  -5 137.665 8.62580   3
  -1   0   5 149.443 8.63471   3
  -1   0   5 138.705 8.33619   1
  -1   0   5 143.627 8.38513   1
  -1   0   5 153.144 8.55318   2
  -1   0   5 125.302 8.12928   7
   0   0  -5 22.1313 1.64494   5
   0   0  -5 22.1976 1.97377   3
   0   0  -5 22.4681 1.82218   1
   0   0  -5 22.0975 1.94022   2
   0   0  -5 23.0163 1.80408   1
   0   0   5 22.0626 1.80833   1
   0   0   5 19.4630 1.84016   2
   0   0   5 23.3431 2.01724   3
   0   0   5 21.5220 1.76404   1
  -1   0  -5 22.9171 1.91401   5
  -1   0  -5 22.5602 1.87750   1
  -1   0  -5 26.0965 2.07450   2
  -1   0  -5 20.3682 2.08786   3
  -1   0  -5 29.9634 2.23370   3
  -1   0  -5 26.8328 1.96819   1
   1   0   5 22.2085 2.05458   3
   1   0   5 23.3667 1.90894   1
   1   0   5 25.5347 1.92779   1
  -2   0  -5 30.7980 2.16719   2
  -2   0  -5 21.9942 1.80562   6
  -2   0  -5 21.6372 1.91087   1
  -2   0  -5 26.8792 2.34214   5
  -2   0  -5 25.8029 2.22889   3
  -2   0  -5 26.7952 1.98932   1
  -3   0  -5 1.68956 0.59699   3
  -3   0  -5 3.43581 1.05370   5
  -3   0  -5 1.49441 0.47990   2
  -3   0  -5 2.38135 0.56254   2
  -3   0  -5 2.92425 0.64167   3
  -4   0  -5 228.697 14.8659  14
  -4   0  -5 247.068 14.5454  12
  -4   0  -5 239.631 14.6964   5
  -4   0  -5 236.209 13.3784  10
  -4   0  -5 223.312 13.8612  18
  -4   0  -5 247.401 14.6187  13
  -4   0  -5 241.596 14.4583  11
  -5   0  -5 693.553 43.4961   5
  -5   0  -5 772.245 43.3658  11
  -5   0  -5 779.052 43.4984  13
  -5   0  -5 782.018 43.3044  12
  -5   0  -5 782.650 43.8594  14
  -6   0  -5 59.2858 4.82716  13
  -6   0  -5 59.3459 5.04334  14
  -6   0  -5 63.6688 4.76663  12
  -7   0  -5 101.772 6.51530  14
  -7   1   5 32.4648 2.63372  16
  -7   1   5 29.1463 2.77121  17
  -6   1   5 70.7897 5.56821  17
  -6   1   5 73.3419 4.92304  15
  -6   1   5 77.5855 5.48160  16
  -6   1   5 69.8628 5.63258  18
  -5   1   5 36.9468 2.98529  15
  -5   1   5 38.4913 2.40006  10
  -5   1   5 37.1911 3.25680   7
  -5   1   5 40.5653 3.39840  16
  -5   1   5 31.7416 3.39305  11
  -5   1   5 42.2433 3.77177  17
  -5   1   5 42.2453 3.81934  18
  -4   1   5 289.426 17.9917  18
  -4   1   5 309.428 17.5749  16
  -4   1   5 301.398 16.7840  10
  -4   1   5 303.616 17.4141   7
  -4   1   5 293.710 17.8878  17
  -4   1   5 296.499 17.0734  15
  -3   1   5 366.524 21.2316   3
  -3   1   5 377.027 21.2364   7
  -3   1   5 394.564 21.1303   2
  -3   1   5 355.029 20.9798   4
   2  -1  -5 27.3510 2.28038   1
   2  -1  -5 30.2501 2.43984   1
  -2   1   5 29.1177 2.31829   1
  -2   1   5 33.6823 2.62317   3
  -2   1   5 32.7715 2.35861   7
  -2   1   5 33.5641 2.53714   2
  -2   1   5 30.5365 2.35878   1
   1  -1  -5 36.2700 2.95045   3
   1  -1  -5 42.9065 2.90489   1
   1  -1  -5 34.7527 2.90627   2
   1  -1  -5 40.6006 2.85809   1
   1  -1  -5 35.5431 2.40898   5
  -1   1   5 41.8179 2.91631   1
  -1   1   5 39.8425 3.05106   3
  -1   1   5 42.7371 2.67386   7
  -1   1   5 39.2344 2.79614   1
  -1   1   5 43.7827 3.07915   2
   0  -1  -5 37.8595 2.47926   5
   0  -1  -5 35.5496 2.62487   1
   0  -1  -5 35.6174 2.78010   2
   0  -1  -5 37.9577 2.78531   3
   0  -1  -5 32.4166 2.53521   1
   0   1   5 36.7744 2.83135   3
   0   1   5 29.8800 2.48246   1
   0   1   5 33.9005 2.76188   2
   0   1   5 32.6128 2.17781   7
   0   1   5 37.3841 2.70237   1
  -1  -1  -5 14.7591 1.49285   1
  -1  -1  -5 17.4563 1.71717   2
  -1  -1  -5 15.9770 1.61134   5
  -1  -1  -5 16.8144 1.69257   3
  -1  -1  -5 16.3983 1.56694   1
   1   1   5 13.1823 1.46926   1
   1   1   5 17.0551 1.57016   1
  -2  -1  -5 76.5886 5.12470   3
  -2  -1  -5 77.5313 5.10029   2
  -2  -1  -5 78.4717 5.34412   5
  -2  -1  -5 79.1948 5.11926   6
  -3  -1  -5 14.6077 2.12593   5
  -3  -1  -5 13.6668 2.02035  14
  -3  -1  -5 12.9860 1.33702  10
  -3  -1  -5 13.2939 1.37251   2
  -3  -1  -5 11.1051 1.87895  13
  -3  -1  -5 12.6320 1.36503   3
  -3  -1  -5 10.6317 1.15036   9
  -3  -1  -5 15.1752 2.23054  11
  -3  -1  -5 17.5810 2.26611  12
  -3  -1  -5 11.5124 1.67605   6
  -4  -1  -5 1.75409 1.11948  13
  -4  -1  -5 1.80601 1.00592  12
  -4  -1  -5 1.99455 1.35146  14
  -4  -1  -5 1.39265 1.39550   5
  -4  -1  -5 0.90659 1.13823  15
  -4  -1  -5 2.06218 0.59259  10
  -5  -1  -5 2.34398 1.00648  13
  -5  -1  -5 2.63662 1.21254  12
  -5  -1  -5 1.90077 1.34011  14
  -5  -1  -5 2.19613 1.01827  15
  -6  -1  -5 12.1533 2.10419  14
  -6  -1  -5 12.0043 1.91253  13
  -7   2   5 17.2411 2.20628  18
  -7   2   5 16.2096 1.96531  17
  -6   2   5 14.3278 2.36480  18
  -6   2   5 16.1943 1.85959  16
  -6   2   5 14.3447 2.26249  17
  -6   2   5 9.41085 2.16842  11
  -5   2   5 9.74210 1.69870  16
  -5   2   5 11.4132 2.09645  17
  -5   2   5 9.87264 1.65961   7
  -5   2   5 11.1552 2.15665  18
  -5   2   5 9.53857 1.06544  10
  -5   2   5 9.98979 1.95080  11
  -4   2   5 0.24775 0.37634   9
  -4   2   5 0.63628 0.51995   2
  -4   2   5 -0.2360 0.62719   7
  -4   2   5 0.60655 0.76281  16
  -4   2   5 0.29563 0.46579  10
  -4   2   5 2.15117 0.99943  11
  -4   2   5 0.22711 0.63880  18
  -4   2   5 0.71963 0.49423   3
  -4   2   5 -0.2072 1.01889  17
  -3   2   5 135.000 8.29774   2
  -3   2   5 129.387 8.14419   4
  -3   2   5 129.261 8.37625   3
  -3   2   5 137.643 8.21309   7
  -2   2   5 707.084 39.8166   3
  -2   2   5 761.434 39.9599   2
  -2   2   5 662.928 39.6220   1
  -2   2   5 710.163 39.3988   7
   1  -2  -5 13.5209 1.72214   2
   1  -2  -5 17.4143 1.82543   3
   1  -2  -5 18.0628 1.65335   1
   1  -2  -5 18.0321 1.78352   1
  -1   2   5 16.1636 1.54898   1
  -1   2   5 16.6811 1.87018   2
  -1   2   5 14.6769 1.67505   1
  -1   2   5 19.6294 1.93071   3
  -1   2   5 16.2551 1.36675   7
   0  -2  -5 696.570 38.0137   5
   0  -2  -5 680.913 38.3730   1
   0  -2  -5 701.443 38.5643   2
   0  -2  -5 656.738 38.1706   1
   0  -2  -5 732.200 38.5366   3
   0   2   5 706.600 38.4839   1
   0   2   5 666.904 38.1344   1
   0   2   5 665.551 38.5781   3
   0   2   5 662.739 38.6244   2
  -1  -2  -5 1114.46 61.8282   3
  -1  -2  -5 1114.66 61.6623   5
  -1  -2  -5 1112.29 61.9242   2
  -2  -2  -5 82.3716 5.80553   3
  -2  -2  -5 88.2277 5.94644   6
  -2  -2  -5 91.0821 6.08961   5
  -2  -2  -5 83.5928 5.80675   2
  -3  -2  -5 321.355 20.2559   6
  -3  -2  -5 364.458 20.2679  12
  -3  -2  -5 335.743 19.6500   2
  -3  -2  -5 344.215 20.1848  15
  -3  -2  -5 352.548 20.8410  14
  -3  -2  -5 340.623 19.5192  10
  -3  -2  -5 347.620 19.6886   3
  -3  -2  -5 339.563 20.2053  13
  -3  -2  -5 333.221 19.3601   9
  -3  -2  -5 360.128 20.6303   5
  -4  -2  -5 15.7752 2.31206  13
  -4  -2  -5 19.1472 2.57188  12
  -4  -2  -5 15.3097 1.46696  10
  -4  -2  -5 18.3031 2.63227  14
  -4  -2  -5 15.8810 2.45872  15
  -4  -2  -5 8.21130 2.16705   5
  -5  -2  -5 11.2364 2.02549  13
  -5  -2  -5 14.7981 2.51279  14
  -5  -2  -5 12.4260 2.05869  15
  -6  -2  -5 48.1997 4.00824  14
  -6  -2  -5 46.9600 3.50725  13
  -7   3   5 148.317 9.09860  17
  -7   3   5 155.559 9.39282  18
  -7   3   5 130.808 9.38959  11
  -6   3   5 66.8271 5.29171  18
  -6   3   5 77.0922 5.70935  11
  -6   3   5 55.6703 3.50686  10
  -6   3   5 65.7378 5.09680  17
  -5   3   5 69.8922 5.74953  18
  -5   3   5 70.4031 5.25753   7
  -5   3   5 79.3537 6.19235  11
  -5   3   5 71.3936 5.64765  17
  -5   3   5 73.4774 4.68606  10
  -5   3   5 71.4145 5.39398   4
  -4   3   5 134.050 8.36202   7
  -4   3   5 129.920 8.19108   2
  -4   3   5 137.409 8.47159   4
  -4   3   5 121.162 8.79192  18
  -4   3   5 125.789 7.83693   9
  -4   3   5 126.905 8.35628   3
  -4   3   5 137.963 9.17512  11
  -4   3   5 124.261 8.58477  17
  -4   3   5 132.282 7.97795  10
  -3   3   5 116.168 7.45046   2
  -3   3   5 113.947 7.34947   3
  -3   3   5 99.3901 6.89057   9
  -3   3   5 112.472 7.00824   7
  -3   3   5 115.676 7.20081   4
  -3   3   5 102.810 6.54519   8
  -2   3   5 30.1025 2.28258   7
  -2   3   5 26.9887 2.70326   3
  -2   3   5 28.4008 2.87192   2
  -1   3   5 3.60485 1.19879   2
  -1   3   5 4.14542 1.17156   3
   0  -3  -5 1.25772 0.88702   2
   0  -3  -5 1.09240 0.70592   3
   0  -3  -5 1.44787 0.68755   5
  -1  -3  -5 24.6449 2.26683   8
  -1  -3  -5 27.1978 2.90528   2
  -1  -3  -5 29.3974 2.74158   6
  -1  -3  -5 27.0615 2.58292   5
  -1  -3  -5 27.9459 2.65413   3
  -2  -3  -5 24.9860 2.44137  10
  -2  -3  -5 26.1564 2.73774   5
  -2  -3  -5 27.8983 1.99789   8
  -2  -3  -5 26.9513 2.78971   6
  -2  -3  -5 26.2897 2.77787   2
  -2  -3  -5 27.8395 2.66288   3
  -2  -3  -5 21.4965 2.90060  14
  -2  -3  -5 24.7342 2.47163   9
  -3  -3  -5 0.07196 1.19570   6
  -3  -3  -5 0.80096 1.12789  14
  -3  -3  -5 0.10187 0.95528  15
  -3  -3  -5 0.08911 1.00784   5
  -3  -3  -5 0.36279 1.13053   2
  -3  -3  -5 0.75537 0.69272  10
  -3  -3  -5 0.25371 0.55473   3
  -3  -3  -5 -0.2127 0.50315   9
  -3  -3  -5 0.43046 0.85906  13
  -4  -3  -5 2.06984 1.43934  15
  -4  -3  -5 3.37840 0.83027  10
  -4  -3  -5 2.61235 1.47023  14
  -5  -3  -5 50.6414 3.93746  15
  -5  -3  -5 46.6339 3.80323  13
  -5  -3  -5 53.4002 4.56739  14
  -7   4   5 18.8588 1.99777  18
  -7   4   5 17.8268 2.20596  11
  -6   4   5 133.308 8.76448  17
  -6   4   5 134.657 7.79119  10
  -6   4   5 126.560 8.97756  18
  -6   4   5 149.230 9.72759  11
  -5   4   5 86.7603 5.60271  10
  -5   4   5 81.0370 6.11424  17
  -5   4   5 96.9639 7.14630  11
  -5   4   5 82.9908 6.52724  18
  -4   4   5 61.4130 5.38770  18
  -4   4   5 69.0139 4.76977   9
  -4   4   5 70.7274 5.31530   4
  -4   4   5 69.9103 4.81760  10
  -4   4   5 68.6625 5.19744   2
  -4   4   5 70.7780 5.89628  11
  -4   4   5 63.9756 5.16997   3
  -3   4   5 84.6820 6.11413   2
  -3   4   5 70.3899 5.36049   9
  -3   4   5 75.4775 5.79456   3
  -3   4   5 81.6387 5.67711   4
  -3   4   5 71.8994 5.31901  10
  -3   4   5 77.7493 5.01155   8
  -2   4   5 2.55373 1.04428   8
  -2   4   5 2.10459 0.95366   3
  -2   4   5 2.86617 1.51247   2
   0  -4  -5 102.639 7.80056   2
   0  -4  -5 107.125 6.97699   8
   0  -4  -5 105.966 7.61183   3
  -1  -4  -5 11.5554 2.08906   9
  -1  -4  -5 7.94949 1.62460   3
  -1  -4  -5 12.5532 2.35920   2
  -1  -4  -5 10.2350 1.48498   8
  -1  -4  -5 10.2159 1.97303   6
  -1  -4  -5 8.54715 1.57569  10
  -2  -4  -5 185.898 11.3653  15
  -2  -4  -5 189.331 10.9963  10
  -2  -4  -5 162.342 9.95117   8
  -2  -4  -5 172.606 11.5150   2
  -2  -4  -5 172.018 11.6467  14
  -2  -4  -5 177.925 11.7827   6
  -2  -4  -5 183.220 10.9836   9
  -3  -4  -5 182.840 12.2195  14
  -3  -4  -5 177.255 11.5904  13
  -3  -4  -5 192.462 12.1646  15
  -3  -4  -5 194.388 11.0089   9
  -3  -4  -5 188.426 11.3014  10
  -4  -4  -5 8.24889 1.77367  15
  -4  -4  -5 5.37434 0.89110  10
  -4  -4  -5 5.16881 1.47385  14
  -5  -4  -5 16.6494 1.74150  15
  -5  -4  -5 22.8027 2.12435  14
  -7   5   5 177.257 9.72729  11
  -7   5   5 137.659 9.17718  18
  -6   5   5 5.22923 1.54167  11
  -6   5   5 5.13608 1.20450  18
  -6   5   5 5.53062 0.77230  10
  -5   5   5 23.5922 3.22725  11
  -5   5   5 19.7688 1.91148  10
  -5   5   5 19.3798 2.41779  18
  -4   5   5 7.14219 1.49811   9
  -4   5   5 7.94083 2.07190  11
  -4   5   5 5.50612 1.32892  10
  -3   5   5 9.21484 1.92509   9
  -3   5   5 9.83921 1.93930   4
  -3   5   5 8.20246 1.31763   8
  -3   5   5 6.56588 2.03341   2
  -2   5   5 19.3580 2.36282   8
  -2   5   5 23.3461 2.81429   4
   0  -5  -5 32.9359 3.40382   6
   0  -5  -5 29.1398 2.85759   8
  -1  -5  -5 38.7749 4.00512   6
  -1  -5  -5 42.6847 3.97096   9
  -1  -5  -5 40.4804 3.79276  10
  -2  -5  -5 -0.2389 0.90332  10
  -2  -5  -5 0.62489 0.92965   9
  -2  -5  -5 0.46930 1.11666  15
  -3  -5  -5 42.7991 3.80020  15
  -3  -5  -5 46.9977 3.43063  10
  -4  -5  -5 15.0281 1.73860  15
  -6   6   5 30.1366 2.94041  11
  -6   6   5 31.8344 2.09316  10
  -5   6   5 50.6420 4.28047  11
  -5   6   5 44.0515 3.41631  10
  -5   6   5 46.4056 3.06804   9
  -4   6   5 181.872 11.2546  11
  -4   6   5 166.458 10.1010   9
  -4   6   5 143.109 9.97536  10
  -3   6   5 7.54390 1.86680  11
  -3   6   5 6.15194 1.87247   9
  -3   6   5 7.11862 1.23857   8
  -2   6   5 216.637 13.2021   8
   1  -6  -5 101.525 7.08243   8
   0  -6  -5 -0.3109 1.13005   9
  -1  -6  -5 11.0170 2.02860   9
  -1  -6  -5 10.0891 1.06734   8
  -1  -6  -5 12.7684 1.87311  15
  -2  -6  -5 10.8212 1.74686  15
  -2  -6  -5 14.6084 1.78835  10
  -2  -6  -5 11.5303 1.49463   9
  -3  -6  -5 12.8509 1.16012  10
  -5   7   5 5.12412 0.93546  10
  -5   7   5 3.98904 1.19460  11
  -4   7   5 6.73347 1.51454  11
  -4   7   5 5.23977 1.31430  10
  -3   7   5 2.29345 0.71029   8
  -3   7   5 1.90255 1.10699   9
  -3   7   5 1.32719 1.48020  11
  -2   7   5 44.7494 3.50320   8
  -2   7   5 44.7026 4.02758  11
   1  -7  -5 3.80368 1.06662  15
   1  -7  -5 6.10587 1.32959   8
  -1   7   5 5.36405 1.54670   8
   0  -7  -5 111.559 6.93173  15
   0  -7  -5 102.946 6.31743   8
  -1  -7  -5 0.87577 0.65389   9
  -1  -7  -5 -0.0557 0.62822  15
   2  -8  -5 10.8510 1.13404   8
  -2   8   5 9.28388 0.89888   8
  -1  -8   6 6.52783 1.14889  16
  -1  -8   6 6.84882 0.96954   9
   0  -8   6 0.64637 0.44485   8
   0  -8   6 0.49600 0.61972  16
   0  -8   6 1.13597 0.76896   9
  -1   8  -6 49.9449 3.37843   8
   1  -8   6 47.4728 3.28695   8
  -2   8  -6 16.4826 1.52339   8
  -2   8  -6 17.1949 2.17164  12
   2  -8   6 17.4530 1.69047   8
  -3   8  -6 31.8273 2.65794   9
  -3   8  -6 27.9886 2.66558  12
  -4   8  -6 6.63749 1.21586  12
  -4   8  -6 3.71312 0.60870   9
  -2  -7   6 55.4058 3.69311   9
  -2  -7   6 51.8772 3.65463  10
  -2  -7   6 57.3371 4.26441  16
  -1  -7   6 16.6137 1.38252   8
  -1  -7   6 19.8422 2.10238  16
  -1  -7   6 20.5622 2.20867   9
   0  -7   6 4.70101 1.03077   8
  -1   7  -6 29.1898 2.59139   8
   1  -7   6 29.9238 2.55111   8
  -2   7  -6 34.4711 2.70248   8
  -3   7  -6 1.90849 0.89713   9
  -3   7  -6 1.71928 0.62926   8
  -3   7  -6 2.02219 1.15332  12
  -4   7  -6 249.524 14.3151  10
  -4   7  -6 245.247 15.0836  12
  -5   7  -6 14.8354 1.39650  10
  -5   7  -6 21.9017 2.24838  12
  -4  -6   6 12.8084 1.04836  10
  -4  -6   6 17.0953 1.93000  16
  -3  -6   6 53.6634 4.21458  16
  -3  -6   6 49.1685 3.48147  10
  -2  -6   6 15.9949 1.78819   9
  -2  -6   6 16.3354 1.82432  10
  -2  -6   6 20.5908 2.65245  16
  -1  -6   6 8.30062 1.62666   9
  -1  -6   6 10.1306 1.27551   8
   0  -6   6 13.6956 1.74795   8
  -1   6  -6 8.36765 1.46332   8
  -2   6  -6 16.5194 1.72452   8
  -3   6  -6 262.525 16.2018  10
  -3   6  -6 288.531 16.4388   9
  -3   6  -6 293.997 17.0690  12
  -3   6  -6 274.128 15.9634   8
  -4   6  -6 4.89851 1.81971  12
  -4   6  -6 8.13373 1.24841   9
  -4   6  -6 3.65426 0.94168  10
  -5   6  -6 2.29206 1.54983  12
  -5   6  -6 2.50670 0.61917  10
  -5  -5   6 1.01043 0.84094  16
  -4  -5   6 11.1780 2.08319  16
  -4  -5   6 9.16865 1.04319  10
  -4  -5   6 6.82675 1.05462  15
  -3  -5   6 12.8054 1.54032  10
  -3  -5   6 12.0980 1.52713   9
  -3  -5   6 17.9805 2.27570  16
  -2  -5   6 117.577 7.32796   9
  -2  -5   6 118.775 7.26741  10
  -2  -5   6 114.413 6.81855   8
  -2  -5   6 113.313 7.68882  16
  -2  -5   6 104.624 7.37796   6
  -1  -5   6 64.8655 4.70185   9
  -1  -5   6 64.0270 4.22043   8
  -1  -5   6 61.5820 4.97713   2
  -1  -5   6 55.2778 5.74044   3
   0  -5   6 113.722 7.17053   8
  -1   5  -6 120.211 7.55796   8
  -2   5  -6 10.7604 1.95313   2
  -2   5  -6 12.1681 1.95163   9
  -2   5  -6 15.4790 1.60779   8
  -2   5  -6 10.6961 2.62418   3
  -3   5  -6 8.16300 1.64477  12
  -3   5  -6 8.42044 1.45054   9
  -3   5  -6 7.73769 1.41406   4
  -3   5  -6 9.25912 1.81505   2
  -3   5  -6 7.23858 1.17284  10
  -3   5  -6 6.51625 2.21828   3
  -3   5  -6 7.41393 1.08782   8
  -4   5  -6 176.396 10.1599  10
  -4   5  -6 186.088 11.4935  12
  -4   5  -6 141.889 10.8517  13
  -4   5  -6 177.752 10.2823   9
  -5   5  -6 0.86798 1.54637  12
  -5   5  -6 0.54374 0.53616  10
  -5   5  -6 0.44976 0.70684  11
  -6   5  -6 43.6404 3.62153  11
  -6   5  -6 55.8005 4.21452  12
  -7   5  -6 0.72029 0.64891  12
  -5  -4   6 4.99761 1.39254  16
  -5  -4   6 5.17638 0.91694  15
  -4  -4   6 185.254 10.8087  10
  -4  -4   6 182.047 11.0712  15
  -4  -4   6 191.187 12.0343  16
  -3  -4   6 54.4828 4.92998  17
  -3  -4   6 62.6520 4.87757  16
  -3  -4   6 56.3767 4.09170  15
  -3  -4   6 59.8237 4.51835   2
  -3  -4   6 62.5785 4.10924  10
  -3  -4   6 59.1698 4.47149   6
  -3  -4   6 60.5399 4.14729   9
  -2  -4   6 33.1533 3.05099  16
  -2  -4   6 33.3758 3.63146   3
  -2  -4   6 35.4467 3.23968   2
  -2  -4   6 37.4934 2.98653   6
  -2  -4   6 36.4073 2.83388  10
  -2  -4   6 33.8639 3.08441   7
  -2  -4   6 38.5221 2.96405   9
  -2  -4   6 33.8917 2.56069   8
  -1  -4   6 109.204 6.68842   8
  -1  -4   6 99.6266 6.90772   9
  -1  -4   6 113.761 6.90175   6
  -1  -4   6 109.019 8.23604   3
  -1  -4   6 116.538 7.39876   2
   0  -4   6 17.3615 2.15370   2
   0  -4   6 16.7622 2.89436   3
  -1   4  -6 92.2695 7.53711   3
  -1   4  -6 100.248 6.72125   2
  -2   4  -6 100.953 6.37221   8
  -2   4  -6 110.227 7.05430   2
  -2   4  -6 86.3932 6.55917   9
  -2   4  -6 115.720 6.56123   4
  -2   4  -6 112.106 8.06811   3
  -3   4  -6 4.22589 0.85028   8
  -3   4  -6 2.95462 0.77976  10
  -3   4  -6 3.52197 1.24010   5
  -3   4  -6 4.97000 1.02794   4
  -3   4  -6 7.69460 1.56012   2
  -3   4  -6 4.58704 1.29667  12
  -3   4  -6 4.68207 1.06618   9
  -3   4  -6 4.19335 1.46033   3
  -4   4  -6 5.24577 1.13324   4
  -4   4  -6 4.50828 1.27769  11
  -4   4  -6 5.09471 1.00262   9
  -4   4  -6 5.30386 1.47949  12
  -4   4  -6 4.77371 1.18256   2
  -4   4  -6 4.21485 1.39996   3
  -4   4  -6 4.42754 0.86462  10
  -4   4  -6 4.64553 1.43044  13
  -5   4  -6 13.3034 1.38092  10
  -5   4  -6 11.8195 1.73372  11
  -5   4  -6 10.6720 1.98205  13
  -5   4  -6 14.2577 2.36540  12
  -6   4  -6 1.96190 1.05254  11
  -6   4  -6 2.80677 1.17768  12
  -7   4  -6 49.2578 3.73682  12
  -7   4  -6 54.4423 3.74650  11
  -6  -3   6 32.2602 2.45864  15
  -6  -3   6 38.3134 3.28845  16
  -5  -3   6 0.71373 1.20804  17
  -5  -3   6 0.74899 1.24148  16
  -5  -3   6 0.44365 0.68623  15
  -5  -3   6 0.71367 0.29960  10
  -4  -3   6 80.1934 5.30091  15
  -4  -3   6 78.0449 5.01067  10
  -4  -3   6 71.9317 6.01921  17
  -4  -3   6 74.8640 5.52192   6
  -4  -3   6 79.2189 6.16349  16
  -4  -3   6 89.2863 5.76402  14
  -3  -3   6 188.327 11.5821   6
  -3  -3   6 181.604 11.2531  15
  -3  -3   6 188.454 11.9333   3
  -3  -3   6 186.278 12.1254  17
  -3  -3   6 187.333 11.6100   7
  -3  -3   6 187.715 11.2268   9
  -3  -3   6 187.824 11.6258   2
  -3  -3   6 198.588 11.6547  14
  -3  -3   6 206.819 11.1869  10
  -3  -3   6 196.762 11.9552  16
  -2  -3   6 49.0638 3.57834   8
  -2  -3   6 55.8386 3.89056   9
  -2  -3   6 63.6108 4.04718   6
  -2  -3   6 51.2283 3.99831   7
  -2  -3   6 52.3895 4.02056  16
  -2  -3   6 54.7627 3.90842  10
  -2  -3   6 61.5900 4.83063   3
  -2  -3   6 61.0749 4.18983   2
  -1  -3   6 82.1791 5.59473   2
  -1  -3   6 85.4130 6.37008   3
  -1  -3   6 83.1066 5.26890   6
   0   3  -6 55.1613 4.49745   1
   0  -3   6 60.8270 4.36149   1
   0  -3   6 64.6247 3.94148   6
   0  -3   6 68.6162 4.60232   2
   0  -3   6 68.1488 5.31158   3
  -1   3  -6 536.845 29.3009   2
  -1   3  -6 525.307 28.5999   4
  -1   3  -6 574.956 30.3832   3
  -1   3  -6 469.358 29.0017   1
   1  -3   6 477.855 29.3373   1
  -2   3  -6 1.75025 0.53100   4
  -2   3  -6 2.28991 1.12038   3
  -2   3  -6 0.88318 0.63744   2
  -3   3  -6 53.8758 4.35312   3
  -3   3  -6 50.2903 3.33619  10
  -3   3  -6 48.4209 3.58337  18
  -3   3  -6 52.5971 3.85511   2
  -3   3  -6 44.9893 4.12087  12
  -3   3  -6 43.9697 3.43886   9
  -3   3  -6 48.2139 3.09050   8
  -3   3  -6 50.8574 3.51824   4
  -3   3  -6 53.1431 4.13645   5
  -4   3  -6 1.65532 1.28373  13
  -4   3  -6 1.69649 0.60148   9
  -4   3  -6 1.83227 0.94787  11
  -4   3  -6 1.71359 1.33617  12
  -4   3  -6 3.08270 0.94167  18
  -4   3  -6 1.50386 0.74217   3
  -4   3  -6 3.45700 1.51022   5
  -4   3  -6 2.50073 0.85654   2
  -4   3  -6 2.32871 0.80287   4
  -5   3  -6 48.1613 4.39000  12
  -5   3  -6 43.0632 2.94922  10
  -5   3  -6 42.8851 4.17269  13
  -5   3  -6 40.8373 3.40580   4
  -5   3  -6 49.3513 3.66001  18
  -5   3  -6 46.4708 3.85682  11
  -6   3  -6 -1.3540 1.27637  13
  -6   3  -6 0.87391 1.29160  12
  -6   3  -6 0.16704 0.71377  11
  -7   3  -6 35.5693 2.75023  12
  -7   3  -6 28.9964 2.77985  11
  -7  -2   6 16.9474 1.71015  16
  -6  -2   6 16.2954 2.12988  17
  -6  -2   6 19.4988 1.87959  15
  -6  -2   6 22.8414 2.56979  16
  -5  -2   6 3.17020 0.85865  15
  -5  -2   6 3.99780 1.08914  14
  -5  -2   6 3.04794 1.27780  17
  -5  -2   6 1.82477 1.24544  16
  -5  -2   6 2.58126 0.43999  10
  -4  -2   6 -0.2275 1.04401  17
  -4  -2   6 0.47863 0.69400   6
  -4  -2   6 -0.0870 0.39937  10
  -4  -2   6 0.14692 0.80892   7
  -4  -2   6 0.53323 1.05667  16
  -4  -2   6 0.01807 0.45100  15
  -4  -2   6 1.55031 0.74817  14
  -3  -2   6 24.1224 2.20305   9
  -3  -2   6 27.8585 2.47207   7
  -3  -2   6 27.7515 2.54130  14
  -3  -2   6 28.7021 2.11735  10
  -3  -2   6 29.2429 2.36992   6
  -3  -2   6 23.6331 2.63339  16
  -3  -2   6 28.4690 2.41997   2
  -3  -2   6 28.5579 2.52271   3
  -3  -2   6 22.6765 2.19836  15
  -3  -2   6 24.8680 2.87912  17
  -2  -2   6 1.77535 0.62209   7
  -2  -2   6 0.70398 0.48578   2
  -2  -2   6 0.93247 0.62751   3
  -2  -2   6 1.02599 0.48487   6
   1   2  -6 9.29546 1.39089   1
  -1  -2   6 11.1956 1.39874   1
  -1  -2   6 11.3376 1.28103   1
  -1  -2   6 13.6308 1.44534   2
  -1  -2   6 13.3601 1.78333   3
  -1  -2   6 14.2095 1.20140   6
   0   2  -6 4.65264 0.88622   1
   0   2  -6 5.97775 1.37736   3
   0   2  -6 5.23835 0.99174   2
   0   2  -6 4.61501 0.94367   1
   0  -2   6 8.32356 1.56714   3
   0  -2   6 5.67130 0.60892   6
   0  -2   6 5.02431 0.87680   1
   0  -2   6 6.33536 1.07493   2
   0  -2   6 6.18050 1.10466   1
  -1   2  -6 250.959 15.1984   1
  -1   2  -6 265.082 15.8938   3
  -1   2  -6 260.591 15.0702   1
  -1   2  -6 266.130 14.7212   4
  -1   2  -6 285.706 15.2983   2
   1  -2   6 249.735 15.0562   1
   1  -2   6 255.530 15.2486   1
  -2   2  -6 3.79611 0.92949   2
  -2   2  -6 3.50459 0.67005   4
  -2   2  -6 3.45535 1.05021   3
  -2   2  -6 4.71271 1.03376   5
  -3   2  -6 132.428 9.16710   5
  -3   2  -6 142.811 9.15957   3
  -3   2  -6 145.062 8.76033   2
  -3   2  -6 151.614 8.65978   4
  -4   2  -6 228.742 12.5104  18
  -4   2  -6 208.091 12.9923  12
  -4   2  -6 209.378 11.8829  10
  -4   2  -6 175.692 11.4002   9
  -4   2  -6 215.516 12.6531  11
  -4   2  -6 230.769 13.4389  13
  -4   2  -6 207.827 12.2688   4
  -4   2  -6 222.758 13.3166   5
  -4   2  -6 186.661 11.4925   3
  -5   2  -6 7.53195 1.58301  11
  -5   2  -6 7.55429 0.85972  10
  -5   2  -6 8.14834 1.81161  12
  -5   2  -6 6.35121 2.19989   5
  -5   2  -6 9.21203 1.50383  18
  -5   2  -6 7.86266 1.99244  13
  -6   2  -6 295.550 17.9816  12
  -6   2  -6 315.603 18.4969  13
  -6   2  -6 298.481 18.0285  11
  -7   2  -6 4.17772 1.02837  13
  -7  -1   6 14.6013 1.66355  17
  -7  -1   6 15.5257 1.66783  16
  -6  -1   6 164.852 10.3879  16
  -6  -1   6 158.519 9.78595  15
  -6  -1   6 166.237 10.6707  17
  -5  -1   6 -0.3265 0.62879  16
  -5  -1   6 0.69639 0.91446  17
  -5  -1   6 0.78972 0.69161  14
  -5  -1   6 0.40547 0.24417  10
  -5  -1   6 0.27186 1.00416   7
  -5  -1   6 0.34903 0.52483  15
  -4  -1   6 298.979 17.6295  17
  -4  -1   6 292.287 16.9268  14
  -4  -1   6 294.061 16.8955   6
  -4  -1   6 253.847 17.1395  18
  -4  -1   6 293.807 17.2188  16
  -4  -1   6 290.954 16.9736   7
  -4  -1   6 297.211 16.3200  10
  -4  -1   6 285.473 16.6008  15
  -3  -1   6 491.778 28.5820   2
  -3  -1   6 502.063 28.8267   3
  -3  -1   6 512.178 28.7906   7
  -3  -1   6 533.216 28.7156   6
  -2  -1   6 228.497 13.0735   2
  -2  -1   6 202.989 12.7703   7
  -2  -1   6 234.456 13.3424   3
  -2  -1   6 218.303 12.7373   6
   1   1  -6 180.646 11.7980   3
   1   1  -6 196.515 11.3449   1
   1   1  -6 190.642 11.3159   1
   1   1  -6 165.175 11.3939   2
  -1  -1   6 203.849 11.3217   1
  -1  -1   6 209.005 11.0095   6
  -1  -1   6 200.291 11.7854   3
  -1  -1   6 196.139 11.4897   2
  -1  -1   6 187.197 11.2979   1
   0   1  -6 1.74583 0.58647   1
   0   1  -6 1.21079 0.68035   3
   0   1  -6 1.38382 0.63212   2
   0   1  -6 0.98939 0.50194   1
   0  -1   6 1.71973 0.55789   1
   0  -1   6 1.55294 0.61768   2
   0  -1   6 1.09304 0.50379   1
   0  -1   6 1.84122 0.74372   3
  -1   1  -6 2.57137 0.76562   2
  -1   1  -6 2.03442 0.59080   1
  -1   1  -6 2.40627 0.50650   4
  -1   1  -6 2.52537 0.64691   1
  -1   1  -6 3.55815 0.76018   5
  -1   1  -6 2.98320 0.89940   3
   1  -1   6 2.21275 0.67231   1
   1  -1   6 1.38530 0.51473   1
  -2   1  -6 10.9355 1.51057   3
  -2   1  -6 10.3397 1.14078   4
  -2   1  -6 14.2006 1.82548   5
  -2   1  -6 13.6336 1.44045   2
  -3   1  -6 66.4474 4.53937   3
  -3   1  -6 67.2877 4.31116   4
  -3   1  -6 57.8009 4.75912   5
  -3   1  -6 61.1109 4.23687   2
  -4   1  -6 1.80200 0.79025  18
  -4   1  -6 1.65768 1.26268  13
  -4   1  -6 2.02039 1.01503  11
  -4   1  -6 1.82114 0.50250  10
  -4   1  -6 1.44858 1.20024   5
  -4   1  -6 1.29456 0.84747  12
  -4   1  -6 1.97420 0.97436  14
  -5   1  -6 7.33440 1.78807  13
  -5   1  -6 9.77018 1.78506  11
  -5   1  -6 8.63522 1.64322  12
  -5   1  -6 7.56220 1.97806  14
  -5   1  -6 6.23580 2.01182   5
  -6   1  -6 98.5265 7.20502  13
  -6   1  -6 107.135 6.84536  12
  -6   1  -6 98.5195 6.88129  11
  -6   1  -6 89.4793 6.94817  14
  -7   1  -6 51.4623 3.48197  12
  -7   1  -6 38.0687 3.39750  13
  -7   0   6 0.42051 0.75581  17
  -7   0   6 0.17380 0.76589  16
  -6   0   6 23.6412 2.93278  17
  -6   0   6 21.2341 2.29553  16
  -6   0   6 19.0569 2.50556  18
  -6   0   6 21.1177 1.97646  15
  -5   0   6 8.16320 0.80681  10
  -5   0   6 11.3813 1.85453  16
  -5   0   6 9.71787 1.93874  18
  -5   0   6 10.2590 1.47785  15
  -5   0   6 8.69848 1.63447   7
  -5   0   6 9.37286 2.12526  17
  -4   0   6 116.377 7.68770   7
  -4   0   6 114.655 8.15837  18
  -4   0   6 112.776 7.07025  10
  -4   0   6 123.609 8.30043  17
  -4   0   6 124.143 7.89256  16
  -4   0   6 123.825 7.59768  14
  -4   0   6 120.296 7.34248  15
  -3   0   6 101.729 6.41554   2
  -3   0   6 103.932 6.59498   7
  -2   0   6 1.01008 0.48544   7
  -2   0   6 0.73184 0.28768   4
  -2   0   6 1.21316 0.47531   1
  -2   0   6 2.35472 0.57670   1
  -2   0   6 1.25470 0.55538   2
  -2   0   6 2.16234 0.70068   3
   1   0  -6 1188.21 64.0639   1
   1   0  -6 1151.73 64.4432   3
   1   0  -6 1097.54 64.2152   2
   1   0  -6 1165.91 64.0993   1
  -1   0   6 1224.39 64.2868   2
  -1   0   6 1146.37 64.0693   1
  -1   0   6 1164.81 64.0539   1
  -1   0   6 1186.48 64.3703   3
  -1   0   6 1137.49 63.8035   7
   0   0  -6 457.654 24.7849   2
   0   0  -6 420.712 24.2836   5
   0   0  -6 429.640 24.5311   1
   0   0  -6 425.472 24.5433   1
   0   0  -6 464.721 24.9167   3
   0   0   6 432.550 24.5280   1
   0   0   6 441.837 24.5998   1
   0   0   6 427.309 24.7329   2
   0   0   6 431.941 24.8451   3
  -1   0  -6 2.14350 0.56840   1
  -1   0  -6 1.98073 0.65022   2
  -1   0  -6 2.84692 0.78616   3
  -1   0  -6 2.08467 0.60644   1
  -1   0  -6 1.70678 0.58095   5
   1   0   6 1.52119 0.54624   1
   1   0   6 1.54915 0.50681   1
  -2   0  -6 586.218 30.2709   3
  -2   0  -6 506.141 29.6053   6
  -2   0  -6 527.947 30.2287   5
  -2   0  -6 510.657 29.9239   2
  -3   0  -6 142.781 9.18592  11
  -3   0  -6 149.105 9.49118   5
  -3   0  -6 154.461 8.72263   2
  -3   0  -6 144.588 9.35191  13
  -3   0  -6 151.070 8.55120  10
  -3   0  -6 147.320 9.78404  14
  -3   0  -6 132.596 8.42091   9
  -3   0  -6 140.035 8.88319   3
  -4   0  -6 154.946 10.2912  13
  -4   0  -6 162.142 10.5637   5
  -4   0  -6 153.295 10.0049  12
  -4   0  -6 158.980 10.1200  11
  -4   0  -6 149.028 9.10443  10
  -4   0  -6 160.736 10.7420  14
  -5   0  -6 19.1159 2.82345  13
  -5   0  -6 20.6634 2.86914  11
  -5   0  -6 21.6478 2.76980  12
  -5   0  -6 20.4651 3.19433  14
  -6   0  -6 46.6828 4.42556  14
  -6   0  -6 49.0778 3.77821  12
  -6   0  -6 43.2522 3.96622  13
  -7   0  -6 1.25669 0.73657  13
  -7   1   6 73.7861 4.74244  16
  -7   1   6 73.3005 5.10416  17
  -7   1   6 60.0109 4.85052  18
  -6   1   6 14.1828 1.84136  16
  -6   1   6 13.5078 2.34037  17
  -6   1   6 15.4412 2.46917  18
  -5   1   6 3.46045 1.54420  17
  -5   1   6 2.90991 1.08879   7
  -5   1   6 2.65038 1.13998  16
  -5   1   6 2.69606 1.21610  18
  -5   1   6 2.22682 0.52611  10
  -5   1   6 2.20907 0.70981  15
  -4   1   6 112.374 6.52021  10
  -4   1   6 105.867 6.66503  15
  -4   1   6 111.028 7.70516  18
  -4   1   6 98.6212 6.21615   9
  -4   1   6 107.828 7.05163  16
  -4   1   6 106.664 6.39743   2
  -4   1   6 109.517 7.61522  17
  -4   1   6 111.874 7.09434   7
  -3   1   6 40.3813 3.10297   2
  -3   1   6 43.1892 3.24067   7
  -3   1   6 44.1887 3.26278   3
  -3   1   6 37.3196 2.91881   4
  -2   1   6 403.155 23.1957   3
  -2   1   6 421.000 22.8911   7
  -2   1   6 424.792 23.2337   2
  -2   1   6 371.398 22.9478   1
   1  -1  -6 0.80977 0.54310   3
   1  -1  -6 0.09834 0.57839   1
   1  -1  -6 0.69625 0.49575   1
   1  -1  -6 -0.2571 0.55395   2
   1  -1  -6 0.28660 0.28359   5
  -1   1   6 0.78255 0.49708   1
  -1   1   6 0.56227 0.59204   2
  -1   1   6 1.04944 0.54618   1
  -1   1   6 0.68911 0.36938   7
  -1   1   6 0.39088 0.44777   3
   0  -1  -6 0.58959 0.60327   2
   0  -1  -6 0.90011 0.42903   5
   0  -1  -6 0.34645 0.43661   1
   0  -1  -6 0.87690 0.48647   1
   0  -1  -6 0.08378 0.41566   3
   0   1   6 0.36302 0.48425   1
   0   1   6 -0.0670 0.47270   2
   0   1   6 0.21885 0.45294   3
   0   1   6 -0.1018 0.36920   1
   0   1   6 -0.0759 0.23098   7
  -1  -1  -6 237.773 13.9938   5
  -1  -1  -6 239.630 14.1557   3
  -1  -1  -6 219.568 13.9021   1
  -1  -1  -6 256.128 14.2476   2
  -2  -1  -6 49.8103 3.64223   3
  -2  -1  -6 49.9377 3.88108   5
  -2  -1  -6 47.5536 3.68060   2
  -2  -1  -6 47.3126 3.61971   6
  -3  -1  -6 11.4503 1.87143  12
  -3  -1  -6 9.38083 1.27002  10
  -3  -1  -6 9.71255 1.30747   3
  -3  -1  -6 10.8151 2.17413  14
  -3  -1  -6 4.85695 1.43152  15
  -3  -1  -6 9.69199 1.83679   5
  -3  -1  -6 11.3880 1.46001   2
  -3  -1  -6 9.63809 1.23043   9
  -3  -1  -6 9.53417 1.82099  13
  -4  -1  -6 26.9341 2.82627  12
  -4  -1  -6 27.9744 2.15699  10
  -4  -1  -6 19.6503 3.10750   5
  -4  -1  -6 29.9920 3.71935  14
  -4  -1  -6 26.2818 2.95859  13
  -5  -1  -6 7.11954 2.01807  14
  -5  -1  -6 2.81130 1.12489  13
  -5  -1  -6 5.68401 1.37388  12
  -6  -1  -6 23.5455 2.65509  13
  -6  -1  -6 27.8345 3.06163  14
  -7   2   6 1.84218 0.89406  18
  -7   2   6 1.14973 0.79846  17
  -6   2   6 12.4529 2.56990  11
  -6   2   6 14.0251 2.33954  18
  -6   2   6 14.6069 2.34806  17
  -6   2   6 16.8252 1.97540  16
  -5   2   6 201.364 11.8418  10
  -5   2   6 216.837 12.5175  16
  -5   2   6 213.639 13.4590  18
  -5   2   6 195.673 12.6613   7
  -5   2   6 201.408 13.4171  11
  -5   2   6 205.553 13.2296  17
  -4   2   6 194.257 10.6886  10
  -4   2   6 178.933 10.9542   3
  -4   2   6 183.076 10.9320  16
  -4   2   6 179.562 11.0501   4
  -4   2   6 174.948 11.6733  11
  -4   2   6 169.444 10.4360   9
  -4   2   6 182.283 11.1875   7
  -4   2   6 177.652 11.5443  17
  -4   2   6 185.749 10.8514   2
  -4   2   6 178.888 11.7279  18
  -3   2   6 65.0932 4.36554   7
  -3   2   6 60.1019 4.49482   3
  -3   2   6 59.7465 4.40990   2
  -3   2   6 54.9903 4.21268   4
  -2   2   6 11.9132 1.47172   7
  -2   2   6 11.9219 1.64523   3
  -2   2   6 14.9229 1.83089   2
   1  -2  -6 168.002 10.3097   3
   1  -2  -6 160.092 10.3054   2
   1  -2  -6 159.327 9.91681   1
  -1   2   6 162.716 10.1464   1
  -1   2   6 170.334 10.2764   3
  -1   2   6 177.427 10.4474   2
  -1   2   6 158.076 9.48168   7
  -1   2   6 155.130 9.83295   1
   0  -2  -6 333.022 18.5802   3
   0  -2  -6 298.840 18.3888   1
   0  -2  -6 326.308 18.0072   5
   0  -2  -6 316.209 18.5892   2
   0   2   6 299.505 18.1227   1
  -1  -2  -6 6.44446 1.50897   2
  -1  -2  -6 7.12409 1.29512   5
  -1  -2  -6 5.77137 1.19876   3
  -2  -2  -6 97.9324 6.64164   6
  -2  -2  -6 91.6554 6.11743  10
  -2  -2  -6 90.7089 6.89390  14
  -2  -2  -6 90.3191 6.11177   9
  -2  -2  -6 94.8357 6.42144   3
  -2  -2  -6 93.6780 5.65636   8
  -2  -2  -6 102.294 6.75562   5
  -2  -2  -6 95.1377 6.50313   2
  -2  -2  -6 90.9416 6.23473  12
  -3  -2  -6 1.60696 1.17600  15
  -3  -2  -6 4.27587 1.58964  14
  -3  -2  -6 2.91190 0.91147   9
  -3  -2  -6 2.83058 1.28492  13
  -3  -2  -6 3.57247 0.98688  10
  -3  -2  -6 3.28569 1.09176   2
  -3  -2  -6 2.57924 0.86865   3
  -3  -2  -6 2.91613 1.53889   5
  -3  -2  -6 3.05804 1.46810  12
  -3  -2  -6 2.92823 1.17610   6
  -4  -2  -6 27.7012 2.25633  10
  -4  -2  -6 23.6499 3.61374   5
  -4  -2  -6 29.7211 3.82199  14
  -4  -2  -6 24.5854 2.78358  13
  -4  -2  -6 28.2815 3.04447  12
  -4  -2  -6 19.9149 2.97174  15
  -5  -2  -6 23.9371 2.75409  13
  -5  -2  -6 23.0655 2.41415  15
  -5  -2  -6 29.3616 3.57305  14
  -6  -2  -6 10.4786 1.27840  13
  -7   3   6 1.71663 0.81971  17
  -7   3   6 1.02272 1.05916  18
  -7   3   6 5.51488 1.57258  11
  -6   3   6 395.455 23.9662  11
  -6   3   6 391.737 23.6615  18
  -6   3   6 392.853 23.3794  17
  -6   3   6 410.632 21.9533  10
  -5   3   6 15.0365 2.17012   7
  -5   3   6 18.7018 2.73525  11
  -5   3   6 15.7986 1.57966  10
  -5   3   6 12.2475 2.24352  17
  -5   3   6 14.1001 2.41261  18
  -4   3   6 9.74152 1.72378   2
  -4   3   6 6.30361 1.36470   3
  -4   3   6 6.65328 1.45331   7
  -4   3   6 9.54930 1.74656   4
  -4   3   6 6.35206 1.86220  11
  -4   3   6 5.72837 1.16112   9
  -4   3   6 4.68468 1.58488  17
  -4   3   6 7.19979 1.25490  10
  -4   3   6 7.07456 1.69966  18
  -3   3   6 18.5745 2.13455   7
  -3   3   6 14.0129 2.24495  18
  -3   3   6 16.4016 2.05137  10
  -3   3   6 13.3137 1.51886   8
  -3   3   6 19.3652 2.31540   4
  -3   3   6 16.1772 2.14862   2
  -3   3   6 16.7700 2.09368   3
  -3   3   6 14.4727 2.06095   9
  -2   3   6 0.64766 0.87376   2
  -2   3   6 1.18056 0.66803   7
  -2   3   6 1.52277 0.82143   3
  -1   3   6 49.4425 4.16615   3
  -1   3   6 47.2672 4.28164   2
   0  -3  -6 211.885 13.0211   3
   0  -3  -6 205.690 13.3061   2
  -1  -3  -6 4.55573 1.47511   2
  -1  -3  -6 4.44499 1.48830  10
  -1  -3  -6 3.71666 1.19662  14
  -1  -3  -6 5.76598 1.17741   8
  -1  -3  -6 5.95529 1.32317   3
  -1  -3  -6 6.86020 1.48910   5
  -1  -3  -6 5.28151 1.33409   6
  -1  -3  -6 4.46541 1.47973   9
  -2  -3  -6 209.723 11.7300   8
  -2  -3  -6 199.217 12.2959   9
  -2  -3  -6 197.319 12.8551   5
  -2  -3  -6 215.621 12.9904   2
  -2  -3  -6 199.505 12.2823  10
  -2  -3  -6 200.068 13.1917  14
  -2  -3  -6 210.747 13.1759   6
  -2  -3  -6 198.532 12.7255   3
  -3  -3  -6 107.481 6.41432   9
  -3  -3  -6 94.9914 7.47451   5
  -3  -3  -6 109.250 8.02718  14
  -3  -3  -6 89.5107 7.12016  15
  -3  -3  -6 93.7579 6.86446  13
  -3  -3  -6 83.0323 7.26355   6
  -3  -3  -6 113.122 6.67544  10
  -4  -3  -6 16.0786 1.63091  10
  -4  -3  -6 15.7625 2.40104  15
  -4  -3  -6 15.8079 2.34024  13
  -4  -3  -6 15.7804 2.57651  14
  -5  -3  -6 35.7181 2.82444  15
  -5  -3  -6 32.3742 3.41480  14
  -5  -3  -6 34.2497 2.74892  13
  -7   4   6 0.47770 0.85792  11
  -7   4   6 0.45860 0.64769  18
  -6   4   6 64.0785 5.36643  11
  -6   4   6 61.0985 4.99123  18
  -6   4   6 58.4331 3.76009  10
  -6   4   6 59.6397 4.54680  17
  -5   4   6 143.507 9.77507  18
  -5   4   6 151.813 10.4098  11
  -5   4   6 143.010 8.74205  10
  -5   4   6 128.503 9.09273  17
  -5   4   6 146.388 8.26322   9
  -4   4   6 256.494 15.3522  11
  -4   4   6 227.230 14.4852   4
  -4   4   6 237.194 13.8854  10
  -4   4   6 235.734 13.8689   9
  -4   4   6 215.892 14.3077   2
  -4   4   6 222.435 14.5811  18
  -3   4   6 27.5693 2.40558   8
  -3   4   6 30.9310 3.14194   4
  -3   4   6 22.1815 2.68203  10
  -3   4   6 25.9964 2.79337   9
  -3   4   6 26.7640 3.21471   2
  -3   4   6 23.7000 2.84663   3
  -2   4   6 121.338 8.71070   3
  -2   4   6 122.825 9.01252   2
  -2   4   6 128.953 8.03154   8
   0  -4  -6 8.45290 1.82173   3
   0  -4  -6 8.44546 1.64449   8
  -1  -4  -6 95.8947 7.40843   2
  -1  -4  -6 104.180 6.27996   8
  -1  -4  -6 83.1384 6.77241   3
  -1  -4  -6 99.6286 7.21357   6
  -1  -4  -6 95.6893 6.82442   9
  -1  -4  -6 89.1832 6.68079  10
  -2  -4  -6 96.9271 8.01044   6
  -2  -4  -6 118.646 7.54774   9
  -2  -4  -6 106.103 7.75369  15
  -2  -4  -6 107.923 8.21160  14
  -2  -4  -6 119.436 7.47853  10
  -3  -4  -6 8.13036 2.02691  14
  -3  -4  -6 8.66579 1.96550  15
  -3  -4  -6 12.4584 1.63072  10
  -3  -4  -6 8.25330 1.25535   9
  -4  -4  -6 33.1527 3.60560  14
  -4  -4  -6 46.1148 3.46639  15
  -4  -4  -6 36.4445 2.64769  10
  -7   5   6 1.71817 0.81495  11
  -6   5   6 20.6987 2.48899  18
  -6   5   6 24.5830 1.77409  10
  -6   5   6 22.6898 2.73246  11
  -5   5   6 19.3592 2.80599  11
  -5   5   6 17.8485 1.89226  10
  -5   5   6 15.5534 2.21697  18
  -4   5   6 0.23553 1.39418  11
  -4   5   6 1.34829 1.00637  10
  -4   5   6 2.13191 1.07841   9
  -3   5   6 3.05848 1.49472   9
  -3   5   6 2.50035 1.30769   4
  -3   5   6 3.09066 0.97530   8
  -2   5   6 33.0468 3.23861   8
  -2   5   6 34.1858 3.65284   4
   1  -5  -6 48.2585 4.35659   8
   0  -5  -6 36.8473 3.74035   6
   0  -5  -6 38.5722 3.27312   8
  -1  -5  -6 23.7558 3.13683   9
  -1  -5  -6 23.1516 3.07581  10
  -2  -5  -6 53.4177 4.24035  10
  -2  -5  -6 53.0381 4.10830   9
  -2  -5  -6 49.0611 4.41649  15
  -3  -5  -6 26.8789 2.62899  15
  -3  -5  -6 22.7296 2.22906  10
  -4  -5  -6 21.7749 1.90873  15
  -6   6   6 7.97639 1.49879  11
  -6   6   6 6.66100 0.74479  10
  -5   6   6 69.2634 4.22660   9
  -5   6   6 61.0488 4.58115  10
  -5   6   6 86.4367 5.93599  11
  -4   6   6 1.07930 0.97997   9
  -4   6   6 0.64754 1.03222  11
  -4   6   6 0.86660 0.89575  10
  -3   6   6 100.243 6.60731   8
  -3   6   6 102.738 7.81075  11
  -3   6   6 110.332 7.58050   9
  -2   6   6 210.140 12.8873   8
   1  -6  -6 7.19330 1.73418   8
  -1   6   6 4.66505 1.72546   8
   0  -6  -6 -0.0666 1.66495   9
  -1  -6  -6 8.25014 1.75494   9
  -1  -6  -6 6.96745 1.41718  15
  -2  -6  -6 2.60403 0.83752  10
  -2  -6  -6 6.06358 1.24352  15
  -2  -6  -6 4.60489 0.84271   9
  -3  -6  -6 6.03025 1.01595  15
  -5   7   6 4.91849 1.23479  11
  -5   7   6 5.39265 0.84730  10
  -4   7   6 18.0984 1.87953  10
  -4   7   6 14.1214 2.00601  11
  -3   7   6 83.4799 5.59560   9
  -3   7   6 65.6099 4.44398   8
  -3   7   6 73.8636 5.63179  11
  -2   7   6 50.0168 3.65628   8
   1  -7  -6 18.0393 2.00465  15
   1  -7  -6 21.3248 2.02786   8
  -1   7   6 20.0776 2.20463   8
   0  -7  -6 0.25088 0.29680   8
   0  -7  -6 0.83917 0.99274  15
   0  -7  -6 0.53906 1.34593   9
  -1  -7  -6 83.4903 5.09358   9
  -1  -7  -6 81.0158 5.22089  15
   0   8  -7 6.82649 1.21556   8
   0  -8   7 9.65202 1.39945  16
   0  -8   7 11.5718 1.49849   9
   0  -8   7 11.0159 0.83989   8
  -1   8  -7 0.73643 0.68487   8
   1  -8   7 0.45246 0.52787  16
   1  -8   7 1.57273 0.67731   8
  -2   8  -7 9.78918 1.77334  12
  -2   8  -7 11.5233 1.13326   8
   2  -8   7 12.1108 1.36142   8
  -3   8  -7 2.90523 1.07519  12
  -4   8  -7 76.6197 4.45094   9
  -2  -7   7 5.24227 0.95656   9
  -2  -7   7 5.95920 1.03420  10
  -2  -7   7 5.30347 1.13977  16
  -1  -7   7 0.99920 0.70014  16
  -1  -7   7 0.96993 0.95939   9
  -1  -7   7 0.92835 0.40562   8
   0  -7   7 91.5590 5.85704   8
  -1   7  -7 34.8805 3.03130   8
   1  -7   7 36.9089 3.02760   8
  -2   7  -7 1.58305 0.73881   8
  -3   7  -7 61.4631 4.27091   9
  -3   7  -7 47.1085 3.40963   8
  -3   7  -7 60.1878 4.70303  12
  -4   7  -7 47.0395 3.30676   9
  -4   7  -7 48.6813 3.35943  10
  -4   7  -7 45.1434 3.90409  12
  -5   7  -7 39.7616 3.09441  12
  -5   7  -7 33.6421 2.53636  10
  -4  -6   7 21.6817 2.07322  16
  -4  -6   7 20.8012 1.42184  10
  -3  -6   7 22.2442 1.35793   9
  -2  -6   7 44.9519 3.80376  16
  -2  -6   7 48.5944 3.59308   9
  -2  -6   7 42.6993 3.46673  10
  -1  -6   7 4.14253 1.15579  16
  -1  -6   7 3.05187 1.19008   9
  -1  -6   7 3.56359 0.91231   8
   0  -6   7 41.9243 3.23949   8
  -1   6  -7 17.6271 1.95039   8
  -2   6  -7 1.29620 0.71357   8
  -2   6  -7 0.78514 0.98244   9
  -3   6  -7 376.138 22.3853   8
  -3   6  -7 418.952 23.6447  12
  -3   6  -7 417.890 22.9214   9
  -3   6  -7 381.495 22.6945  10
  -4   6  -7 31.8060 3.34981  12
  -4   6  -7 32.9348 2.71857   9
  -4   6  -7 27.9887 2.50763  10
  -5   6  -7 30.6449 2.37134  10
  -5   6  -7 33.2864 3.18184  12
  -6   6  -7 -0.0849 0.63265  12
  -4  -5   7 23.1412 2.40655  16
  -4  -5   7 18.7072 1.67380  10
  -3  -5   7 211.871 13.0598  16
  -3  -5   7 214.065 12.3314  10
  -3  -5   7 204.019 12.2802   9
  -2  -5   7 0.27588 0.83735  10
  -2  -5   7 0.74744 1.06968  16
  -2  -5   7 0.79395 0.57625   9
  -2  -5   7 -0.1497 0.45185   8
  -1  -5   7 66.4198 4.89051   9
  -1  -5   7 70.2281 4.59761   8
  -1  -5   7 66.1760 5.37246   2
   0  -5   7 40.1596 3.17629   8
  -1   5  -7 42.2503 3.34894   8
  -2   5  -7 272.151 14.6972   8
  -2   5  -7 252.164 14.9964   9
  -2   5  -7 224.409 16.6821   3
  -2   5  -7 253.356 15.5169   2
  -3   5  -7 108.317 7.62306  12
  -3   5  -7 109.044 6.83027  10
  -3   5  -7 113.241 7.04347   9
  -3   5  -7 101.861 6.60821   8
  -3   5  -7 106.352 7.55318   2
  -4   5  -7 46.7814 4.25135  12
  -4   5  -7 44.0796 3.24257  10
  -4   5  -7 34.1288 4.04584  13
  -4   5  -7 46.3523 3.41298   9
  -5   5  -7 128.559 8.03580  12
  -5   5  -7 91.6616 7.12832  11
  -5   5  -7 116.008 6.83058  10
  -6   5  -7 4.35974 1.46927  12
  -6   5  -7 3.42696 0.99554  11
  -5  -4   7 12.5379 1.32820  15
  -5  -4   7 15.7849 2.14061  16
  -4  -4   7 43.4539 3.25220  15
  -4  -4   7 45.2990 4.31747  17
  -4  -4   7 45.8622 3.18177  10
  -4  -4   7 44.1497 3.95663  16
  -3  -4   7 22.7255 2.79359  16
  -3  -4   7 21.8288 2.18149   9
  -3  -4   7 23.6436 2.27417   6
  -3  -4   7 25.8893 2.20145  10
  -3  -4   7 22.7509 3.13310  17
  -2  -4   7 0.56387 0.71611   9
  -2  -4   7 -0.0956 0.74021  10
  -2  -4   7 0.87185 0.50269   8
  -2  -4   7 0.56921 0.64158   6
  -2  -4   7 0.23087 0.92945   3
  -2  -4   7 -0.6643 0.83424   7
  -2  -4   7 0.73525 0.83376  16
  -2  -4   7 0.58097 0.81586   2
  -1  -4   7 5.27664 1.30181   2
  -1  -4   7 4.15875 1.58532   3
  -1  -4   7 4.21436 0.93817   6
  -1  -4   7 4.17487 0.89579   8
  -1  -4   7 3.85643 1.17489   9
  -1   4  -7 143.562 9.24849   2
  -1   4  -7 133.404 10.2372   3
  -2   4  -7 13.3863 1.97047   2
  -2   4  -7 10.0089 1.69747   9
  -2   4  -7 9.92181 2.25033   3
  -2   4  -7 11.1987 1.37873   8
  -2   4  -7 12.0982 1.30594   4
  -3   4  -7 111.093 6.81013  10
  -3   4  -7 113.164 6.59481   8
  -3   4  -7 112.037 7.40554   2
  -3   4  -7 115.703 7.49910   5
  -3   4  -7 104.565 8.13884   3
  -3   4  -7 107.375 6.89156   4
  -3   4  -7 101.378 6.89941   9
  -3   4  -7 106.927 7.53823  12
  -4   4  -7 44.6655 3.43556   4
  -4   4  -7 42.0808 3.60876  11
  -4   4  -7 38.9411 4.33774  13
  -4   4  -7 44.3676 3.24377   9
  -4   4  -7 50.6065 4.36361  12
  -4   4  -7 49.4637 3.32000  10
  -4   4  -7 44.7550 3.75223   2
  -5   4  -7 2.02717 1.71225  13
  -5   4  -7 4.23214 0.83705  10
  -5   4  -7 5.46975 1.53295  12
  -5   4  -7 3.11697 1.04180  11
  -6   4  -7 95.3961 7.57181  13
  -6   4  -7 131.950 7.94771  12
  -6   4  -7 126.452 7.67761  11
  -7   4  -7 0.28113 0.68418  11
  -7   4  -7 0.14109 0.55805  12
  -6  -3   7 6.57192 0.92753  15
  -6  -3   7 9.47203 1.48492  16
  -5  -3   7 106.972 6.59372  15
  -5  -3   7 118.712 7.48308  16
  -5  -3   7 108.624 7.59812  17
  -5  -3   7 95.7395 6.02228  10
  -4  -3   7 222.730 12.7418  10
  -4  -3   7 220.909 13.7122  16
  -4  -3   7 210.632 13.2876   6
  -4  -3   7 217.424 12.9006  15
  -4  -3   7 224.720 14.1404  17
  -3  -3   7 -0.0306 0.60517   3
  -3  -3   7 -0.1774 0.52923  10
  -3  -3   7 0.22079 0.93894   7
  -3  -3   7 -0.2861 0.57009   6
  -3  -3   7 -0.1241 0.61425  16
  -3  -3   7 0.05645 0.53112   9
  -3  -3   7 -0.2251 0.77818   2
  -3  -3   7 0.15044 0.51050  15
  -3  -3   7 0.98488 1.21972  17
  -2  -3   7 341.971 19.2799  10
  -2  -3   7 325.259 19.6463  16
  -2  -3   7 326.171 19.4434   9
  -2  -3   7 344.931 20.6382   3
  -2  -3   7 359.522 19.7795   7
  -2  -3   7 357.916 19.5420   6
  -2  -3   7 327.493 19.1012   8
  -1  -3   7 229.640 14.8858   3
  -1  -3   7 238.712 14.0374   2
  -1  -3   7 233.390 13.4774   6
   0  -3   7 48.2213 4.44395   3
   0  -3   7 44.3631 3.59983   2
  -1   3  -7 108.843 7.73982   3
  -1   3  -7 94.9419 5.97144   4
  -1   3  -7 102.915 6.74711   2
  -2   3  -7 0.50013 0.80686   3
  -2   3  -7 0.76714 0.44694   4
  -2   3  -7 1.30561 0.72519   2
  -3   3  -7 2.98940 0.66159  10
  -3   3  -7 2.57637 1.37719  12
  -3   3  -7 4.31505 0.88233   4
  -3   3  -7 1.63365 0.92399  11
  -3   3  -7 5.35625 1.36713   2
  -3   3  -7 2.65793 1.11183   3
  -3   3  -7 2.66122 0.92310   9
  -3   3  -7 3.80984 1.31074   5
  -3   3  -7 3.93269 0.61480   8
  -4   3  -7 31.1760 3.13347   3
  -4   3  -7 34.5581 3.25772  11
  -4   3  -7 39.1781 2.56168   9
  -4   3  -7 37.1139 2.91841   4
  -4   3  -7 39.0320 2.88332   2
  -4   3  -7 37.7344 2.79971  10
  -4   3  -7 35.7608 3.72585  12
  -4   3  -7 28.8978 3.72666  13
  -5   3  -7 17.0925 1.44083  10
  -5   3  -7 17.3467 2.41375  12
  -5   3  -7 18.6813 2.35457  11
  -5   3  -7 16.9399 2.71679  13
  -6   3  -7 2.91492 1.02632  12
  -6   3  -7 1.87426 1.11220  11
  -6   3  -7 1.55128 1.48563  13
  -7   3  -7 47.5632 3.54451  13
  -6  -2   7 1.97724 0.73726  15
  -6  -2   7 3.38579 1.18382  16
  -6  -2   7 3.33337 1.46185  17
  -5  -2   7 21.7192 2.04425  15
  -5  -2   7 19.1840 1.51288  10
  -5  -2   7 21.2605 2.62907  16
  -5  -2   7 20.9270 2.79095  17
  -4  -2   7 163.420 10.4832  16
  -4  -2   7 164.359 9.82193  15
  -4  -2   7 162.205 10.3121   7
  -4  -2   7 156.364 10.0819   6
  -4  -2   7 161.426 9.64743  10
  -4  -2   7 167.875 11.0076  17
  -3  -2   7 38.1610 2.92734   2
  -3  -2   7 34.8878 3.02999   7
  -3  -2   7 33.2328 3.03312   3
  -3  -2   7 32.9949 3.08962  16
  -3  -2   7 32.9350 2.73992   6
  -3  -2   7 29.8427 3.36609  17
  -3  -2   7 28.7231 2.53173  15
  -3  -2   7 31.6440 2.49586   9
  -3  -2   7 34.7161 2.54834  10
  -2  -2   7 23.5567 2.59288   3
  -2  -2   7 22.5367 1.93812   6
  -2  -2   7 21.1038 2.03852   7
  -2  -2   7 21.8513 2.22836   2
  -1  -2   7 93.6992 5.81274   6
  -1  -2   7 103.253 7.04964   3
  -1  -2   7 87.0012 6.10101   1
  -1  -2   7 101.024 6.43998   2
   0   2  -7 39.2386 3.05946   1
   0   2  -7 41.4172 3.25573   2
   0   2  -7 42.1640 3.87748   3
   0   2  -7 38.5908 3.24203   1
   0  -2   7 43.1399 3.79755   3
   0  -2   7 38.4060 3.19097   1
   0  -2   7 41.9052 3.27067   2
   0  -2   7 38.6774 3.03547   1
  -1   2  -7 8.56058 0.88578   4
  -1   2  -7 7.88493 1.35773   2
  -1   2  -7 8.57539 1.79330   3
  -1   2  -7 5.93960 1.05295   1
   1  -2   7 5.47732 1.13928   1
  -2   2  -7 258.759 15.0877   2
  -2   2  -7 245.832 14.4488   4
  -2   2  -7 250.836 15.6302   3
  -2   2  -7 259.270 14.8524   5
  -3   2  -7 1.84832 0.85802   5
  -3   2  -7 3.07034 1.25946  13
  -3   2  -7 2.32717 0.62570   4
  -3   2  -7 1.90197 0.67609   9
  -3   2  -7 2.03925 0.81992   3
  -3   2  -7 2.25038 1.01838  12
  -3   2  -7 3.24734 0.90922   2
  -3   2  -7 1.96891 0.92389  11
  -3   2  -7 1.70272 0.68091  10
  -4   2  -7 34.8207 3.26879  12
  -4   2  -7 24.6641 3.49626   5
  -4   2  -7 31.5457 2.35138   2
  -4   2  -7 27.8822 2.13691   9
  -4   2  -7 33.4774 3.76988  13
  -4   2  -7 37.0858 3.06390  11
  -4   2  -7 32.0628 2.32646  10
  -4   2  -7 35.2960 2.81698   4
  -4   2  -7 29.4135 2.38377   3
  -5   2  -7 113.381 6.61048  10
  -5   2  -7 102.205 8.50821   5
  -5   2  -7 117.690 7.77363  12
  -5   2  -7 111.325 8.37742  13
  -5   2  -7 113.222 7.67887  11
  -6   2  -7 206.727 13.4626  11
  -6   2  -7 239.224 13.4827  12
  -6   2  -7 218.917 14.0445  13
  -7   2  -7 11.0572 1.36405  12
  -7   2  -7 12.4171 1.52328  13
  -7  -1   7 31.4277 2.41533  16
  -7  -1   7 27.0179 2.52292  17
  -6  -1   7 53.8296 4.14894  16
  -6  -1   7 54.2572 4.67749  17
  -6  -1   7 54.4221 3.82594  15
  -5  -1   7 143.374 8.53403  10
  -5  -1   7 156.780 9.16422  15
  -5  -1   7 150.951 10.3255  17
  -5  -1   7 159.186 9.73007  16
  -5  -1   7 136.519 9.52243   7
  -4  -1   7 11.3442 1.59916   6
  -4  -1   7 11.2027 1.79963  16
  -4  -1   7 9.94841 0.78601   2
  -4  -1   7 10.3175 1.67352   7
  -4  -1   7 11.6182 1.22065  10
  -4  -1   7 10.8619 1.98142  18
  -4  -1   7 10.2582 1.26020  15
  -4  -1   7 8.26058 0.72708   3
  -4  -1   7 9.42327 0.75103   9
  -4  -1   7 13.1078 2.44971  17
  -3  -1   7 393.356 22.8252   9
  -3  -1   7 398.156 23.3246   7
  -3  -1   7 418.677 23.1355   6
  -3  -1   7 436.666 23.2364   2
  -3  -1   7 404.248 22.9504  10
  -3  -1   7 412.883 23.5461   3
  -3  -1   7 383.006 23.7900  17
  -2  -1   7 78.4800 5.34521   7
  -2  -1   7 85.8194 5.99552   3
  -2  -1   7 83.3090 5.61702   2
  -2  -1   7 86.8214 5.28796   6
   1   1  -7 176.351 10.4801   1
   1   1  -7 167.534 10.4499   1
  -1  -1   7 183.609 10.6643   2
  -1  -1   7 189.044 11.0649   3
  -1  -1   7 163.871 10.3741   1
  -1  -1   7 158.157 10.3274   1
   0   1  -7 7.40957 1.48149   3
   0   1  -7 6.08612 1.08233   1
   0   1  -7 6.97207 1.12876   1
   0   1  -7 6.84768 1.26504   2
   0  -1   7 7.11397 1.19717   1
   0  -1   7 6.29525 1.22095   2
   0  -1   7 8.68820 1.60008   3
   0  -1   7 6.37941 1.06400   1
  -1   1  -7 9.13360 1.24765   1
  -1   1  -7 10.2113 1.12562   5
  -1   1  -7 6.19716 1.20712   1
  -1   1  -7 9.10885 1.38529   2
  -1   1  -7 9.70170 1.65830   3
   1  -1   7 6.20016 1.13390   1
  -2   1  -7 1.18430 0.61728   5
  -2   1  -7 1.53953 0.63454   2
  -2   1  -7 1.08034 0.65879   3
  -3   1  -7 103.619 6.24596  10
  -3   1  -7 104.609 7.24896   5
  -3   1  -7 99.2496 7.08916  13
  -3   1  -7 109.737 6.61422   2
  -3   1  -7 97.8567 6.25670   9
  -3   1  -7 98.4771 6.97162  12
  -3   1  -7 102.808 6.89493  11
  -3   1  -7 108.901 7.08834   3
  -4   1  -7 2.27293 1.36873  13
  -4   1  -7 1.36122 1.02990  14
  -4   1  -7 3.19882 1.26057  11
  -4   1  -7 1.24753 1.16212  12
  -4   1  -7 2.25451 0.63982  10
  -4   1  -7 3.08001 1.57705   5
  -5   1  -7 13.1990 2.15315  11
  -5   1  -7 13.9435 1.92593  12
  -5   1  -7 10.6607 2.35662  14
  -5   1  -7 9.86991 2.28399  13
  -5   1  -7 11.5096 0.99680  10
  -6   1  -7 22.8472 2.33128  12
  -7   1  -7 12.0675 1.67064  13
  -7   1  -7 16.7448 1.51725  12
  -7   0   7 14.9726 2.19890  17
  -7   0   7 16.3861 1.63044  16
  -6   0   7 28.4004 2.43949  15
  -6   0   7 29.6175 3.42513  17
  -6   0   7 23.0078 2.96350  18
  -6   0   7 30.1349 2.66510  16
  -5   0   7 17.2386 2.10345  16
  -5   0   7 24.0745 3.42346  17
  -5   0   7 17.0906 2.65143  18
  -5   0   7 20.1504 1.87661  15
  -5   0   7 14.0256 2.16901   7
  -5   0   7 18.0674 1.48316  10
  -4   0   7 144.670 9.26230  16
  -4   0   7 141.623 8.64634   3
  -4   0   7 149.536 9.39306   7
  -4   0   7 148.370 10.0081  17
  -4   0   7 138.260 8.32053   9
  -4   0   7 148.655 8.50595   2
  -4   0   7 151.637 8.68991  10
  -4   0   7 147.028 9.85051  18
  -4   0   7 148.953 8.85410  15
  -3   0   7 78.9565 5.47478   7
  -3   0   7 81.4465 5.69399   3
  -3   0   7 80.4709 5.40656   2
  -2   0   7 545.887 33.4527   7
  -2   0   7 630.236 33.8426   2
  -2   0   7 623.612 34.0552   3
   1   0  -7 1943.61 107.729   1
   1   0  -7 1993.80 107.798   1
   1   0  -7 1851.22 107.924   2
   1   0  -7 1913.95 108.190   3
  -1   0   7 1858.45 107.697   1
  -1   0   7 2030.78 107.774   1
  -1   0   7 2081.62 108.021   2
  -1   0   7 1992.64 108.857   3
  -1   0   7 2002.01 107.433   7
   0   0  -7 22.9734 2.18445   2
   0   0  -7 22.4758 2.03120   1
   0   0  -7 28.8563 2.45028   3
   0   0  -7 22.9717 2.03659   1
   0   0  -7 22.4938 1.82015   5
   0   0   7 22.9271 2.04531   1
   0   0   7 23.1070 2.02715   1
   0   0   7 23.1637 2.19514   2
   0   0   7 24.7934 2.28842   3
  -1   0  -7 335.980 20.5501   1
  -1   0  -7 385.751 21.0326   3
  -1   0  -7 367.887 20.5991   5
  -1   0  -7 373.143 20.7480   2
   1   0   7 343.891 20.5603   1
  -2   0  -7 681.742 37.6129   2
  -2   0  -7 675.608 37.8033   3
  -2   0  -7 650.075 37.7820   5
  -3   0  -7 19.9241 2.54503  11
  -3   0  -7 15.5529 2.68495  14
  -3   0  -7 15.2671 1.71183   2
  -3   0  -7 12.5420 2.18039  13
  -3   0  -7 12.5531 1.80828  12
  -3   0  -7 12.6653 1.62383   9
  -3   0  -7 14.8458 2.38117   5
  -3   0  -7 14.1580 1.47102  10
  -3   0  -7 12.6936 1.72012   3
  -4   0  -7 170.518 11.5360  14
  -4   0  -7 163.096 10.8776  13
  -4   0  -7 173.885 10.8400  11
  -4   0  -7 168.424 10.4861  12
  -4   0  -7 146.548 10.9577   5
  -4   0  -7 159.790 9.69881  10
  -5   0  -7 13.4641 2.77600  14
  -5   0  -7 13.6612 2.36661  13
  -5   0  -7 14.9705 2.20412  12
  -6   0  -7 28.3704 2.91105  13
  -6   0  -7 27.6988 3.40923  14
  -6   0  -7 31.1989 2.67746  12
  -7   1   7 10.2936 1.67792  18
  -7   1   7 7.70535 1.68100  17
  -7   1   7 10.4836 1.26631  16
  -6   1   7 111.702 8.12015  17
  -6   1   7 109.551 7.29007  16
  -6   1   7 114.835 8.05526  18
  -5   1   7 110.367 8.23452  18
  -5   1   7 115.248 8.27654  17
  -5   1   7 114.943 7.39743  16
  -5   1   7 111.927 6.68586  10
  -5   1   7 102.424 7.53677   7
  -4   1   7 68.8542 5.54483  18
  -4   1   7 69.6363 4.79647  16
  -4   1   7 58.6786 5.32852  17
  -4   1   7 72.8848 4.53923   2
  -4   1   7 66.5042 4.89034   7
  -4   1   7 64.4658 4.21934   9
  -4   1   7 67.8535 4.42824  10
  -4   1   7 64.7542 4.50369  15
  -3   1   7 110.972 7.14307   4
  -3   1   7 117.488 7.46324   2
  -3   1   7 109.845 7.34877   7
  -3   1   7 117.557 7.44377   3
  -2   1   7 104.824 6.60142   7
  -2   1   7 102.574 6.96950   2
  -2   1   7 105.960 6.92729   3
   1  -1  -7 0.47166 0.62454   1
   1  -1  -7 0.51147 0.57696   1
   1  -1  -7 0.48115 0.76088   2
   1  -1  -7 0.71372 0.39786   5
   1  -1  -7 0.90516 0.72589   3
  -1   1   7 1.43521 0.71231   3
  -1   1   7 1.51824 0.78422   2
  -1   1   7 1.02157 0.62789   1
  -1   1   7 0.99583 0.52698   1
  -1   1   7 0.74231 0.39219   7
   0  -1  -7 9.01081 1.46849   3
   0  -1  -7 7.88173 1.32418   1
   0  -1  -7 7.87930 1.28536   1
   0  -1  -7 8.91426 1.52654   2
   0  -1  -7 8.08892 1.18366   5
   0   1   7 7.11305 1.40082   3
   0   1   7 6.10211 1.15810   1
   0   1   7 5.62037 1.30481   2
   0   1   7 8.27277 0.83951   7
   0   1   7 7.13693 1.28010   1
  -1  -1  -7 64.8249 4.76188   5
  -1  -1  -7 67.6969 5.02244   2
  -1  -1  -7 70.3571 4.98239   3
  -2  -1  -7 214.743 12.0875   3
  -2  -1  -7 204.553 12.1831   2
  -2  -1  -7 171.290 11.8482   6
  -2  -1  -7 197.252 12.2670   5
  -3  -1  -7 38.2698 3.11085  10
  -3  -1  -7 42.0482 3.38067   3
  -3  -1  -7 38.6671 3.80947   5
  -3  -1  -7 41.9228 3.46560  12
  -3  -1  -7 40.7474 3.14714   9
  -3  -1  -7 48.3347 3.55101   2
  -3  -1  -7 48.9824 4.50069  14
  -3  -1  -7 34.3117 3.71350  13
  -4  -1  -7 0.26786 1.32679  14
  -4  -1  -7 0.67813 0.94852  13
  -4  -1  -7 -0.2582 0.81196  12
  -4  -1  -7 -0.8675 1.55371   5
  -4  -1  -7 0.40804 0.62912  10
  -5  -1  -7 10.0803 1.66876  12
  -5  -1  -7 11.5334 2.47780  14
  -5  -1  -7 11.5093 1.97979  13
  -6  -1  -7 64.9162 4.15554  13
  -6  -1  -7 43.3828 4.31090  14
  -7   2   7 3.90520 1.27613  18
  -7   2   7 5.29240 1.27066  17
  -6   2   7 2.22162 1.13303  17
  -6   2   7 2.35121 0.77295  16
  -6   2   7 2.01894 1.31744  18
  -5   2   7 443.439 23.9567  10
  -5   2   7 440.456 24.3695  16
  -5   2   7 431.060 25.5847  18
  -5   2   7 393.129 25.4238  11
  -5   2   7 418.135 25.2627  17
  -4   2   7 55.2391 4.07215   2
  -4   2   7 51.3490 5.04973  11
  -4   2   7 53.7394 3.81824   9
  -4   2   7 49.9865 4.15357   4
  -4   2   7 51.7346 4.03990   3
  -4   2   7 51.8826 4.72271  17
  -4   2   7 54.0944 3.87126  10
  -4   2   7 55.8221 3.95254  16
  -4   2   7 56.6257 4.35617   7
  -4   2   7 56.7116 4.81759  18
  -3   2   7 99.2670 6.65103  10
  -3   2   7 98.7263 6.22382   8
  -3   2   7 108.944 7.16232   2
  -3   2   7 107.406 6.89473   4
  -3   2   7 114.436 6.91604   7
  -3   2   7 105.670 7.03914   3
  -3   2   7 93.9562 6.62424   9
  -3   2   7 102.703 7.36876  18
  -2   2   7 56.8570 4.50545   3
  -2   2   7 53.8819 4.51000   2
  -2   2   7 52.7875 3.82956   7
   1  -2  -7 5.63200 1.32430   1
  -1   2   7 8.02437 1.62160   2
  -1   2   7 10.3326 1.17846   7
  -1   2   7 8.81671 1.68224   3
   0  -2  -7 528.045 28.5990   2
   0  -2  -7 414.705 28.3905   1
   0  -2  -7 530.217 28.4806   3
   0  -2  -7 487.950 27.7014   5
  -1  -2  -7 42.5725 3.65116   5
  -1  -2  -7 47.3689 4.09461   2
  -1  -2  -7 47.5596 3.95690   3
  -2  -2  -7 8.54294 1.47977   3
  -2  -2  -7 9.28638 1.95595   2
  -2  -2  -7 4.47505 1.50297  13
  -2  -2  -7 8.69114 1.16107   8
  -2  -2  -7 6.73877 1.41210  10
  -2  -2  -7 10.2902 1.93812   6
  -2  -2  -7 7.16818 1.46472   9
  -2  -2  -7 6.62549 1.80651  14
  -2  -2  -7 8.86592 1.69743  12
  -2  -2  -7 10.6762 1.94934   5
  -3  -2  -7 95.6404 6.06160   9
  -3  -2  -7 98.8198 6.31218  10
  -3  -2  -7 82.2580 6.59706  13
  -3  -2  -7 97.3693 6.58861   2
  -3  -2  -7 87.7338 6.19992   3
  -3  -2  -7 93.2162 7.25937   5
  -3  -2  -7 96.8806 6.48565  12
  -3  -2  -7 107.818 7.90112  14
  -3  -2  -7 87.2549 6.63422  15
  -4  -2  -7 45.7442 4.11234  15
  -4  -2  -7 42.5559 3.99056  13
  -4  -2  -7 51.8962 3.54066  10
  -4  -2  -7 51.7207 5.36833  14
  -5  -2  -7 7.34679 1.59038  13
  -5  -2  -7 7.39124 1.26778  15
  -5  -2  -7 6.73833 1.78197  14
  -6  -2  -7 2.14138 0.90362  14
  -6  -2  -7 2.30268 0.66850  13
  -7   3   7 45.8325 3.83650  18
  -7   3   7 49.0748 3.59842  17
  -6   3   7 106.474 8.72226  11
  -6   3   7 129.083 7.17564  10
  -6   3   7 120.312 8.38250  17
  -6   3   7 142.025 9.04489  18
  -5   3   7 3.38680 1.80588  11
  -5   3   7 1.73306 1.23852   7
  -5   3   7 3.10147 1.44659  17
  -5   3   7 3.70024 1.49742  18
  -5   3   7 3.15014 0.91200  10
  -4   3   7 6.09049 1.70684  18
  -4   3   7 4.01533 1.18596   7
  -4   3   7 5.72264 1.60955   2
  -4   3   7 3.00454 1.43401  17
  -4   3   7 5.99226 1.76044  11
  -4   3   7 5.23108 1.61862   4
  -4   3   7 5.74772 1.38651   3
  -4   3   7 5.21226 1.21131  10
  -4   3   7 6.12979 1.18961   9
  -3   3   7 34.4114 3.16079   4
  -3   3   7 33.3246 3.43480   2
  -3   3   7 30.3744 2.45561   8
  -3   3   7 28.4832 2.71839   7
  -3   3   7 28.8973 2.78037   9
  -3   3   7 28.3794 2.89083  10
  -3   3   7 26.0632 3.01468  18
  -3   3   7 28.8153 3.09408   3
  -2   3   7 3.06512 0.85853   7
  -2   3   7 4.48030 1.29159   3
  -2   3   7 4.64594 1.20186   8
  -2   3   7 4.79865 1.56514   2
   0  -3  -7 13.4721 2.23920   8
   0  -3  -7 19.6912 2.32086   3
   0  -3  -7 18.8107 2.95294   2
  -1  -3  -7 169.723 11.0141   3
  -1  -3  -7 157.731 10.5692   5
  -1  -3  -7 169.175 11.0293   6
  -1  -3  -7 168.058 10.6904   9
  -1  -3  -7 181.723 10.3208   8
  -1  -3  -7 145.000 10.5193  10
  -1  -3  -7 170.569 11.2400  14
  -1  -3  -7 187.037 11.5566   2
  -2  -3  -7 231.446 14.0163   2
  -2  -3  -7 203.974 12.3610   8
  -2  -3  -7 215.005 13.5093   3
  -2  -3  -7 229.598 13.2276  10
  -2  -3  -7 227.469 14.2877  14
  -2  -3  -7 218.313 13.1588   9
  -2  -3  -7 201.414 13.7883   6
  -2  -3  -7 203.103 13.5849   5
  -3  -3  -7 25.5521 3.34571  14
  -3  -3  -7 22.1567 2.17381   9
  -3  -3  -7 20.0825 2.66081  13
  -3  -3  -7 20.6231 2.29057  10
  -3  -3  -7 18.0777 2.97043   6
  -3  -3  -7 21.7386 2.95480  15
  -4  -3  -7 95.0276 6.57400  13
  -4  -3  -7 99.1602 7.70874  14
  -4  -3  -7 97.0916 6.23293  10
  -4  -3  -7 106.942 6.89074  15
  -5  -3  -7 4.14345 1.32476  14
  -5  -3  -7 6.19877 0.97629  13
  -5  -3  -7 8.77523 1.17446  15
  -7   4   7 4.78113 1.01634  18
  -7   4   7 0.79164 0.72183  11
  -6   4   7 90.2828 6.52712  18
  -6   4   7 92.8282 5.28139  10
  -6   4   7 78.5600 6.53471  11
  -6   4   7 83.8147 5.91596  17
  -5   4   7 111.573 7.02076  10
  -5   4   7 105.464 7.95745  18
  -5   4   7 110.657 6.50907   9
  -5   4   7 106.571 8.51417  11
  -4   4   7 175.756 10.9475  10
  -4   4   7 164.961 11.5984  18
  -4   4   7 179.915 10.9231   9
  -4   4   7 183.462 12.4026  11
  -4   4   7 178.767 11.6102   4
  -3   4   7 230.507 13.9856   4
  -3   4   7 203.937 14.0975   3
  -3   4   7 218.812 14.4264   2
  -3   4   7 211.515 13.5710   9
  -3   4   7 237.855 13.1665   8
  -3   4   7 221.261 13.5387  10
  -2   4   7 60.4713 4.57811   8
   0  -4  -7 42.2311 3.70589   8
  -1  -4  -7 0.13825 1.34624   9
  -1  -4  -7 -0.0234 0.88893   6
  -1  -4  -7 0.76320 0.79805   8
  -1  -4  -7 0.41212 1.82571   2
  -1  -4  -7 0.79967 1.48116  10
  -1  -4  -7 0.02111 1.08449   3
  -2  -4  -7 39.3148 3.59545  15
  -2  -4  -7 38.8019 3.57025  10
  -2  -4  -7 38.1846 3.61144   9
  -2  -4  -7 35.0650 3.98160  14
  -3  -4  -7 6.29304 1.30644  10
  -3  -4  -7 4.47204 0.89205   9
  -3  -4  -7 4.40258 1.29558  15
  -3  -4  -7 4.20218 1.53530  14
  -4  -4  -7 4.63100 0.73233  10
  -4  -4  -7 5.86803 1.34742  15
  -4  -4  -7 3.88115 1.42821  14
  -6   5   7 8.47356 0.92892  10
  -6   5   7 9.51657 1.52129  18
  -6   5   7 4.99543 1.35234  11
  -5   5   7 23.4958 1.92220   9
  -5   5   7 20.3220 2.83899  18
  -5   5   7 27.6097 2.40204  10
  -5   5   7 22.1436 3.31901  11
  -4   5   7 71.3353 5.28827   9
  -4   5   7 72.6603 5.38333  10
  -4   5   7 67.9097 6.26044  11
  -3   5   7 66.7089 4.71874   8
  -3   5   7 65.3070 5.45172   9
  -2   5   7 44.3100 4.34256   4
  -2   5   7 42.6198 3.88931   8
   1  -5  -7 27.6088 3.45577   8
   0  -5  -7 16.9328 2.21463   8
   0  -5  -7 11.6301 2.21250   6
  -1  -5  -7 149.023 9.98223   9
  -2  -5  -7 2.97968 1.31027  10
  -2  -5  -7 2.83005 1.24158  15
  -2  -5  -7 2.00432 1.09093   9
  -3  -5  -7 150.279 9.98503  10
  -3  -5  -7 192.069 10.5125  15
  -6   6   7 8.82509 0.75317  10
  -6   6   7 6.68632 1.28255  11
  -5   6   7 11.3844 0.93933   9
  -5   6   7 12.8949 1.51855  10
  -5   6   7 7.74229 1.89440  11
  -4   6   7 132.086 9.21105  11
  -4   6   7 131.038 8.23460   9
  -4   6   7 123.293 8.32310  10
  -3   6   7 22.8832 2.92890   9
  -3   6   7 15.5987 1.69965   8
  -2   6   7 28.5436 2.97476   8
   1  -6  -7 -0.3615 1.21574   8
  -1   6   7 0.51701 1.06023   8
   0  -6  -7 0.50980 1.76156   9
  -1  -6  -7 1.58143 1.22409   9
  -1  -6  -7 2.64022 1.10785  15
  -2  -6  -7 18.7496 1.34489   9
  -4   7   7 0.22114 0.83530  11
  -3   7   7 351.346 19.8333   9
  -3   7   7 349.667 20.2371  11
  -3   7   7 325.668 18.9041   8
  -2   7   7 6.55557 1.42579  11
  -2   7   7 11.3464 1.29420   8
   1  -7  -7 103.693 6.32832  15
   1  -7  -7 93.9855 6.01298   8
  -1   7   7 95.7625 6.36153   8
   0  -7  -7 20.7180 1.94555  15
   0   8  -8 -0.1871 0.53704   8
   0  -8   8 0.33205 0.55361  16
   0  -8   8 0.40910 1.05518   9
  -1   8  -8 18.8290 1.61748   8
  -1   8  -8 17.1094 1.87316  12
   1  -8   8 19.1147 1.64703   8
   1  -8   8 14.6482 1.57675  16
  -2   8  -8 0.65917 0.77799  12
  -2   8  -8 1.77909 0.46463   8
  -2   8  -8 2.78187 1.36471   9
   2  -8   8 1.97424 0.92955   8
  -3   8  -8 0.65058 0.66138   9
  -3   8  -8 0.22638 0.68696  12
  -2  -7   8 40.8837 2.79863   9
  -2  -7   8 41.9863 3.12160  16
  -2  -7   8 36.0367 2.80672  10
  -1  -7   8 20.9094 1.40584   8
  -1  -7   8 23.4530 2.27970   9
  -1  -7   8 22.1382 2.18691  16
   0  -7   8 24.0424 2.06567   8
   0  -7   8 22.3681 2.24115  16
  -1   7  -8 43.8093 3.51227   8
   1  -7   8 48.2380 3.58595   8
  -2   7  -8 76.5360 5.07725   8
  -2   7  -8 75.6168 5.69014   9
  -2   7  -8 76.9453 5.67164  12
  -3   7  -8 29.1226 2.53529   9
  -3   7  -8 30.0727 3.05738  12
  -3   7  -8 22.1652 1.66530   8
  -4   7  -8 8.02902 1.03579   9
  -4   7  -8 3.66193 1.16419  12
  -5   7  -8 14.1913 1.65025  12
  -4  -6   8 -0.1967 0.60998  16
  -3  -6   8 20.5920 1.77248  10
  -3  -6   8 20.1279 2.35798  16
  -2  -6   8 9.01715 1.72803  16
  -2  -6   8 9.84924 1.55136  10
  -2  -6   8 9.33451 1.47189   9
  -1  -6   8 0.47808 0.48861   8
  -1  -6   8 0.65775 0.90136  16
  -1  -6   8 0.50013 0.75199   9
  -1   6  -8 4.16859 1.18723   8
  -2   6  -8 107.955 7.73446   9
  -2   6  -8 120.458 7.97904  12
  -2   6  -8 119.565 7.36714   8
  -3   6  -8 187.779 11.2764   9
  -3   6  -8 187.362 11.8519  12
  -3   6  -8 184.430 11.1074  10
  -3   6  -8 174.978 10.6676   8
  -4   6  -8 5.06138 1.48525  12
  -4   6  -8 3.30494 0.92767  10
  -4   6  -8 3.25994 0.95932   9
  -5   6  -8 23.9268 2.51140  12
  -5   6  -8 21.3101 1.82868  10
  -6   6  -8 2.01033 0.69106  12
  -4  -5   8 2.69601 0.68510  10
  -4  -5   8 3.20266 1.22025  16
  -3  -5   8 71.5182 5.52446  16
  -3  -5   8 77.0755 4.91405   9
  -3  -5   8 73.2543 6.01152  17
  -3  -5   8 75.8135 5.01077  10
  -2  -5   8 232.979 13.8880  10
  -2  -5   8 240.463 13.3481   8
  -2  -5   8 233.578 14.3207  16
  -2  -5   8 233.838 14.0543   9
  -1  -5   8 93.3423 7.25027   2
  -1  -5   8 105.626 6.51481   8
  -1  -5   8 101.620 6.87685   9
  -1  -5   8 100.820 6.78898  16
   0  -5   8 100.197 6.52689   8
  -1   5  -8 3.08006 1.04057   8
  -2   5  -8 115.732 7.76832  12
  -2   5  -8 111.350 7.64890   9
  -2   5  -8 109.580 8.41287   2
  -2   5  -8 124.864 7.36753   8
  -3   5  -8 27.1669 2.50308   9
  -3   5  -8 27.8252 2.96919  12
  -3   5  -8 22.6974 2.77613   5
  -3   5  -8 23.5347 2.02352   8
  -3   5  -8 23.5085 2.24526  10
  -4   5  -8 8.11420 2.07020  13
  -4   5  -8 9.77182 1.34576  10
  -4   5  -8 10.4015 1.48656   9
  -4   5  -8 8.33279 2.10072  12
  -5   5  -8 -0.3580 0.50088  10
  -5   5  -8 0.19976 1.45477  13
  -5   5  -8 1.18745 1.45411  12
  -6   5  -8 3.69093 1.00705  12
  -5  -4   8 3.70219 1.18608  16
  -5  -4   8 2.35087 0.61698  15
  -4  -4   8 18.3626 2.45882  16
  -4  -4   8 17.9295 1.70136  10
  -4  -4   8 14.8930 1.72612  15
  -4  -4   8 17.9409 2.62289  17
  -3  -4   8 26.5103 2.24949  10
  -3  -4   8 23.8212 2.44873   6
  -3  -4   8 28.3984 2.80091  16
  -3  -4   8 24.1816 3.17790  17
  -3  -4   8 23.4790 2.31017   9
  -2  -4   8 12.3927 2.50243   3
  -2  -4   8 23.7308 2.57957   7
  -2  -4   8 19.6249 2.46611   2
  -2  -4   8 18.6825 1.68451   8
  -2  -4   8 18.0521 2.45061  16
  -2  -4   8 15.8625 1.76626   6
  -2  -4   8 18.0301 2.01118  10
  -2  -4   8 19.2126 2.18955   9
  -1  -4   8 89.3897 6.07515  16
  -1  -4   8 85.9143 6.18623   9
  -1  -4   8 106.469 6.81078   2
  -1  -4   8 93.1910 5.91913   8
  -1  -4   8 84.8034 7.47565   3
   0  -4   8 13.1290 1.74045   8
  -1   4  -8 28.1679 2.49666   8
  -2   4  -8 97.2180 7.06170  12
  -2   4  -8 105.702 6.63989   8
  -2   4  -8 117.738 7.48004   2
  -2   4  -8 96.8950 6.84313   9
  -2   4  -8 112.471 8.66655   3
  -3   4  -8 3.17422 1.37372   5
  -3   4  -8 2.03010 0.68187  10
  -3   4  -8 2.18279 0.57636   8
  -3   4  -8 1.90312 1.00841   9
  -3   4  -8 2.24193 1.23781   2
  -3   4  -8 0.86710 1.17159   3
  -3   4  -8 1.25158 1.34766  12
  -3   4  -8 1.80682 0.81221   4
  -4   4  -8 110.042 7.78801  13
  -4   4  -8 106.187 7.98596   5
  -4   4  -8 100.892 6.43354   9
  -4   4  -8 99.5802 7.46694  12
  -4   4  -8 108.308 6.67115  10
  -5   4  -8 95.5846 6.80558  11
  -5   4  -8 119.826 7.59623  12
  -5   4  -8 89.4108 7.42652  13
  -5   4  -8 102.681 6.17879  10
  -6   4  -8 3.71202 1.05826  11
  -6   4  -8 4.00401 1.12012  12
  -6   4  -8 2.32250 1.15004  13
  -6  -3   8 34.0874 2.60123  16
  -6  -3   8 30.3081 2.22970  15
  -5  -3   8 67.1413 4.41573  15
  -5  -3   8 64.3384 4.94011  16
  -5  -3   8 64.1690 3.92985  10
  -5  -3   8 66.4673 5.56449  17
  -4  -3   8 2.27828 0.71843  15
  -4  -3   8 1.89203 0.72312  10
  -4  -3   8 1.72225 1.26268  17
  -4  -3   8 2.36097 1.05030  16
  -3  -3   8 101.158 6.91300   2
  -3  -3   8 105.543 6.80264   6
  -3  -3   8 106.541 7.12047  16
  -3  -3   8 99.9950 7.36098   3
  -3  -3   8 112.579 6.55257  10
  -3  -3   8 104.776 6.53043   9
  -3  -3   8 94.8551 7.60970  17
  -3  -3   8 95.0758 6.39203  15
  -3  -3   8 99.1082 7.10907   7
  -2  -3   8 269.764 16.8283   3
  -2  -3   8 278.534 15.5104   6
  -2  -3   8 250.108 15.0504   8
  -2  -3   8 247.172 15.6123  16
  -2  -3   8 292.970 15.7859   7
  -2  -3   8 254.855 15.5050   9
  -2  -3   8 262.961 15.3252  10
  -2  -3   8 272.050 16.1262   2
  -1  -3   8 46.6865 3.84302   2
  -1  -3   8 44.6003 3.18742   6
  -1  -3   8 45.8024 4.58484   3
   0  -3   8 69.0585 5.19086   2
   0  -3   8 72.0537 6.17906   3
  -1   3  -8 0.76743 0.75087   3
  -1   3  -8 0.91718 0.84133   2
  -2   3  -8 0.01369 0.76836   2
  -2   3  -8 0.41464 0.94049   9
  -2   3  -8 -0.2913 0.78824   3
  -2   3  -8 0.24198 0.54930   8
  -2   3  -8 0.54172 0.43059   4
  -2   3  -8 3.66162 1.04011   5
  -3   3  -8 66.4744 4.37015   4
  -3   3  -8 55.9988 4.26900   9
  -3   3  -8 70.0224 5.04813   5
  -3   3  -8 62.6090 4.85208   2
  -3   3  -8 59.1586 5.38665   3
  -3   3  -8 63.7733 4.31676  10
  -3   3  -8 66.1337 4.96033  13
  -3   3  -8 57.9153 4.87786  12
  -3   3  -8 63.7113 3.84807   8
  -4   3  -8 21.4703 2.71568   3
  -4   3  -8 30.0961 3.59069   5
  -4   3  -8 25.0107 2.38196   2
  -4   3  -8 33.2935 3.64318  13
  -4   3  -8 28.6093 2.56928   4
  -4   3  -8 27.1406 2.88435  11
  -4   3  -8 29.3746 2.40803  10
  -4   3  -8 29.9943 3.36886  12
  -4   3  -8 29.3639 2.13050   9
  -5   3  -8 28.1490 3.08580  12
  -5   3  -8 23.8363 3.16478  13
  -5   3  -8 25.9159 1.98946  10
  -5   3  -8 26.7645 2.72339  11
  -6   3  -8 -0.7593 1.27783  13
  -6   3  -8 0.18049 1.04048  12
  -6   3  -8 0.61435 0.79487  11
  -7   3  -8 39.6621 2.81268  12
  -6  -2   8 0.79026 0.63354  16
  -6  -2   8 1.36718 1.02720  17
  -6  -2   8 0.55873 0.59234  15
  -5  -2   8 49.0670 3.56991  15
  -5  -2   8 51.6564 4.98560  17
  -5  -2   8 48.3507 3.13432  10
  -5  -2   8 44.7589 3.98205  16
  -4  -2   8 52.5923 4.33548   7
  -4  -2   8 55.5428 5.04078  17
  -4  -2   8 49.2949 3.16786   2
  -4  -2   8 52.5812 4.12661  16
  -4  -2   8 52.0596 3.47106  10
  -4  -2   8 50.6777 3.51300  15
  -4  -2   8 47.0817 3.01512   9
  -4  -2   8 38.9925 3.09769   3
  -4  -2   8 49.5726 3.76024   6
  -3  -2   8 0.50259 0.59614  10
  -3  -2   8 0.81194 0.49821  15
  -3  -2   8 0.21692 0.91454  16
  -3  -2   8 -0.7263 0.98172  17
  -3  -2   8 1.04970 0.79422   3
  -3  -2   8 0.89961 0.75885   2
  -3  -2   8 -0.0528 0.47565   6
  -3  -2   8 0.74925 0.63548   9
  -3  -2   8 0.41169 0.78209   7
  -2  -2   8 151.355 9.08472   6
  -2  -2   8 152.460 9.67271   2
  -2  -2   8 157.977 10.3218   3
  -2  -2   8 164.876 9.33023   7
  -2  -2   8 134.335 8.74825   8
  -1  -2   8 7.67590 1.49138   2
  -1  -2   8 8.51310 1.97438   3
   0   2  -8 400.780 23.1424   3
   0   2  -8 394.073 22.2069   2
   0   2  -8 334.370 22.1308   1
   0  -2   8 389.859 22.9823   3
   0  -2   8 382.037 22.1906   2
  -1   2  -8 348.028 20.7170   2
  -1   2  -8 361.189 21.6265   3
  -2   2  -8 25.3249 3.06512   3
  -2   2  -8 28.6344 2.70715   2
  -2   2  -8 24.1049 2.32023   5
  -2   2  -8 25.3115 2.07667   4
  -3   2  -8 406.701 22.3548  10
  -3   2  -8 350.024 22.0818   9
  -3   2  -8 381.908 22.9875  12
  -3   2  -8 406.410 22.6280   2
  -3   2  -8 350.798 22.6098  11
  -3   2  -8 442.764 23.2668  13
  -3   2  -8 397.478 23.5265   3
  -3   2  -8 387.629 22.4047   4
  -3   2  -8 438.671 23.2544   5
  -4   2  -8 42.4448 3.65078  12
  -4   2  -8 37.5523 2.67366   9
  -4   2  -8 46.7305 4.38135  13
  -4   2  -8 40.2308 3.51776  11
  -4   2  -8 41.6648 2.81147  10
  -4   2  -8 42.9589 4.27932   5
  -4   2  -8 37.5656 2.90005   2
  -4   2  -8 32.6532 2.98927   3
  -5   2  -8 32.3585 4.02148  13
  -5   2  -8 40.2865 3.62088  12
  -5   2  -8 38.0630 2.55447  10
  -5   2  -8 37.8181 3.62096  11
  -6   2  -8 83.0513 5.76311  11
  -6   2  -8 79.1042 5.47983  12
  -6   2  -8 76.8619 6.15439  13
  -7   2  -8 3.04333 0.73481  12
  -7   2  -8 5.71146 1.03570  13
  -7  -1   8 75.5624 4.78163  16
  -6  -1   8 70.7642 4.99146  16
  -6  -1   8 71.4045 4.76393  15
  -6  -1   8 74.2152 5.99752  17
  -5  -1   8 9.53191 1.38243  15
  -5  -1   8 10.9615 1.81815  16
  -5  -1   8 11.6251 2.55070  17
  -5  -1   8 10.5141 1.11364  10
  -4  -1   8 0.18407 0.62997   2
  -4  -1   8 -0.1031 0.52839   3
  -4  -1   8 -0.1958 0.91708  16
  -4  -1   8 0.27059 0.93153   7
  -4  -1   8 0.56174 0.66779  15
  -4  -1   8 0.01795 0.41083   9
  -4  -1   8 0.15778 1.04144  18
  -4  -1   8 0.05172 0.44177  10
  -4  -1   8 0.32304 1.19759  17
  -3  -1   8 0.87518 0.78192  16
  -3  -1   8 0.34569 0.71946   7
  -3  -1   8 0.71323 0.33576   8
  -3  -1   8 1.10893 0.67728   9
  -3  -1   8 1.03347 0.71293   2
  -3  -1   8 0.74618 1.09459  18
  -3  -1   8 1.44540 0.70021  10
  -3  -1   8 2.24115 0.91229   3
  -3  -1   8 1.37470 0.69972  15
  -3  -1   8 0.76852 1.23355  17
  -2  -1   8 62.2819 5.09068   3
  -2  -1   8 65.5119 4.64706   2
  -2  -1   8 66.2464 4.39681   7
   1   1  -8 0.71621 0.62979   1
  -1  -1   8 0.38996 0.63170   3
  -1  -1   8 0.35443 0.59965   2
  -1  -1   8 0.65793 0.35878   7
  -1  -1   8 0.31595 0.60998   1
   0   1  -8 68.0806 4.65505   1
   0   1  -8 69.8692 5.27243   3
   0   1  -8 59.3472 4.61413   1
   0   1  -8 68.9993 4.86043   2
   0  -1   8 56.5626 4.48915   1
   0  -1   8 68.3637 4.84175   2
   0  -1   8 61.7584 4.57654   1
   0  -1   8 72.0737 5.28791   3
  -1   1  -8 93.3328 5.90538   5
  -1   1  -8 101.769 6.94741   3
  -1   1  -8 100.185 6.40018   2
  -1   1  -8 82.0389 6.02787   1
  -2   1  -8 0.17981 0.63380   5
  -2   1  -8 0.88775 0.75745   3
  -2   1  -8 1.00765 0.64347   2
  -3   1  -8 0.93491 0.75046   2
  -3   1  -8 0.10850 1.03910   5
  -3   1  -8 0.37670 0.59541   9
  -3   1  -8 0.66085 1.04617  13
  -3   1  -8 0.05720 0.95858  11
  -3   1  -8 -0.2926 1.04637  12
  -3   1  -8 1.04387 1.38204  14
  -3   1  -8 0.36793 0.53763  10
  -3   1  -8 -0.1616 0.73459   3
  -4   1  -8 80.0718 4.80695  10
  -4   1  -8 76.2489 6.13817  13
  -4   1  -8 67.6395 6.15058   5
  -4   1  -8 74.1592 5.59301  12
  -4   1  -8 77.0985 5.78002  11
  -4   1  -8 72.6827 6.47351  14
  -5   1  -8 74.5046 4.92094  10
  -5   1  -8 87.4314 6.57346  13
  -5   1  -8 88.8114 6.35991  11
  -5   1  -8 86.6238 6.01679  12
  -5   1  -8 82.8779 6.83673  14
  -6   1  -8 7.89191 1.71428  13
  -6   1  -8 10.7111 1.66852  12
  -7   0   8 0.42794 0.44421  16
  -7   0   8 -0.6365 0.69583  17
  -6   0   8 -0.3435 0.48505  16
  -6   0   8 0.23482 1.05265  18
  -6   0   8 0.00149 0.93059  17
  -5   0   8 102.527 7.78984  18
  -5   0   8 103.317 6.25974  10
  -5   0   8 93.4180 7.18845   7
  -5   0   8 107.104 6.62361  15
  -5   0   8 100.498 7.89900  17
  -5   0   8 109.535 6.97040  16
  -4   0   8 179.839 11.3037   3
  -4   0   8 181.508 12.2893  17
  -4   0   8 192.898 12.2989  18
  -4   0   8 184.517 11.7408   7
  -4   0   8 190.225 10.8198   9
  -4   0   8 180.490 11.3862  16
  -4   0   8 189.517 10.9390  10
  -4   0   8 191.487 11.1179   2
  -4   0   8 188.598 11.0634  15
  -3   0   8 645.731 35.9698   2
  -3   0   8 600.271 36.2571   3
  -3   0   8 656.089 35.0459   8
  -3   0   8 671.438 36.0235   7
  -3   0   8 593.292 36.3301  17
  -3   0   8 651.175 35.4027  15
  -3   0   8 599.104 35.4839   9
  -3   0   8 674.422 35.4137  10
  -2   0   8 38.7129 3.15642   2
  -2   0   8 35.5746 2.82514   7
  -2   0   8 36.0187 3.23317   3
   1   0  -8 209.009 13.1715   1
  -1   0   8 230.021 12.8418   7
  -1   0   8 234.506 13.6025   3
  -1   0   8 211.527 13.1822   1
  -1   0   8 232.970 13.4541   2
   0   0  -8 51.2395 3.76627   1
   0   0  -8 53.4236 3.95263   2
   0   0  -8 50.1071 3.76744   1
   0   0  -8 54.2950 3.52621   5
   0   0  -8 55.5714 4.14724   3
   0   0   8 50.1068 3.75674   1
   0   0   8 53.1210 4.08386   3
   0   0   8 51.0818 3.27738   7
   0   0   8 49.1480 3.91724   2
  -1   0  -8 87.2191 5.63390   5
  -1   0  -8 81.4667 5.96784   3
  -1   0  -8 88.0303 5.82896   2
  -2   0  -8 2.46845 0.99016   5
  -2   0  -8 1.83369 0.99252   2
  -2   0  -8 2.70632 0.87168   3
  -3   0  -8 44.4496 3.75698  13
  -3   0  -8 37.9228 3.34201   2
  -3   0  -8 41.7147 3.57127   3
  -3   0  -8 45.0677 4.49541  14
  -3   0  -8 43.3836 3.01770  10
  -3   0  -8 37.6520 3.66141   5
  -3   0  -8 37.7374 3.44392  12
  -3   0  -8 33.8017 2.98544   9
  -4   0  -8 1.18748 1.60964  14
  -4   0  -8 0.80126 1.19342  12
  -4   0  -8 0.21906 1.16695  13
  -4   0  -8 1.74989 1.74547   5
  -4   0  -8 0.80071 0.65986  10
  -5   0  -8 32.7234 4.27549  14
  -5   0  -8 32.6977 3.02674  12
  -5   0  -8 33.9191 3.42612  13
  -6   0  -8 0.75940 0.96615  14
  -6   0  -8 1.30035 1.07605  13
  -6   0  -8 0.60679 0.69402  12
  -7   1   8 75.5302 4.63542  16
  -7   1   8 67.5392 5.21894  17
  -7   1   8 70.7182 5.23874  18
  -6   1   8 6.46020 1.84327  17
  -6   1   8 8.93176 1.43117  16
  -6   1   8 9.36273 1.97671  18
  -5   1   8 416.055 25.9093  17
  -5   1   8 436.309 24.9323  16
  -5   1   8 457.782 26.2990  18
  -5   1   8 430.114 24.4064  10
  -4   1   8 1.19657 0.69905  16
  -4   1   8 1.23652 0.79475   2
  -4   1   8 0.49980 0.96904   7
  -4   1   8 0.82495 0.61520  10
  -4   1   8 0.41366 1.01816  18
  -4   1   8 1.48236 0.64173   9
  -4   1   8 0.60601 0.87819  17
  -3   1   8 4.95917 1.24745   2
  -3   1   8 3.84539 1.10786   9
  -3   1   8 4.19326 0.96890  10
  -3   1   8 3.36519 1.06807   7
  -3   1   8 3.62869 0.98616   3
  -3   1   8 3.72080 0.71161   8
  -2   1   8 314.644 18.9596   7
  -2   1   8 348.785 19.5178   3
  -2   1   8 326.384 19.5525   2
   1  -1  -8 43.1663 3.80453   1
  -1   1   8 52.8898 4.07307   1
  -1   1   8 51.4552 4.14684   3
  -1   1   8 56.5152 4.28034   2
  -1   1   8 56.4738 3.60432   7
   0  -1  -8 2.26576 1.09717   2
   0  -1  -8 2.25024 0.73925   5
   0  -1  -8 2.41338 0.83109   3
   0  -1  -8 2.30135 1.02015   1
   0   1   8 0.62017 0.63399   1
  -1  -1  -8 538.470 30.5381   5
  -1  -1  -8 523.306 30.6917   3
  -1  -1  -8 548.582 30.9101   2
  -2  -1  -8 2.63170 0.94149   6
  -2  -1  -8 5.48355 1.45334   2
  -2  -1  -8 5.60826 1.20671   3
  -2  -1  -8 4.60791 1.74762  14
  -2  -1  -8 5.21944 1.02025   8
  -2  -1  -8 4.44032 1.12825  10
  -2  -1  -8 3.72939 1.39616   5
  -2  -1  -8 2.29182 1.29849  13
  -2  -1  -8 4.37092 1.28321   9
  -3  -1  -8 239.188 14.4197  12
  -3  -1  -8 228.517 15.0527   5
  -3  -1  -8 242.578 14.4833   3
  -3  -1  -8 255.181 16.1194  14
  -3  -1  -8 234.463 14.0609   9
  -3  -1  -8 241.291 14.7888  13
  -3  -1  -8 237.267 14.0797  10
  -3  -1  -8 240.870 14.6465   2
  -4  -1  -8 115.628 7.59269  12
  -4  -1  -8 108.531 7.76949  13
  -4  -1  -8 114.593 9.23367  14
  -4  -1  -8 108.423 7.07019  10
  -5  -1  -8 16.0699 2.89030  14
  -5  -1  -8 21.9032 2.38258  12
  -5  -1  -8 20.2388 2.52037  13
  -6  -1  -8 29.1761 2.90908  14
  -6  -1  -8 27.9009 2.43494  13
  -7   2   8 24.6287 2.59776  18
  -7   2   8 24.5897 2.38651  17
  -6   2   8 0.53970 0.52163  16
  -6   2   8 -0.4990 1.16292  18
  -6   2   8 0.92590 0.89244  17
  -5   2   8 13.6819 1.53215  10
  -5   2   8 11.8736 2.45513  17
  -5   2   8 7.16000 2.35461  11
  -5   2   8 13.0505 1.57327  16
  -5   2   8 17.9094 2.98094  18
  -5   2   8 13.5988 2.09726   7
  -4   2   8 121.171 7.99783   7
  -4   2   8 127.907 8.76013  18
  -4   2   8 121.648 7.44738   9
  -4   2   8 117.188 7.77389   3
  -4   2   8 104.247 8.17793  17
  -4   2   8 120.542 7.90217   2
  -4   2   8 124.617 7.39971  16
  -4   2   8 98.4463 8.40057  11
  -4   2   8 124.434 7.58130  10
  -3   2   8 213.640 12.6650   8
  -3   2   8 223.152 13.4557   4
  -3   2   8 232.339 13.8505   2
  -3   2   8 195.660 12.6333  16
  -3   2   8 217.862 13.2454   9
  -3   2   8 232.338 13.5745   3
  -3   2   8 228.705 14.0179  18
  -3   2   8 222.735 13.2451   7
  -3   2   8 209.624 13.0814  10
  -2   2   8 25.1795 2.43882   7
  -2   2   8 31.5755 3.13211   3
  -2   2   8 32.5975 3.26668   2
  -1   2   8 172.116 11.8085   2
  -1   2   8 191.190 11.9555   3
   0  -2  -8 0.53304 0.77456   3
   0  -2  -8 1.37295 1.12616   2
  -1  -2  -8 7.14616 1.40950   8
  -1  -2  -8 7.33398 1.49898   5
  -1  -2  -8 5.80271 1.48080   9
  -1  -2  -8 6.57609 1.49754   3
  -1  -2  -8 7.17574 2.02411   2
  -2  -2  -8 0.33400 0.87833  14
  -2  -2  -8 -0.0879 0.91692  10
  -2  -2  -8 1.01918 0.80693   3
  -2  -2  -8 0.34377 0.92785   6
  -2  -2  -8 1.30830 0.95836   5
  -2  -2  -8 0.53127 1.03326   9
  -2  -2  -8 0.24510 0.55361   8
  -2  -2  -8 0.10860 1.21002   2
  -3  -2  -8 33.8808 3.36595  13
  -3  -2  -8 37.9665 3.53429  15
  -3  -2  -8 39.0970 3.33392  10
  -3  -2  -8 36.6625 3.65682   2
  -3  -2  -8 37.0323 4.17582   5
  -3  -2  -8 38.6373 4.64423  14
  -3  -2  -8 37.8793 3.12163   9
  -4  -2  -8 24.6826 2.78916  13
  -4  -2  -8 23.0254 2.66763  15
  -4  -2  -8 18.2542 3.39347  14
  -4  -2  -8 25.3373 2.22535  10
  -5  -2  -8 4.76921 1.25066  13
  -5  -2  -8 5.53191 1.60517  14
  -7   3   8 9.18307 1.62228  18
  -7   3   8 8.16599 1.23233  17
  -6   3   8 102.202 7.28569  18
  -6   3   8 91.0954 6.48628  17
  -6   3   8 90.7861 5.52994  10
  -6   3   8 91.8764 6.97154  11
  -5   3   8 1.56944 1.34358  17
  -5   3   8 1.91033 0.42597   9
  -5   3   8 2.83487 1.25551  18
  -5   3   8 1.69544 1.74875  11
  -5   3   8 2.84109 0.88740  10
  -4   3   8 5.82541 1.77642  18
  -4   3   8 4.14793 1.88327  11
  -4   3   8 3.87075 1.26839   7
  -4   3   8 5.91627 1.71807   4
  -4   3   8 5.41849 1.78792   2
  -4   3   8 3.13891 1.17290   3
  -4   3   8 5.39434 1.26531   9
  -4   3   8 4.58798 1.27015  10
  -3   3   8 45.5350 4.51210   2
  -3   3   8 36.5520 3.56888   9
  -3   3   8 38.6012 3.56411  10
  -3   3   8 40.2938 3.91979   4
  -3   3   8 42.4730 3.53001   7
  -3   3   8 41.7909 3.99037   3
  -3   3   8 45.6550 3.28698   8
  -3   3   8 42.8022 4.21562  18
  -2   3   8 5.58883 1.54066   3
  -2   3   8 7.29991 2.07282   2
  -2   3   8 5.77107 1.89529   9
  -2   3   8 6.79340 1.50502   8
   0  -3  -8 253.329 16.1246   2
   0  -3  -8 246.327 15.0011   8
   0  -3  -8 242.173 15.5605   3
  -1  -3  -8 22.7098 3.00013  10
  -1  -3  -8 26.8447 2.55525   8
  -1  -3  -8 22.7575 3.37376  14
  -1  -3  -8 30.2673 3.11648   6
  -1  -3  -8 29.8239 3.70739   2
  -1  -3  -8 23.3891 2.94787   3
  -1  -3  -8 25.6222 3.33113   9
  -2  -3  -8 143.025 8.80864  15
  -2  -3  -8 121.846 7.64749   8
  -2  -3  -8 132.260 8.67499   9
  -2  -3  -8 125.635 9.04939   5
  -2  -3  -8 134.714 9.78417  14
  -2  -3  -8 128.366 9.42542   2
  -2  -3  -8 136.880 8.64891  10
  -3  -3  -8 55.8442 4.22436   9
  -3  -3  -8 54.6553 4.38283  10
  -3  -3  -8 66.8652 4.83129  15
  -3  -3  -8 63.7777 5.79917  14
  -4  -3  -8 2.83058 0.81884  10
  -4  -3  -8 2.98697 0.98450  13
  -4  -3  -8 3.38928 1.12780  15
  -4  -3  -8 2.94552 1.42850  14
  -5  -3  -8 17.0792 2.03640  14
  -7   4   8 11.6376 1.43792  18
  -6   4   8 5.66611 1.53283  11
  -6   4   8 5.45590 1.43451  18
  -6   4   8 4.94150 0.76720  10
  -5   4   8 68.4799 6.32670  11
  -5   4   8 75.3634 4.62510   9
  -5   4   8 71.9834 5.92833  18
  -5   4   8 72.8738 5.03062  10
  -4   4   8 66.3175 4.91409   9
  -4   4   8 61.1273 6.04424  11
  -4   4   8 66.4626 5.75968  18
  -4   4   8 57.8344 5.48961   4
  -4   4   8 67.8532 5.00752  10
  -3   4   8 11.1596 2.08227   4
  -3   4   8 10.5362 2.18663   9
  -3   4   8 8.12082 1.91193  10
  -3   4   8 10.8428 2.40212  18
  -3   4   8 10.8055 2.44129   2
  -3   4   8 6.99984 1.87597   3
  -3   4   8 14.7309 1.88055   8
  -2   4   8 43.6614 3.86757   8
   0  -4  -8 1.23996 1.16436   8
  -1  -4  -8 17.4491 2.81888  10
  -1  -4  -8 19.5640 2.92624   9
  -1  -4  -8 14.5758 1.89382   8
  -1  -4  -8 20.1277 2.96583   6
  -2  -4  -8 46.1247 3.88310  10
  -2  -4  -8 37.0285 4.46501  14
  -2  -4  -8 49.7395 3.99887  15
  -2  -4  -8 44.7951 3.84609   9
  -3  -4  -8 12.9457 2.35569  14
  -3  -4  -8 12.8871 1.93655  15
  -3  -4  -8 11.6800 1.65887  10
  -4  -4  -8 68.4021 4.26395  15
  -4  -4  -8 57.7533 4.51389  14
  -4  -4  -8 59.5707 3.63904  10
  -6   5   8 7.36355 0.80937  10
  -6   5   8 9.80640 1.45808  18
  -5   5   8 22.3992 1.91246   9
  -5   5   8 24.6402 3.33843  11
  -5   5   8 25.4932 2.39218  10
  -4   5   8 77.2397 5.79991  10
  -4   5   8 76.4375 6.65829  11
  -4   5   8 80.1970 5.77695   9
  -3   5   8 117.400 7.47897   8
  -3   5   8 113.867 8.14228   9
  -2   5   8 318.057 18.9974   8
   1  -5  -8 70.9056 5.69627   8
   0  -5  -8 17.0112 2.14205   8
   0  -5  -8 12.1790 2.95226   9
  -1  -5  -8 -0.0678 1.00732   9
  -1  -5  -8 0.13729 0.67653  15
  -2  -5  -8 105.997 7.53995  10
  -2  -5  -8 114.729 7.29800   9
  -2  -5  -8 126.397 7.64847  15
  -3  -5  -8 14.5989 1.66196  15
  -3  -5  -8 13.9082 1.45601  10
  -5   6   8 34.9156 3.32294  11
  -5   6   8 43.3623 2.93244  10
  -4   6   8 3.28888 1.27374  11
  -4   6   8 4.00383 1.42861  10
  -4   6   8 6.23288 1.40529   9
  -3   6   8 3.74782 1.78933   9
  -3   6   8 3.48241 0.80501   8
  -3   6   8 3.83268 1.67743  11
  -2   6   8 81.0235 5.68334   8
   1  -6  -8 6.52184 1.57719   8
  -1   6   8 7.00520 1.67597   8
   0  -6  -8 17.9306 2.86459   9
  -1  -6  -8 0.48129 1.09190   9
  -1  -6  -8 0.64923 0.65229  15
  -2  -6  -8 26.5398 2.13312  10
  -4   7   8 58.0679 4.23181  11
  -2   7   8 143.690 9.17513  11
   1  -7  -8 11.5026 1.41348  15
   1  -7  -8 12.5795 1.15586   8
  -1   7   8 12.2140 1.67502   8
   0  -7  -8 13.0721 1.38836  15
   0  -7  -8 14.3921 1.73166   9
   1  -8   9 17.5607 1.49209   8
  -2   8  -9 32.7881 2.02448   8
   2  -8   9 29.0662 2.37718   8
  -3   8  -9 0.28495 0.58233   9
  -2  -7   9 54.1253 3.20558   9
  -2  -7   9 45.1345 3.43120  10
  -2  -7   9 48.5342 3.52177  16
  -1  -7   9 2.05862 0.82049  16
  -1  -7   9 3.13327 0.96394   9
   0  -7   9 15.4135 1.96482  16
   0  -7   9 16.3401 1.70212   8
  -1   7  -9 31.4266 2.74399   8
   1  -7   9 29.5019 2.61450   8
  -2   7  -9 15.7980 2.35491   9
  -2   7  -9 19.9736 1.76837   8
  -2   7  -9 16.8955 2.21373  12
  -3   7  -9 76.0819 5.72225  12
  -3   7  -9 85.8652 5.63503   9
  -4   7  -9 1.78640 0.90777  10
  -4   7  -9 2.81910 0.67060   9
  -4   7  -9 2.49578 0.98166  12
  -3  -6   9 39.4017 2.97791  10
  -3  -6   9 44.0132 3.30409  16
  -2  -6   9 8.30423 1.33494  10
  -2  -6   9 5.17861 1.44973  17
  -2  -6   9 8.68999 1.42476   9
  -2  -6   9 7.04088 1.47042  16
  -1  -6   9 2.29946 0.75308   8
  -1  -6   9 3.25442 1.31435   9
  -1  -6   9 2.08691 1.11738  16
   0  -6   9 35.5229 2.96137   8
   0  -6   9 33.8822 3.07636  16
  -1   6  -9 50.3955 3.90921   8
   1  -6   9 50.0569 4.17359   8
  -2   6  -9 52.3748 4.53853  12
  -2   6  -9 54.7804 3.94003   8
  -2   6  -9 49.8879 4.23469   9
  -3   6  -9 0.40007 1.02095   9
  -3   6  -9 0.33718 0.65569  10
  -3   6  -9 0.54481 1.12273  12
  -3   6  -9 0.57961 0.44130   8
  -4   6  -9 63.1749 5.08455  13
  -4   6  -9 73.5668 4.55649   9
  -4   6  -9 63.8219 5.17789  12
  -4   6  -9 72.0118 4.70255  10
  -5   6  -9 11.6392 1.10661  10
  -5   6  -9 9.11321 1.48907  12
  -4  -5   9 150.185 8.43716  10
  -4  -5   9 136.834 8.86527  16
  -3  -5   9 154.576 10.9331  17
  -3  -5   9 165.508 9.94878  10
  -3  -5   9 173.492 10.4641  16
  -3  -5   9 167.750 9.73059   9
  -2  -5   9 18.1842 2.22653  10
  -2  -5   9 22.0695 2.58922  16
  -2  -5   9 22.2314 1.66325   8
  -2  -5   9 21.5247 2.27698   9
  -1  -5   9 161.305 10.1152   9
  -1  -5   9 152.056 9.89968  16
  -1  -5   9 164.183 9.75159   8
   0  -5   9 1.45204 0.85254   8
  -1   5  -9 8.01816 1.43358   8
  -2   5  -9 16.9373 1.91700   8
  -2   5  -9 16.4629 2.41336  12
  -2   5  -9 16.5683 2.26432   9
  -3   5  -9 4.02711 1.12109   9
  -3   5  -9 1.53137 1.64451   5
  -3   5  -9 4.32654 0.81977   8
  -3   5  -9 1.77609 1.63967  12
  -3   5  -9 2.24536 0.81430  10
  -4   5  -9 4.94728 1.07961  10
  -4   5  -9 5.81673 1.53736  12
  -4   5  -9 5.93553 1.07852   9
  -4   5  -9 6.14606 1.60844  13
  -5   5  -9 1.19186 0.46377  10
  -5   5  -9 1.42775 1.43321  12
  -5   5  -9 0.76631 0.98171  13
  -6   5  -9 1.87757 0.77392  12
  -5  -4   9 0.26197 0.55194  16
  -4  -4   9 52.9416 3.62929  10
  -4  -4   9 47.4450 4.89490  17
  -4  -4   9 53.4796 4.16715  16
  -3  -4   9 154.511 8.94377  10
  -3  -4   9 145.590 8.80051   9
  -3  -4   9 134.891 10.0326  17
  -3  -4   9 139.454 9.36391  16
  -2  -4   9 153.189 8.82757   8
  -2  -4   9 138.849 9.98669   2
  -2  -4   9 153.610 9.52712   9
  -2  -4   9 158.710 9.63824   7
  -2  -4   9 143.215 9.55134  16
  -2  -4   9 150.903 9.26624  10
  -1  -4   9 17.5962 2.16816  16
  -1  -4   9 18.3466 3.38645   3
  -1  -4   9 20.6475 2.69661   2
  -1  -4   9 18.2946 2.47453   9
  -1  -4   9 19.8534 2.03851   8
   0  -4   9 237.366 14.0317   8
  -1   4  -9 15.9226 1.92115   8
  -2   4  -9 0.82890 1.17113   9
  -2   4  -9 -0.0527 1.35143   3
  -2   4  -9 0.59044 1.25712   2
  -2   4  -9 1.04207 1.27168  12
  -2   4  -9 0.12257 0.63241   8
  -3   4  -9 102.742 9.00154   3
  -3   4  -9 140.273 7.79874  10
  -3   4  -9 122.052 8.40974  12
  -3   4  -9 121.247 7.79763   9
  -3   4  -9 128.052 8.20005   5
  -3   4  -9 111.567 8.30202   2
  -3   4  -9 114.994 7.56814   4
  -3   4  -9 120.426 7.09366   8
  -4   4  -9 1.74918 0.81734  10
  -4   4  -9 1.69953 1.44418  13
  -4   4  -9 1.48310 0.64301   9
  -4   4  -9 1.72292 1.13091  12
  -5   4  -9 7.15860 1.70238  13
  -5   4  -9 5.07707 0.81156  10
  -5   4  -9 6.26888 1.45161  11
  -5   4  -9 7.91105 1.80076  12
  -6   4  -9 29.8276 2.78216  13
  -6   4  -9 28.5502 2.50456  12
  -6   4  -9 29.8289 2.56138  11
  -6  -3   9 8.40017 1.72429  17
  -6  -3   9 14.0564 1.38947  16
  -5  -3   9 13.9479 2.38667  17
  -5  -3   9 12.5011 1.35448  15
  -5  -3   9 11.7385 1.83349  16
  -5  -3   9 14.5920 1.15235  10
  -4  -3   9 57.0212 4.45680  16
  -4  -3   9 52.5056 5.19193  17
  -4  -3   9 52.4107 3.69849  10
  -4  -3   9 48.6137 3.60770  15
  -3  -3   9 26.2728 2.63564   7
  -3  -3   9 24.7228 2.26084  10
  -3  -3   9 21.3981 2.83193   3
  -3  -3   9 21.6674 2.14774   6
  -3  -3   9 21.8442 2.09645   9
  -3  -3   9 22.3933 2.42488   2
  -3  -3   9 24.3626 2.73160  16
  -3  -3   9 21.4189 3.14293  17
  -2  -3   9 82.2036 5.70801   9
  -2  -3   9 82.4574 5.41435   6
  -2  -3   9 73.4696 5.35351  10
  -2  -3   9 81.3807 5.06813   8
  -2  -3   9 85.1663 6.86946   3
  -2  -3   9 82.0773 6.11214   2
  -2  -3   9 71.3315 5.59619  16
  -2  -3   9 95.2411 5.74783   7
  -1  -3   9 32.6809 3.87375   3
  -1  -3   9 25.5642 2.45760   8
  -1  -3   9 28.4633 2.94601   2
  -1   3  -9 0.14110 0.65358   8
  -1   3  -9 -0.0008 0.95058   2
  -1   3  -9 -0.0493 1.14649   3
  -2   3  -9 90.6672 5.55917   4
  -2   3  -9 96.3393 6.02740   5
  -2   3  -9 80.2459 5.94314   9
  -2   3  -9 86.7144 7.29995   3
  -2   3  -9 94.3550 6.56851   2
  -2   3  -9 74.0965 5.63357  10
  -2   3  -9 90.9302 5.60536   8
  -3   3  -9 9.30469 2.31191   3
  -3   3  -9 9.86559 1.88533   2
  -3   3  -9 10.3170 1.00014   8
  -3   3  -9 8.15919 1.37495   9
  -3   3  -9 7.81452 1.37999  10
  -3   3  -9 8.79126 1.33445   4
  -3   3  -9 6.92149 1.81027  12
  -3   3  -9 11.2711 1.95914   5
  -3   3  -9 10.5133 1.78607  13
  -4   3  -9 166.499 9.72325   9
  -4   3  -9 166.966 9.99724  10
  -4   3  -9 167.788 11.3620   5
  -4   3  -9 178.949 11.2517  13
  -4   3  -9 164.129 10.8919  12
  -4   3  -9 164.625 10.6783  11
  -5   3  -9 1.10796 0.51042  10
  -5   3  -9 -0.2027 1.16416  12
  -5   3  -9 0.77603 0.85658  11
  -5   3  -9 0.02262 0.95015  13
  -6   3  -9 27.9915 2.62496  12
  -6   3  -9 27.9875 2.81835  13
  -6  -2   9 0.52619 0.74905  16
  -6  -2   9 0.92750 1.36849  17
  -5  -2   9 7.24596 1.44097  16
  -5  -2   9 6.61664 1.10543  15
  -5  -2   9 7.71496 2.10269  17
  -5  -2   9 6.58684 0.88562  10
  -4  -2   9 6.57186 1.51416  16
  -4  -2   9 8.92558 1.19692  10
  -4  -2   9 5.17373 1.08501   2
  -4  -2   9 6.37610 1.66621   7
  -4  -2   9 6.70061 1.14845  15
  -4  -2   9 5.83352 0.94932   9
  -4  -2   9 9.24943 2.34605  17
  -3  -2   9 38.4269 3.85765   3
  -3  -2   9 37.9357 2.91523   9
  -3  -2   9 36.7512 2.93319  15
  -3  -2   9 42.8844 3.54981   7
  -3  -2   9 42.3174 4.06274  17
  -3  -2   9 42.1149 3.20756  10
  -3  -2   9 41.2480 3.34045   2
  -3  -2   9 34.7725 3.39301  16
  -2  -2   9 32.4377 3.58124   3
  -2  -2   9 25.2769 2.60494   9
  -2  -2   9 36.8303 2.71299   7
  -2  -2   9 29.8968 2.88752   2
  -2  -2   9 23.6596 2.38411  10
  -2  -2   9 30.2061 2.21933   8
  -1  -2   9 219.235 14.3348   3
  -1  -2   9 214.630 13.4688   2
  -1   2  -9 7.04230 1.54997   2
  -1   2  -9 6.55449 1.84597   3
  -2   2  -9 157.332 8.89164   8
  -2   2  -9 127.111 9.29816  10
  -2   2  -9 160.852 9.46942   5
  -2   2  -9 170.775 9.92885   2
  -2   2  -9 138.244 9.18580   9
  -2   2  -9 158.141 10.8165   3
  -3   2  -9 170.793 10.3995   9
  -3   2  -9 167.717 11.1611  12
  -3   2  -9 193.546 11.3963  13
  -3   2  -9 165.016 11.8152   3
  -3   2  -9 181.097 10.8349   2
  -3   2  -9 194.145 11.4265   5
  -3   2  -9 187.348 10.5607  10
  -3   2  -9 164.055 10.9720  11
  -4   2  -9 5.01771 1.38484  11
  -4   2  -9 5.78856 0.93464  10
  -4   2  -9 4.36782 1.24955  12
  -4   2  -9 5.97274 1.61441  13
  -4   2  -9 5.99179 1.23061   2
  -4   2  -9 3.57373 1.93803   5
  -4   2  -9 4.92332 0.83332   9
  -5   2  -9 1.27636 1.01441  13
  -5   2  -9 2.47230 1.27728  12
  -5   2  -9 3.06969 1.20118  11
  -5   2  -9 1.63334 0.49365  10
  -6   2  -9 22.2867 2.54458  13
  -6   2  -9 21.7841 2.14578  12
  -7  -1   9 30.7160 2.64834  17
  -7  -1   9 29.3869 2.16879  16
  -6  -1   9 17.9463 1.84266  16
  -6  -1   9 18.9390 2.65272  17
  -5  -1   9 11.3715 1.86339  16
  -5  -1   9 9.60975 1.41139  15
  -5  -1   9 10.4533 2.49533  17
  -5  -1   9 10.0408 1.17405  10
  -4  -1   9 239.136 14.0374  16
  -4  -1   9 219.956 13.9162   3
  -4  -1   9 228.524 14.8264  18
  -4  -1   9 250.498 13.4380  10
  -4  -1   9 240.637 15.0894  17
  -4  -1   9 217.828 13.6596   2
  -4  -1   9 221.886 13.3231   9
  -4  -1   9 241.576 13.5836  15
  -3  -1   9 0.59984 0.62533  15
  -3  -1   9 0.44771 0.45122   8
  -3  -1   9 0.60023 0.99832  16
  -3  -1   9 1.11051 0.71138  10
  -3  -1   9 0.37472 0.61218   9
  -3  -1   9 1.16452 0.85699   3
  -3  -1   9 0.90820 0.77433   2
  -3  -1   9 0.32033 1.22212  17
  -3  -1   9 0.86645 0.80029   7
  -3  -1   9 0.57528 1.07882  18
  -2  -1   9 9.44122 1.28825   7
  -2  -1   9 7.84674 1.37953   2
  -1  -1   9 179.881 11.4818   3
  -1  -1   9 172.460 10.8486   2
  -1  -1   9 169.133 10.1199   7
   0   1  -9 69.4021 5.64206   3
   0   1  -9 71.7160 5.24176   2
  -1   1  -9 4.67076 1.22213   2
  -1   1  -9 4.71505 0.98315   5
  -1   1  -9 3.97910 1.28911   3
  -2   1  -9 128.720 8.00944  10
  -2   1  -9 123.386 8.13436  13
  -2   1  -9 118.712 7.86695   9
  -2   1  -9 136.229 9.11266   3
  -2   1  -9 135.404 8.27018   2
  -2   1  -9 135.859 8.31866   5
  -2   1  -9 128.262 7.64082   8
  -3   1  -9 250.993 14.8875   9
  -3   1  -9 241.230 15.3521  12
  -3   1  -9 278.673 15.9742   5
  -3   1  -9 233.472 16.0318   3
  -3   1  -9 293.604 15.9093  13
  -3   1  -9 256.884 15.6705  11
  -3   1  -9 276.001 14.9181  10
  -3   1  -9 224.772 16.5246  14
  -3   1  -9 275.943 15.4210   2
  -4   1  -9 33.5654 2.44055  10
  -4   1  -9 31.1414 3.76441   5
  -4   1  -9 31.2997 3.22944  11
  -4   1  -9 26.3473 3.74807  14
  -4   1  -9 29.0163 3.13190  12
  -4   1  -9 35.1598 3.45632  13
  -5   1  -9 4.08019 1.39228  12
  -5   1  -9 2.38910 0.59664  10
  -5   1  -9 1.04876 1.62090  14
  -5   1  -9 1.70353 1.36825  13
  -6   1  -9 19.5107 2.17395  13
  -6   1  -9 17.4816 1.98567  12
  -7   0   9 46.7446 3.68149  17
  -7   0   9 45.8262 3.08610  16
  -6   0   9 26.7574 3.30413  18
  -6   0   9 28.9530 3.27649  17
  -6   0   9 30.1147 2.52298  16
  -5   0   9 22.8990 2.36550  16
  -5   0   9 20.7843 1.89706  10
  -5   0   9 18.7825 3.06346  17
  -5   0   9 25.3104 3.39241  18
  -4   0   9 1056.53 56.2757  18
  -4   0   9 1060.13 54.4677  10
  -4   0   9 930.832 55.2807   3
  -4   0   9 912.170 55.2519   7
  -4   0   9 981.575 55.9601  17
  -4   0   9 971.292 54.8641   2
  -4   0   9 989.804 54.8258  16
  -4   0   9 974.539 54.4307   9
  -3   0   9 4.84267 1.27683  16
  -3   0   9 7.42308 1.34512   9
  -3   0   9 8.50735 1.51309   7
  -3   0   9 8.56440 1.68285   3
  -3   0   9 6.77949 0.98200   8
  -3   0   9 6.69747 1.11166  10
  -3   0   9 5.67383 1.72339  17
  -3   0   9 8.19611 1.60022   2
  -2   0   9 309.470 18.4403   3
  -2   0   9 296.646 17.6693   7
  -2   0   9 315.638 18.2043   2
   1   0  -9 23.9787 1.92375   5
  -1   0   9 24.8324 2.47242   2
  -1   0   9 23.0933 2.33955   1
  -1   0   9 26.8372 2.02525   7
  -1   0   9 28.2841 2.68775   3
   0   0  -9 0.17490 0.45252   5
   0   0  -9 -0.2767 0.64069   2
   0   0  -9 0.58273 0.65504   3
   0   0   9 -0.3170 0.25401   7
   0   0   9 -0.1002 0.59226   1
  -1   0  -9 51.0268 4.27063   3
  -1   0  -9 55.7624 4.21303   2
  -1   0  -9 49.8703 3.78055   5
  -2   0  -9 2.50638 0.92178   8
  -2   0  -9 2.55257 1.16385   2
  -2   0  -9 1.71234 0.87039  13
  -2   0  -9 2.52768 0.97529   9
  -2   0  -9 3.17945 1.06894   3
  -2   0  -9 2.40423 1.13042   5
  -2   0  -9 3.06061 0.86739  10
  -3   0  -9 1.32044 0.79071   9
  -3   0  -9 0.36054 0.87712   3
  -3   0  -9 1.51384 1.47216  14
  -3   0  -9 1.05294 1.12149  12
  -3   0  -9 1.24468 0.69704  10
  -3   0  -9 2.45755 1.22804   2
  -3   0  -9 2.14534 1.39189   5
  -3   0  -9 1.96755 1.19798  13
  -4   0  -9 28.2420 3.39777   5
  -4   0  -9 23.7155 3.95013  14
  -4   0  -9 28.5289 2.83321  12
  -4   0  -9 34.5252 3.28536  13
  -4   0  -9 29.9127 2.45076  10
  -5   0  -9 -0.5037 1.44796  14
  -5   0  -9 1.25915 1.25173  12
  -5   0  -9 1.55202 1.21913  13
  -6   0  -9 4.82437 1.21933  14
  -7   1   9 0.11949 0.95508  17
  -7   1   9 -0.3641 0.69129  18
  -6   1   9 66.7597 5.60220  18
  -6   1   9 59.8592 4.16864  16
  -6   1   9 55.5120 5.06694  17
  -5   1   9 109.875 8.42372  18
  -5   1   9 100.828 7.86532  17
  -5   1   9 110.087 6.90318  16
  -5   1   9 102.508 6.60984  10
  -4   1   9 4.80826 1.06016  16
  -4   1   9 4.08926 1.26349   7
  -4   1   9 4.67685 1.01618  10
  -4   1   9 4.43004 1.35040   2
  -4   1   9 6.11160 1.67306  17
  -4   1   9 4.03232 1.56758  18
  -4   1   9 4.03920 1.03958   9
  -3   1   9 74.6870 5.45427   3
  -3   1   9 67.0214 5.11000   9
  -3   1   9 65.4044 5.64045  17
  -3   1   9 76.8205 4.76991   8
  -3   1   9 76.9439 5.00781  10
  -3   1   9 79.3865 5.39111   7
  -3   1   9 73.2985 5.62014   2
  -2   1   9 111.559 6.97866   7
  -2   1   9 110.014 7.60225   2
  -2   1   9 105.420 7.35668   3
  -1   1   9 126.100 8.61388   2
  -1   1   9 131.284 8.67293   3
  -1   1   9 128.095 7.79647   7
   0  -1  -9 307.815 17.8460   5
   0  -1  -9 298.187 18.4919   3
   0  -1  -9 323.590 18.6599   2
  -1  -1  -9 4.58790 1.21376   3
  -1  -1  -9 5.53887 1.61389   2
  -1  -1  -9 5.93218 1.36440   5
  -1  -1  -9 9.35415 1.50007   8
  -2  -1  -9 239.637 14.7007   2
  -2  -1  -9 237.870 15.7846  14
  -2  -1  -9 219.209 13.7196   8
  -2  -1  -9 252.021 14.0273  10
  -2  -1  -9 234.558 14.1539   9
  -2  -1  -9 246.325 14.5749   3
  -2  -1  -9 218.295 14.2456  13
  -2  -1  -9 248.210 14.7111   5
  -3  -1  -9 238.429 12.7962  10
  -3  -1  -9 207.996 13.1113   3
  -3  -1  -9 210.634 13.7153   5
  -3  -1  -9 229.205 13.3356  13
  -3  -1  -9 219.143 12.9485  12
  -3  -1  -9 195.903 12.6900   9
  -3  -1  -9 211.636 14.7953  14
  -3  -1  -9 189.430 13.2262   2
  -4  -1  -9 14.9445 1.80173  10
  -4  -1  -9 13.9865 2.21986  13
  -4  -1  -9 10.5713 2.63499  14
  -4  -1  -9 15.0026 1.92510  12
  -5  -1  -9 72.1226 5.16181  13
  -5  -1  -9 73.6777 6.33781  14
  -6  -1  -9 0.70734 0.73882  14
  -6  -1  -9 3.47912 0.69235  13
  -7   2   9 23.0915 2.22119  17
  -7   2   9 18.4570 2.46874  18
  -6   2   9 20.3883 1.45780  10
  -6   2   9 20.0754 2.45895  17
  -6   2   9 24.0021 2.99564  18
  -5   2   9 56.5971 5.01000  17
  -5   2   9 63.6722 5.86167  18
  -5   2   9 63.4823 4.36069  10
  -5   2   9 60.1610 4.30864  16
  -4   2   9 161.351 9.86681  10
  -4   2   9 158.132 10.1483   3
  -4   2   9 159.508 9.82646   9
  -4   2   9 162.717 9.60374  16
  -4   2   9 174.366 11.3867  18
  -4   2   9 141.784 10.7811  11
  -4   2   9 164.940 10.5175   2
  -4   2   9 150.540 10.1817   7
  -4   2   9 153.969 10.4237  17
  -3   2   9 100.848 7.35439   9
  -3   2   9 109.281 7.16254  10
  -3   2   9 113.915 8.00939   2
  -3   2   9 112.843 7.57025   3
  -3   2   9 93.4757 7.29130   4
  -3   2   9 112.730 7.27536   7
  -3   2   9 108.189 6.81338   8
  -3   2   9 113.057 8.21382  18
  -2   2   9 199.377 12.6055   8
  -2   2   9 210.022 13.6069   2
  -2   2   9 233.670 13.5676   3
  -2   2   9 176.429 12.9629   9
  -2   2   9 231.482 12.6052   7
   0  -2  -9 250.963 15.7947   2
   0  -2  -9 239.698 15.0373   8
   0  -2  -9 258.206 15.7220   3
  -1  -2  -9 9.46193 1.80532   9
  -1  -2  -9 4.99462 1.34991  10
  -1  -2  -9 9.50962 1.84383   3
  -1  -2  -9 10.8331 1.67612   8
  -1  -2  -9 10.7533 2.34787   2
  -1  -2  -9 6.31245 1.53589   5
  -2  -2  -9 2.54802 1.31110   9
  -2  -2  -9 1.58664 0.82518   6
  -2  -2  -9 4.39109 1.79514   2
  -2  -2  -9 1.90040 0.93533   3
  -2  -2  -9 2.14521 1.16769  10
  -2  -2  -9 2.96532 1.62015   5
  -2  -2  -9 3.03948 1.51710  14
  -2  -2  -9 2.72339 0.78123   8
  -3  -2  -9 166.907 11.6261   5
  -3  -2  -9 180.874 10.8374  15
  -3  -2  -9 164.228 10.5668   9
  -3  -2  -9 185.780 10.8989  10
  -3  -2  -9 172.839 12.5080  14
  -3  -2  -9 172.728 10.9693  13
  -4  -2  -9 4.18483 1.35643  13
  -4  -2  -9 4.72954 1.00971  10
  -4  -2  -9 4.07197 1.85686  14
  -5  -2  -9 17.3467 2.47487  14
  -5  -2  -9 19.6661 1.91062  13
  -7   3   9 13.8956 1.81334  18
  -7   3   9 14.8768 1.46260  17
  -6   3   9 0.38040 0.48255  10
  -6   3   9 0.21324 0.67432  17
  -6   3   9 0.43970 0.90620  18
  -5   3   9 4.19612 1.82102  18
  -5   3   9 2.53956 1.83368  11
  -5   3   9 3.86882 1.28578  17
  -5   3   9 2.99539 0.94152  10
  -5   3   9 2.86743 0.62761   9
  -4   3   9 72.9802 5.20497  10
  -4   3   9 69.8730 6.04435  18
  -4   3   9 68.7997 6.28090  11
  -4   3   9 65.7195 4.99944   9
  -3   3   9 35.0009 3.84147   4
  -3   3   9 43.2955 4.03410   9
  -3   3   9 35.4905 3.58592  10
  -3   3   9 37.5115 3.87324   3
  -3   3   9 46.3744 4.52659  18
  -3   3   9 46.3740 3.38815   8
  -2   3   9 126.667 8.26489   8
  -2   3   9 122.564 9.11432   3
  -2   3   9 125.418 9.45437   2
   0  -3  -9 16.0604 2.49840   8
  -1  -3  -9 26.3640 3.32809   3
  -1  -3  -9 31.0034 3.80819   9
  -1  -3  -9 30.1198 3.59707  10
  -1  -3  -9 33.8598 4.48562   2
  -1  -3  -9 36.6053 2.97602   8
  -1  -3  -9 31.5651 3.93895  14
  -2  -3  -9 78.2209 6.01136   9
  -2  -3  -9 81.6650 5.93583  10
  -2  -3  -9 84.9390 6.32711   6
  -2  -3  -9 88.4046 5.96878  15
  -2  -3  -9 78.9223 7.02515  14
  -3  -3  -9 -0.2257 0.98165  14
  -3  -3  -9 0.01892 0.65896  10
  -3  -3  -9 -0.1208 0.78490   9
  -3  -3  -9 -0.0688 0.72733  15
  -4  -3  -9 65.1919 4.26877  10
  -4  -3  -9 67.2699 5.50568  14
  -4  -3  -9 66.3582 4.47599  15
  -5  -3  -9 26.6153 2.39834  14
  -6   4   9 14.4361 1.30143  10
  -6   4   9 15.3994 2.30060  11
  -6   4   9 13.3538 1.99359  18
  -5   4   9 0.58216 0.52825   9
  -5   4   9 0.51743 0.80524  10
  -5   4   9 -0.2686 1.28011  18
  -5   4   9 0.28361 1.50011  11
  -4   4   9 17.0675 2.30944   9
  -4   4   9 14.6161 2.89229  11
  -4   4   9 17.3061 2.39124  10
  -4   4   9 13.3730 2.63173  18
  -3   4   9 32.3607 3.74367   4
  -3   4   9 30.8121 3.55660   9
  -3   4   9 27.3076 3.71962  18
  -3   4   9 29.6353 2.82366   8
  -2   4   9 2.54189 1.06576   8
   1  -4  -9 162.963 10.8853   8
   0  -4  -9 4.45161 1.46516   8
  -1  -4  -9 0.99041 1.58958   9
  -1  -4  -9 1.53296 0.80533   8
  -2  -4  -9 3.98299 1.12120  15
  -2  -4  -9 4.56027 1.31616   9
  -2  -4  -9 3.28691 1.41413  10
  -2  -4  -9 3.13851 1.82472  14
  -3  -4  -9 77.5348 4.98348  15
  -3  -4  -9 66.8649 5.42158  14
  -3  -4  -9 64.3732 4.70892  10
  -4  -4  -9 17.7493 1.55553  15
  -6   5   9 3.74674 0.57320  10
  -6   5   9 4.24199 0.95132  18
  -5   5   9 30.5015 2.68616  10
  -5   5   9 35.1549 3.44409  11
  -5   5   9 34.2509 2.28454   9
  -4   5   9 83.9540 6.06327  10
  -4   5   9 80.0587 5.95692   9
  -4   5   9 92.8353 6.99677  11
  -3   5   9 57.4385 4.09474   8
  -3   5   9 50.6841 4.92639   9
  -2   5   9 573.673 32.9226   8
   1  -5  -9 4.65590 1.78037   8
  -1   5   9 1.20342 1.68568   8
   0  -5  -9 101.553 8.22562   9
   0  -5  -9 113.757 7.14762   8
  -1  -5  -9 7.15373 1.41619  15
  -1  -5  -9 10.3361 2.11459   9
  -1  -5  -9 6.92466 0.77536   8
  -2  -5  -9 0.68742 1.08508  10
  -2  -5  -9 0.91210 0.68773  15
  -2  -5  -9 0.44332 0.73077   9
  -3  -5  -9 2.77604 0.67674  15
  -3  -5  -9 3.56674 0.56181  10
  -5   6   9 0.64808 0.78621  11
  -5   6   9 0.12181 0.49525  10
  -4   6   9 1.58192 1.04537  11
  -4   6   9 1.87082 1.24578  10
  -4   6   9 0.58965 0.95162   9
  -3   6   9 0.23391 0.52336   8
  -3   6   9 -0.1518 0.78231  11
  -3   6   9 0.42498 1.52601   9
   2  -6  -9 16.7653 2.47643   8
  -2   6   9 19.1734 2.02588   8
   1  -6  -9 84.9804 5.67942   8
  -1   6   9 81.2355 5.88792   8
   0  -6  -9 0.84368 0.50327   8
   0  -6  -9 0.78416 0.89250  15
   0  -6  -9 1.61252 1.63432   9
  -1  -6  -9 81.9756 5.38661  15
  -1  -6  -9 86.2655 5.48209   9
  -3   7   9 25.7451 2.40951  11
   2  -7  -9 2.89271 0.67472   8
   2  -7  -9 0.99149 0.61151  15
  -2   7   9 2.85291 0.64209   8
  -2   7   9 2.40805 0.85331  11
   1  -7  -9 34.0494 2.33316   8
   1  -7  -9 39.7028 2.70906  15
  -1   7   9 42.9614 2.77212   8
  -1   8 -10 14.4894 1.38444   8
   1  -8  10 16.5085 1.27263   8
  -2  -7  10 10.5174 0.93297   9
  -2  -7  10 9.73006 1.21992  10
  -1  -7  10 61.0010 4.44779  16
  -1  -7  10 72.7802 4.79579   9
   0   7 -10 37.3269 3.51443   8
   0  -7  10 41.1011 2.87617   8
  -1   7 -10 56.3024 4.01331   8
   1  -7  10 54.9728 4.07947   8
  -2   7 -10 0.31648 1.01322   9
  -2   7 -10 0.23036 0.44852   8
  -3   7 -10 8.44609 1.43565  12
  -4   7 -10 34.3092 3.12535  12
  -4   7 -10 46.0129 2.63334   9
  -4   7 -10 47.3055 3.16145  10
  -3  -6  10 77.8542 5.07842  10
  -3  -6  10 84.2602 5.33076  16
  -2  -6  10 7.75746 1.32469   9
  -2  -6  10 5.04837 1.28835  16
  -2  -6  10 6.78007 1.59008  17
  -2  -6  10 4.26917 1.18815  10
  -1  -6  10 45.1263 3.75436  16
  -1  -6  10 52.7394 4.26565   9
  -1  -6  10 48.6635 3.33651   8
   0  -6  10 68.6744 4.90525   8
  -1   6 -10 8.42633 1.56215   8
   1  -6  10 7.76770 1.47140   8
  -2   6 -10 31.5998 2.68333   8
  -2   6 -10 26.3682 3.24387   9
  -3   6 -10 33.8447 2.91843  13
  -3   6 -10 35.5542 3.00442   9
  -3   6 -10 32.0102 3.42196  12
  -3   6 -10 31.7338 2.12450   8
  -4   6 -10 2.55258 0.76360  10
  -4   6 -10 3.74662 1.12349  13
  -4   6 -10 5.02450 1.66793  12
  -4   6 -10 3.61739 0.73054   9
  -5   6 -10 22.8589 2.34369  12
  -5   6 -10 29.2563 1.92885  10
  -4  -5  10 21.8863 1.67688  10
  -4  -5  10 21.0471 2.18573  16
  -3  -5  10 15.5832 2.11487  16
  -3  -5  10 19.7063 2.96321  17
  -3  -5  10 17.1914 1.84001  10
  -3  -5  10 14.3564 1.43466   9
  -2  -5  10 5.51927 1.35413  16
  -2  -5  10 7.62532 1.51991   9
  -2  -5  10 7.91955 0.84369   8
  -2  -5  10 7.72022 1.49822  10
  -1  -5  10 20.6579 2.80423   9
  -1  -5  10 23.5535 2.19305   8
  -1  -5  10 19.7580 2.46258  16
   0  -5  10 5.24749 1.17156   8
  -1   5 -10 5.21824 1.19084   8
  -2   5 -10 5.68866 1.24593   8
  -2   5 -10 4.83785 1.37367   9
  -2   5 -10 8.84533 1.73407   5
  -3   5 -10 11.2224 2.33291  12
  -3   5 -10 11.9283 1.15226   8
  -3   5 -10 9.69330 1.61522  10
  -3   5 -10 13.4800 1.94775   9
  -4   5 -10 68.7259 4.93327  10
  -4   5 -10 73.1802 4.65125   9
  -4   5 -10 76.5023 5.53788  12
  -4   5 -10 70.7301 5.55086  13
  -5   5 -10 13.6502 1.19814  10
  -5   5 -10 10.6419 1.88204  13
  -5   5 -10 8.84433 1.46955  12
  -5  -4  10 -0.2204 0.71967  16
  -5  -4  10 0.55666 0.98726  17
  -4  -4  10 124.121 7.75020  16
  -4  -4  10 104.470 8.42687  17
  -4  -4  10 121.360 7.17807  10
  -3  -4  10 168.104 10.9963  17
  -3  -4  10 148.238 10.0425  16
  -3  -4  10 156.093 9.47399   9
  -3  -4  10 162.747 9.77610  10
  -2  -4  10 51.7637 4.31255   9
  -2  -4  10 56.3069 4.31795   7
  -2  -4  10 57.7812 3.63281   8
  -2  -4  10 51.6760 4.10322  10
  -2  -4  10 53.0550 4.23427  16
  -1  -4  10 229.373 15.2430   2
  -1  -4  10 231.585 14.5496   9
  -1  -4  10 254.436 14.1640   8
   0  -4  10 26.2788 2.63962   8
  -1   4 -10 269.142 15.8762   8
  -2   4 -10 46.5448 3.54696   5
  -2   4 -10 36.9192 4.05755   2
  -2   4 -10 28.8443 4.58989   3
  -2   4 -10 47.1334 3.26522   8
  -2   4 -10 35.1472 3.60901   9
  -3   4 -10 34.4992 3.41864   5
  -3   4 -10 36.9905 3.18061  10
  -3   4 -10 34.9662 2.40083   8
  -3   4 -10 36.2011 3.11530   9
  -3   4 -10 33.2868 3.62852  12
  -4   4 -10 117.721 8.30283  12
  -4   4 -10 126.657 8.42260  13
  -4   4 -10 119.184 7.56962  10
  -4   4 -10 121.894 7.27008   9
  -5   4 -10 3.85366 1.45333  12
  -5   4 -10 4.09302 0.71098  10
  -5   4 -10 3.46009 1.50519  13
  -6   4 -10 8.76222 1.23913  12
  -6  -3  10 23.0650 1.80109  16
  -5  -3  10 27.4329 1.71011  10
  -5  -3  10 26.5872 2.34790  16
  -5  -3  10 21.0064 2.88823  17
  -5  -3  10 19.8588 1.87805  15
  -4  -3  10 10.0604 1.25446  10
  -4  -3  10 6.77117 1.13343  15
  -4  -3  10 6.71309 1.41054  16
  -4  -3  10 8.53619 2.33619  17
  -4  -3  10 5.61515 0.67945   9
  -3  -3  10 7.66909 1.62100   7
  -3  -3  10 5.79203 1.07890   9
  -3  -3  10 10.9282 2.35650  17
  -3  -3  10 8.87874 1.42442  10
  -3  -3  10 6.46816 1.62205  16
  -2  -3  10 0.14407 1.46473   3
  -2  -3  10 -0.1377 0.69653   7
  -2  -3  10 0.08522 0.40044   8
  -2  -3  10 0.63297 1.10363   2
  -2  -3  10 0.53859 0.95180   9
  -2  -3  10 0.08656 0.80250  10
  -1  -3  10 6.92136 1.64997   2
  -1  -3  10 6.46875 1.16930   8
  -1  -3  10 3.59710 1.67274   3
  -1  -3  10 5.26291 1.59090   9
  -1   3 -10 148.569 9.60380   2
  -1   3 -10 132.865 8.57998   8
  -1   3 -10 130.845 10.6282   3
  -2   3 -10 139.129 9.51343  10
  -2   3 -10 163.704 9.25518   8
  -2   3 -10 163.125 9.73625   5
  -2   3 -10 164.263 10.4400   2
  -2   3 -10 149.274 9.68150   9
  -2   3 -10 142.970 11.3462   3
  -3   3 -10 49.2895 3.62384   9
  -3   3 -10 51.1363 4.06314  13
  -3   3 -10 39.2129 4.75558   3
  -3   3 -10 53.8418 4.17756   5
  -3   3 -10 50.1404 4.11180   2
  -3   3 -10 49.8458 3.77057  10
  -3   3 -10 41.5470 4.18745  12
  -3   3 -10 50.4553 3.03867   8
  -4   3 -10 0.00157 0.80156  13
  -4   3 -10 1.53162 1.07165  11
  -4   3 -10 0.37175 1.26270  12
  -4   3 -10 1.28818 0.63038  10
  -4   3 -10 0.60198 0.57123   9
  -5   3 -10 83.4329 5.72452  12
  -5   3 -10 69.4032 5.54910  11
  -5   3 -10 87.7903 6.11880  13
  -5   3 -10 78.1751 4.78205  10
  -6   3 -10 39.8374 3.15723  12
  -6   3 -10 42.9816 3.53220  13
  -6  -2  10 10.2619 1.22236  16
  -6  -2  10 9.46472 1.96318  17
  -5  -2  10 12.0001 1.11248  10
  -5  -2  10 9.62603 1.34837  15
  -5  -2  10 12.6742 2.55950  17
  -5  -2  10 9.97808 1.68156  16
  -4  -2  10 33.6053 3.29394  16
  -4  -2  10 35.4283 2.66872   9
  -4  -2  10 39.9258 2.82434  10
  -4  -2  10 34.6065 2.75853  15
  -4  -2  10 37.8525 4.24572  17
  -3  -2  10 83.6313 5.39509  15
  -3  -2  10 85.7149 5.95634   2
  -3  -2  10 94.7857 6.15641   7
  -3  -2  10 93.1210 5.59023   9
  -3  -2  10 92.6753 5.73817  10
  -3  -2  10 78.9264 6.78992   3
  -3  -2  10 79.2267 5.91330  16
  -3  -2  10 97.1128 6.66218  17
  -3  -2  10 69.6353 4.83899   8
  -2  -2  10 379.393 20.3826   7
  -2  -2  10 354.995 22.1576   3
  -2  -2  10 323.844 20.3142  10
  -2  -2  10 355.051 19.8934   8
  -2  -2  10 336.414 20.3037   9
  -2  -2  10 372.419 21.0146   2
  -1  -2  10 67.6783 4.34286   7
  -1  -2  10 61.5821 4.38331   8
  -1  -2  10 63.8079 5.95947   3
  -1  -2  10 73.2171 5.46686   2
  -1   2 -10 58.8093 5.61500   3
  -1   2 -10 63.4454 4.30764   5
  -1   2 -10 54.6082 4.11779   8
  -1   2 -10 60.4756 4.87183   2
  -2   2 -10 1.24566 0.99467   2
  -2   2 -10 0.20904 0.46856   8
  -2   2 -10 0.28337 0.77264  10
  -2   2 -10 -0.0640 0.78066   9
  -2   2 -10 0.52467 0.61284   5
  -2   2 -10 1.27437 1.17257   3
  -3   2 -10 6.58317 1.12670  10
  -3   2 -10 7.73277 1.62912  13
  -3   2 -10 6.87450 1.74249  11
  -3   2 -10 6.40027 1.24191   2
  -3   2 -10 6.51598 1.08434   9
  -3   2 -10 3.04862 1.77858  14
  -3   2 -10 9.49717 1.81072   5
  -3   2 -10 5.91522 1.75615   3
  -3   2 -10 5.36760 1.54870  12
  -4   2 -10 1.36716 0.55760   9
  -4   2 -10 1.39592 0.61947  10
  -4   2 -10 2.02910 1.36707   5
  -4   2 -10 3.24028 1.25421  13
  -4   2 -10 1.18400 0.94685  12
  -4   2 -10 2.05295 1.51576  11
  -5   2 -10 0.38671 1.13427  12
  -5   2 -10 0.59477 0.42275  10
  -5   2 -10 1.28069 1.23563  13
  -6   2 -10 1.66681 1.12325  13
  -6   2 -10 2.20122 0.76973  12
  -6  -1  10 12.1663 2.15727  17
  -6  -1  10 7.26216 1.16653  16
  -5  -1  10 6.85157 0.96921  10
  -5  -1  10 6.96799 2.07250  17
  -5  -1  10 5.27371 1.27473  16
  -4  -1  10 146.436 9.54943  16
  -4  -1  10 154.741 9.16817   9
  -4  -1  10 148.702 10.0331   7
  -4  -1  10 158.137 9.26920  15
  -4  -1  10 147.244 10.7422  18
  -4  -1  10 161.189 10.7039  17
  -4  -1  10 162.787 9.15400  10
  -4  -1  10 138.692 9.47865   2
  -3  -1  10 53.5242 3.98099   2
  -3  -1  10 44.6444 3.13496   8
  -3  -1  10 45.9707 4.30299  17
  -3  -1  10 39.5197 4.40775   3
  -3  -1  10 51.4296 3.93844   7
  -3  -1  10 46.5092 3.47587   9
  -3  -1  10 50.1630 3.53340  10
  -2  -1  10 66.5642 4.27180   8
  -2  -1  10 59.7632 4.47767  10
  -2  -1  10 61.7135 4.55687   9
  -2  -1  10 65.7221 5.58954   3
  -2  -1  10 68.7744 4.52490   7
  -2  -1  10 71.4472 5.01719   2
  -1  -1  10 616.196 35.9966   3
  -1  -1  10 627.293 34.5108   7
  -1  -1  10 613.739 35.2574   2
   0   1 -10 26.7181 2.25947   5
  -1   1 -10 21.7891 2.49053   2
  -1   1 -10 20.8690 2.08557   5
  -1   1 -10 22.7508 2.85225   3
  -2   1 -10 461.497 26.3040   9
  -2   1 -10 453.177 26.6627   5
  -2   1 -10 472.231 27.7095   3
  -2   1 -10 460.559 26.2726  10
  -2   1 -10 478.108 26.7463   2
  -2   1 -10 457.710 26.5515  13
  -2   1 -10 476.005 26.0448   8
  -3   1 -10 4.46815 1.36880  12
  -3   1 -10 7.00760 1.60003  13
  -3   1 -10 6.18494 1.87611   3
  -3   1 -10 6.57860 1.11772   9
  -3   1 -10 7.94842 1.47025   2
  -3   1 -10 6.13195 1.72806   5
  -3   1 -10 4.15242 2.01706  14
  -3   1 -10 7.34677 1.15674  10
  -4   1 -10 136.369 11.6293  14
  -4   1 -10 188.463 11.1946  13
  -4   1 -10 181.697 10.0080  10
  -4   1 -10 168.054 10.6386  12
  -5   1 -10 42.3174 3.56908  13
  -5   1 -10 38.9336 3.30294  12
  -5   1 -10 27.3104 3.68870  14
  -5   1 -10 37.6957 2.49251  10
  -6   1 -10 31.0583 2.56445  12
  -6   1 -10 33.8481 2.72425  13
  -7   0  10 9.30364 1.50935  17
  -7   0  10 10.6926 1.04273  16
  -6   0  10 65.3431 5.46143  18
  -6   0  10 68.1410 4.57491  16
  -6   0  10 69.1319 5.44165  17
  -5   0  10 0.94448 0.57078  10
  -5   0  10 1.83496 1.28336  18
  -5   0  10 0.78727 1.38313  17
  -5   0  10 1.01895 0.66487  16
  -4   0  10 15.3642 1.90524   9
  -4   0  10 16.7930 1.90367  16
  -4   0  10 17.4105 2.32631   2
  -4   0  10 17.3903 2.99222  18
  -4   0  10 18.7869 1.79596  10
  -4   0  10 19.6480 2.61259   7
  -4   0  10 21.7671 3.05228  17
  -3   0  10 93.4747 5.82754  10
  -3   0  10 80.0159 5.55418   8
  -3   0  10 96.2294 6.30269   7
  -3   0  10 97.6141 6.53636   2
  -3   0  10 88.5505 6.77130   3
  -3   0  10 91.4038 6.03353   9
  -3   0  10 88.4538 6.60192  17
  -2   0  10 0.68459 0.72920   3
  -2   0  10 0.23949 0.72022   2
  -2   0  10 0.70467 0.61360   7
  -2   0  10 -0.0623 0.57612   8
   1   0 -10 43.8358 3.25530   5
  -1   0  10 48.6049 3.32064   7
  -1   0  10 49.0522 4.02513   2
  -1   0  10 47.3865 4.05160   3
   0   0 -10 -0.0896 0.50689   5
   0   0 -10 0.18790 0.52903   3
   0   0 -10 -0.1720 0.78225   2
   0   0  10 0.39648 0.44996   7
  -1   0 -10 0.54005 0.77969   5
  -1   0 -10 -0.4794 0.63850   8
  -1   0 -10 0.75167 0.74997   3
  -1   0 -10 0.52552 0.84880   2
  -2   0 -10 29.5283 2.65360   9
  -2   0 -10 38.1346 3.44353   2
  -2   0 -10 29.8414 2.62778  10
  -2   0 -10 33.9666 3.06433   5
  -2   0 -10 33.5349 2.61377   8
  -2   0 -10 28.4079 2.85019  13
  -2   0 -10 32.5200 3.29395   3
  -3   0 -10 22.3320 2.72496  13
  -3   0 -10 19.0201 2.47017   3
  -3   0 -10 21.9802 2.68354   2
  -3   0 -10 23.1352 2.26950   9
  -3   0 -10 23.4435 2.00697  10
  -3   0 -10 25.3183 2.76451   5
  -3   0 -10 19.7148 3.48537  14
  -3   0 -10 17.2928 2.18783  12
  -4   0 -10 11.4238 1.37176  10
  -4   0 -10 9.93060 1.70492  12
  -4   0 -10 9.29863 2.52067  14
  -5   0 -10 69.9436 5.25273  13
  -5   0 -10 75.2772 5.08428  12
  -5   0 -10 68.8136 6.30427  14
  -6   0 -10 4.82488 1.20698  14
  -6   0 -10 4.49091 0.82525  13
  -7   1  10 7.87752 1.20801  17
  -7   1  10 1.70220 0.86292  18
  -6   1  10 8.09374 1.27251  16
  -6   1  10 14.7841 2.55039  18
  -6   1  10 14.1753 2.24466  17
  -5   1  10 311.884 18.9931  18
  -5   1  10 285.028 16.7237  10
  -5   1  10 273.759 16.7459  16
  -5   1  10 294.639 17.9344  17
  -4   1  10 107.278 6.42095  10
  -4   1  10 97.4335 7.26640  17
  -4   1  10 90.6139 6.22153  16
  -4   1  10 98.6714 6.93537   7
  -4   1  10 91.1083 6.96484   2
  -4   1  10 102.292 8.01365  18
  -4   1  10 100.152 6.60481   9
  -3   1  10 1.81896 0.89139  10
  -3   1  10 1.69586 0.83185   3
  -3   1  10 1.57335 1.04339   9
  -3   1  10 1.53013 1.37442  17
  -3   1  10 1.05433 1.15384   2
  -3   1  10 2.24492 1.03251   7
  -3   1  10 3.40138 0.86550   8
  -2   1  10 377.948 21.7145   8
  -2   1  10 404.398 22.6775   2
  -2   1  10 358.257 22.2859   3
  -2   1  10 398.309 21.7577   7
  -2   1  10 356.470 21.9798   9
  -1   1  10 14.6456 2.10743   3
   0  -1 -10 182.537 10.8861   5
   0  -1 -10 180.730 11.6692   3
   0  -1 -10 175.057 11.6212   2
  -1  -1 -10 271.648 15.1638   8
  -1  -1 -10 259.080 15.4498   5
  -1  -1 -10 250.915 15.8342   3
  -1  -1 -10 223.635 15.1392   9
  -1  -1 -10 282.288 16.1692   2
  -2  -1 -10 4.42337 1.54100   5
  -2  -1 -10 2.69704 1.07113  10
  -2  -1 -10 3.71969 1.18331   3
  -2  -1 -10 2.49552 1.62478   2
  -2  -1 -10 3.96432 1.29758   9
  -2  -1 -10 1.16856 1.20546  13
  -2  -1 -10 3.49321 1.59429  14
  -2  -1 -10 4.04564 1.04577   8
  -3  -1 -10 114.149 7.14933  10
  -3  -1 -10 106.701 7.51629  13
  -3  -1 -10 115.530 8.04257   5
  -3  -1 -10 114.859 7.30537   9
  -3  -1 -10 105.422 7.27300  12
  -3  -1 -10 112.061 9.20217  14
  -4  -1 -10 34.5667 2.78227  10
  -4  -1 -10 34.1274 2.93539  12
  -4  -1 -10 29.9973 3.13880  13
  -4  -1 -10 34.5605 4.57828  14
  -5  -1 -10 0.65584 1.30507  14
  -5  -1 -10 0.35726 0.66868  13
  -7   2  10 15.9229 1.57102  17
  -6   2  10 19.1993 2.40344  17
  -6   2  10 17.8184 1.39244  10
  -6   2  10 21.4360 3.08683  18
  -5   2  10 10.5548 1.55057  10
  -5   2  10 13.5093 2.73448  18
  -5   2  10 10.0879 2.05040  17
  -4   2  10 61.2481 5.56960   2
  -4   2  10 76.2556 5.06329  10
  -4   2  10 67.3205 4.98896   9
  -4   2  10 64.5391 5.17860   7
  -4   2  10 75.3438 6.30013  18
  -4   2  10 61.8031 5.32059  17
  -3   2  10 71.4875 5.44321   9
  -3   2  10 67.6912 5.00592   7
  -3   2  10 67.0256 5.86028   2
  -3   2  10 67.0706 4.72767   8
  -3   2  10 66.2480 5.05568  10
  -3   2  10 67.7869 5.37504   3
  -3   2  10 70.4678 6.00291  18
  -2   2  10 34.7633 3.62594   3
  -2   2  10 39.9783 3.34930   8
  -2   2  10 33.1472 3.84341   9
  -2   2  10 38.5357 4.08590   2
   0  -2 -10 0.87782 1.34836   8
  -1  -2 -10 46.7906 3.60352   8
  -1  -2 -10 39.4675 3.92949   3
  -1  -2 -10 44.3159 4.58253   2
  -1  -2 -10 38.4488 3.98192   9
  -2  -2 -10 192.775 12.6379   5
  -2  -2 -10 184.910 13.0327   2
  -2  -2 -10 205.063 12.3882   9
  -2  -2 -10 210.797 13.8334  14
  -2  -2 -10 208.143 12.2692  10
  -2  -2 -10 187.570 11.4265   8
  -3  -2 -10 60.4769 5.98004  14
  -3  -2 -10 58.7648 4.40410  10
  -3  -2 -10 55.1826 4.17717  15
  -3  -2 -10 55.9887 4.18997   9
  -4  -2 -10 61.0580 5.50591  14
  -4  -2 -10 57.4383 3.91804  10
  -4  -2 -10 53.0448 4.12690  13
  -5  -2 -10 55.6156 3.88130  13
  -5  -2 -10 70.1322 4.82290  14
  -7   3  10 0.06304 0.61130  18
  -6   3  10 34.0598 3.50342  18
  -6   3  10 34.1805 2.72727  17
  -6   3  10 32.7292 2.32305  10
  -5   3  10 19.0980 3.09466  18
  -5   3  10 17.8873 2.63171  11
  -5   3  10 17.9823 1.88178  10
  -5   3  10 14.9450 1.39820   9
  -4   3  10 16.6013 2.82473  11
  -4   3  10 12.9839 2.06374   9
  -4   3  10 9.62800 2.36680  18
  -4   3  10 14.9116 2.06452  10
  -3   3  10 92.2367 6.61637   4
  -3   3  10 77.8832 7.14572   2
  -3   3  10 83.3035 5.78940   8
  -3   3  10 86.4693 6.52624   9
  -3   3  10 85.9571 6.28559  10
  -3   3  10 87.2701 7.10699  18
  -2   3  10 168.339 10.7027   8
   0  -3 -10 77.8982 5.89838   8
  -1  -3 -10 -0.0080 1.06191   6
  -1  -3 -10 0.31748 2.31771   2
  -1  -3 -10 -0.0974 0.96840  14
  -1  -3 -10 0.44579 0.82839   8
  -1  -3 -10 1.46859 1.58504   9
  -2  -3 -10 1.39677 0.97030  15
  -2  -3 -10 0.54111 0.83486   9
  -2  -3 -10 1.16127 1.21979  10
  -2  -3 -10 0.65218 1.43377  14
  -3  -3 -10 27.6746 2.67677  10
  -3  -3 -10 28.2914 2.12890   9
  -3  -3 -10 27.3793 2.52822  15
  -3  -3 -10 28.0165 3.47374  14
  -4  -3 -10 10.8985 1.97225  14
  -4  -3 -10 15.6948 1.27816  10
  -6   4  10 0.02299 1.03352  11
  -6   4  10 0.64954 0.43469  10
  -6   4  10 1.16344 0.84880  18
  -5   4  10 11.4347 2.05238  11
  -5   4  10 8.02068 1.01825   9
  -5   4  10 9.05177 2.03865  18
  -5   4  10 7.81879 1.42979  10
  -4   4  10 0.26839 1.09752  10
  -4   4  10 0.29346 1.44433  18
  -4   4  10 1.18291 1.14986  11
  -3   4  10 27.3942 3.14132   9
  -3   4  10 29.9168 2.63094   8
  -3   4  10 18.7204 3.08018  18
  -2   4  10 53.3529 4.40214   8
   1  -4 -10 146.820 9.80936   8
   0  -4 -10 0.47209 1.08038   8
  -1  -4 -10 72.0173 4.83566   8
  -1  -4 -10 76.3475 5.97055   9
  -2  -4 -10 -0.1594 1.00595  14
  -2  -4 -10 0.18425 1.18671  10
  -2  -4 -10 0.60068 1.01645   9
  -2  -4 -10 1.19733 0.73009  15
  -3  -4 -10 44.7027 3.24629  15
  -3  -4 -10 46.4739 3.31203  10
  -6   5  10 14.7623 1.05644  10
  -5   5  10 100.497 6.91283  11
  -5   5  10 100.941 6.38211  10
  -4   5  10 21.1710 2.71470  10
  -4   5  10 23.3210 2.48154   9
  -4   5  10 28.8888 3.03808  11
  -3   5  10 29.6209 3.66496   9
  -3   5  10 29.1175 2.49284   8
  -2   5  10 104.231 7.13976   8
   1  -5 -10 114.715 7.57136   8
  -1   5  10 105.829 7.72168   8
   0  -5 -10 3.24881 1.00339   8
   0  -5 -10 1.48502 1.51904   9
  -1  -5 -10 11.0795 2.00105   9
  -1  -5 -10 6.84319 1.28866  15
  -2  -5 -10 0.28343 0.70616  10
  -2  -5 -10 0.23608 0.58350  15
  -2  -5 -10 0.07362 0.45755   9
  -5   6  10 10.1336 1.04041  10
  -4   6  10 5.21462 1.18535  11
  -4   6  10 2.41320 0.91025  10
  -4   6  10 4.27413 0.89969   9
  -3   6  10 39.3464 3.26741   9
  -3   6  10 28.9088 2.12506   8
  -3   6  10 34.2811 3.13856  11
   2  -6 -10 59.6601 4.38987   8
  -2   6  10 59.3061 4.17699   8
   1  -6 -10 11.9402 1.39299   8
  -1   6  10 8.73693 1.72097   8
   0  -6 -10 128.295 7.37064  15
   0  -6 -10 106.834 6.70177   8
   0  -6 -10 129.066 7.75590   9
  -1  -6 -10 12.3960 1.35350  15
  -1  -6 -10 13.5835 1.27047   9
  -1  -7  11 3.87028 0.97053   9
   0   7 -11 72.0585 4.76183   8
   0  -7  11 62.9389 4.16647   8
  -1   7 -11 5.06708 0.99365   8
   1  -7  11 4.04469 0.95640   8
  -2   7 -11 3.49799 1.15156   9
  -2   7 -11 4.56270 0.75241   8
  -3   7 -11 91.4081 6.27548  13
  -3   7 -11 110.947 6.33622   9
  -3  -6  11 5.09611 0.75990  10
  -2  -6  11 75.7360 5.06110  16
  -2  -6  11 68.5964 4.78252   9
  -2  -6  11 80.2896 5.17810  10
  -2  -6  11 75.3462 5.40585  17
  -1  -6  11 53.7667 3.41086   8
  -1  -6  11 48.2679 4.08595   9
   0  -6  11 15.6011 1.76479   8
  -1   6 -11 108.066 6.88503   8
   1  -6  11 99.1672 6.94598   8
  -2   6 -11 6.78059 1.13385   8
  -2   6 -11 6.68416 1.77258   9
  -3   6 -11 1.68423 0.81023   9
  -3   6 -11 2.05706 0.84362  13
  -4   6 -11 34.5070 2.89627  13
  -4   6 -11 35.2300 3.15728  12
  -4   6 -11 37.7322 2.37861   9
  -4   6 -11 31.3471 2.57122  10
  -5   6 -11 -0.1068 0.25106  10
  -4  -5  11 0.55736 0.91497  17
  -4  -5  11 1.76002 0.47341  10
  -4  -5  11 1.87308 0.67102  16
  -3  -5  11 0.01802 0.71384  16
  -3  -5  11 -0.0008 0.72579  10
  -3  -5  11 -0.5090 0.87031  17
  -3  -5  11 0.51915 0.45347   9
  -2  -5  11 5.30211 0.61499   8
  -2  -5  11 4.19580 1.34907  16
  -2  -5  11 5.04410 1.15939  10
  -2  -5  11 10.4746 1.92194  17
  -2  -5  11 5.73176 1.24911   9
  -1  -5  11 19.8433 2.76340   9
  -1  -5  11 23.5878 2.05015   8
   0  -5  11 0.71379 0.91168   8
  -1   5 -11 -0.0527 0.64253   8
  -2   5 -11 2.30827 1.46280   9
  -2   5 -11 3.80669 0.94071   8
  -3   5 -11 27.7893 2.59548   9
  -3   5 -11 22.9576 2.60238  10
  -3   5 -11 22.3137 1.65759   8
  -3   5 -11 28.1457 2.57905  13
  -4   5 -11 4.92268 1.43550  13
  -4   5 -11 3.86433 1.21986  12
  -4   5 -11 4.32599 0.99921  10
  -4   5 -11 4.39396 0.80089   9
  -5   5 -11 87.9453 5.95061  13
  -5   5 -11 90.0759 5.32038  10
  -5  -4  11 4.43750 0.78923  16
  -4  -4  11 10.6523 2.27245  17
  -4  -4  11 7.79227 1.47560  16
  -4  -4  11 12.8790 1.28335  10
  -3  -4  11 81.1352 6.04858  17
  -3  -4  11 67.0315 4.82600  10
  -3  -4  11 63.4360 4.95161  16
  -3  -4  11 67.4768 4.51862   9
  -2  -4  11 16.0549 2.03959   9
  -2  -4  11 18.1996 2.25129   7
  -2  -4  11 15.6854 1.43923   8
  -2  -4  11 14.8256 2.14271  10
  -1  -4  11 8.78419 1.37003   7
  -1  -4  11 7.43765 1.29873   8
  -1  -4  11 6.09172 1.77753   9
   0  -4  11 91.5844 6.25696   8
  -1   4 -11 173.216 10.7716   8
  -2   4 -11 -0.4494 1.13282   9
  -2   4 -11 0.85499 1.78496   2
  -2   4 -11 0.45683 0.63548   8
  -2   4 -11 0.78419 1.21347   5
  -3   4 -11 4.92975 1.26749  10
  -3   4 -11 4.31138 0.61742   8
  -3   4 -11 6.21049 1.15633   9
  -3   4 -11 4.88614 1.30852  13
  -4   4 -11 40.4789 3.84051  12
  -4   4 -11 51.5862 3.27682   9
  -4   4 -11 52.4463 4.20226  13
  -4   4 -11 48.2650 3.47820  10
  -5   4 -11 1.28492 0.46861  10
  -5   4 -11 1.59875 0.96575  13
  -5   4 -11 1.29349 0.90195  12
  -6   4 -11 4.26692 0.89796  13
  -5  -3  11 0.43364 0.30060  10
  -5  -3  11 0.47582 0.58377  16
  -5  -3  11 1.11191 1.08381  17
  -4  -3  11 0.95248 0.58195  10
  -4  -3  11 1.16437 1.07307  17
  -4  -3  11 0.57699 0.36678   9
  -4  -3  11 0.30633 0.91556  16
  -3  -3  11 173.835 11.5269  16
  -3  -3  11 182.833 11.0857   9
  -3  -3  11 199.280 12.3293  17
  -3  -3  11 194.797 11.7494   7
  -3  -3  11 189.389 11.4107  10
  -2  -3  11 5.06091 1.34741   9
  -2  -3  11 2.63375 1.73504   3
  -2  -3  11 6.30948 1.64088   2
  -2  -3  11 10.4422 1.58079   7
  -2  -3  11 6.70955 1.33088  10
  -2  -3  11 8.89125 1.07422   8
  -1  -3  11 151.094 10.5513   2
  -1  -3  11 157.449 9.18825   7
  -1  -3  11 133.756 11.4233   3
  -1  -3  11 156.000 9.24300   8
  -1   3 -11 228.559 13.5924   8
  -2   3 -11 12.8827 1.82528   9
  -2   3 -11 15.6960 2.08740   5
  -2   3 -11 13.9424 2.35571   2
  -2   3 -11 15.2379 1.52346   8
  -2   3 -11 6.93470 2.41685   3
  -2   3 -11 11.3228 1.70308  10
  -3   3 -11 223.750 14.2194   5
  -3   3 -11 242.859 14.2167  13
  -3   3 -11 232.506 13.5592   9
  -3   3 -11 219.557 12.9006   8
  -3   3 -11 242.400 13.7172  10
  -4   3 -11 139.691 8.09660   9
  -4   3 -11 122.770 8.87541  12
  -4   3 -11 141.804 8.39522  10
  -4   3 -11 151.759 9.38000  13
  -5   3 -11 1.79930 0.48587  10
  -5   3 -11 1.81062 1.24700  13
  -5   3 -11 2.27228 0.96509  12
  -6   3 -11 1.74432 0.83731  13
  -6   3 -11 -0.2971 0.55244  12
  -6  -2  11 28.2880 2.01434  16
  -6  -2  11 20.4458 2.41500  17
  -5  -2  11 2.05797 1.28714  17
  -5  -2  11 1.30879 0.89159  16
  -5  -2  11 2.45801 0.60192  10
  -4  -2  11 2.60312 1.56492  17
  -4  -2  11 2.18983 0.76477   9
  -4  -2  11 2.07014 0.63929  10
  -4  -2  11 1.77980 1.05501  16
  -3  -2  11 795.288 43.0123  17
  -3  -2  11 729.452 41.2155   8
  -3  -2  11 785.852 42.0940  10
  -3  -2  11 665.868 43.8703   3
  -3  -2  11 707.257 42.3200   2
  -3  -2  11 804.519 41.9647   9
  -3  -2  11 771.836 42.4169   7
  -2  -2  11 19.6857 2.38455   2
  -2  -2  11 12.3794 1.89388  10
  -2  -2  11 14.3683 1.95166   9
  -2  -2  11 14.1195 2.94952   3
  -2  -2  11 18.4051 1.61630   8
  -2  -2  11 19.8897 1.96260   7
  -1  -2  11 195.551 10.9142   7
  -1  -2  11 175.041 12.8580   3
  -1  -2  11 185.231 11.8830   2
  -1  -2  11 175.694 10.8650   8
  -1   2 -11 29.4300 2.55433   8
  -1   2 -11 30.9435 2.67876   5
  -1   2 -11 27.0651 3.17095   2
  -2   2 -11 6.02682 1.39337   5
  -2   2 -11 2.60496 1.60593   3
  -2   2 -11 3.96222 1.12134   9
  -2   2 -11 5.02889 1.46100   2
  -2   2 -11 4.81490 1.17256  10
  -2   2 -11 5.44288 0.87839   8
  -3   2 -11 31.8841 2.57758   9
  -3   2 -11 34.9827 3.22339   2
  -3   2 -11 33.0592 3.34960   5
  -3   2 -11 26.9035 3.72469  14
  -3   2 -11 36.9733 3.38885  13
  -3   2 -11 36.6132 2.83418  10
  -4   2 -11 4.92334 1.50004  12
  -4   2 -11 7.89515 1.03309   9
  -4   2 -11 8.16904 1.81426  13
  -4   2 -11 7.58265 1.02783  10
  -5   2 -11 0.66504 0.81157  12
  -5   2 -11 0.14974 0.44041  10
  -5   2 -11 0.29100 0.71435  13
  -6   2 -11 0.56286 0.59895  13
  -6   2 -11 1.31049 0.60966  12
  -6  -1  11 13.9843 1.56129  16
  -6  -1  11 18.1491 2.54547  17
  -5  -1  11 1.54076 0.59175  10
  -5  -1  11 1.76940 1.13482  17
  -5  -1  11 1.73124 1.44944  18
  -4  -1  11 113.903 7.74712  16
  -4  -1  11 124.198 7.48844   9
  -4  -1  11 126.933 7.45313  10
  -4  -1  11 119.596 8.21802   7
  -4  -1  11 107.000 8.92572  18
  -4  -1  11 130.985 8.78694  17
  -3  -1  11 14.9471 2.19400   2
  -3  -1  11 14.4856 1.61057  10
  -3  -1  11 16.8005 2.57146  17
  -3  -1  11 17.6136 1.85541   9
  -3  -1  11 13.6334 2.00239   7
  -3  -1  11 9.34424 2.25162   3
  -3  -1  11 15.4378 1.45651   8
  -2  -1  11 73.0661 4.50906   8
  -2  -1  11 73.4569 4.74375   7
  -2  -1  11 59.5862 4.67560  10
  -2  -1  11 68.3650 5.89667   3
  -2  -1  11 63.8479 4.86401  17
  -2  -1  11 72.2043 5.23940   2
  -2  -1  11 64.7337 4.81060   9
  -1  -1  11 40.7187 3.69916   2
  -1  -1  11 41.8699 4.24713   3
  -1  -1  11 48.3598 3.14318   7
  -1  -1  11 34.6406 3.03340   8
   0   1 -11 103.169 6.64670   5
   0  -1  11 104.927 6.37695   7
  -1   1 -11 120.518 8.25809   2
  -1   1 -11 126.449 7.57250   8
  -1   1 -11 118.157 8.96597   3
  -1   1 -11 126.821 7.93618   5
  -2   1 -11 1.59254 1.09672   3
  -2   1 -11 3.98450 1.07743   9
  -2   1 -11 3.28487 1.20974   2
  -2   1 -11 3.21565 0.76896   8
  -2   1 -11 1.34776 0.86745  10
  -2   1 -11 1.72666 0.83911  13
  -2   1 -11 3.76663 1.26960   5
  -3   1 -11 171.641 10.4938   9
  -3   1 -11 185.354 10.5679  10
  -3   1 -11 185.301 12.6640  14
  -3   1 -11 160.267 11.2123   5
  -3   1 -11 185.476 11.2063  13
  -3   1 -11 169.209 10.9983   2
  -4   1 -11 73.8322 5.70417  12
  -4   1 -11 93.3454 6.33122  13
  -4   1 -11 83.4301 7.13553  14
  -4   1 -11 88.4167 5.34348  10
  -5   1 -11 10.3060 0.94710  10
  -5   1 -11 10.0890 1.71347  12
  -5   1 -11 8.99343 2.19928  14
  -5   1 -11 9.40715 1.57334  13
  -6   1 -11 12.7066 1.39426  13
  -6   0  11 12.9206 2.21008  17
  -6   0  11 11.2398 1.39342  16
  -5   0  11 78.5621 5.32969  16
  -5   0  11 82.4767 5.16612  10
  -5   0  11 69.0405 6.77113  18
  -5   0  11 87.1602 6.39170  17
  -4   0  11 5.34340 1.25749  16
  -4   0  11 7.62830 2.03776  17
  -4   0  11 6.92651 2.04054  18
  -4   0  11 4.46590 1.53488   7
  -4   0  11 7.35429 1.14373  10
  -4   0  11 6.43803 1.27183   9
  -3   0  11 46.6243 3.78288   7
  -3   0  11 47.7428 3.80854   9
  -3   0  11 45.7185 4.04493  17
  -3   0  11 49.0957 3.40937   8
  -3   0  11 45.1063 3.52207  10
  -3   0  11 50.6792 4.30632   2
  -2   0  11 0.19085 0.66897   9
  -2   0  11 0.05074 0.76847   3
  -2   0  11 0.88720 0.59041   7
  -2   0  11 0.52028 0.63166   8
  -2   0  11 0.17329 0.97845  17
  -2   0  11 0.38623 1.05108   2
  -1   0  11 0.12012 0.80086   8
  -1   0  11 0.81351 0.54385   7
   0   0 -11 0.91558 0.74152   5
   0   0 -11 -0.1770 0.87362   8
  -1   0 -11 29.6153 2.68337   5
  -1   0 -11 25.6407 2.29710   8
  -1   0 -11 26.6057 3.05263   2
  -1   0 -11 22.1862 2.43619   9
  -1   0 -11 22.3261 2.85887   3
  -2   0 -11 45.8329 3.67171   9
  -2   0 -11 49.8440 4.16930   2
  -2   0 -11 46.1047 4.05604   5
  -2   0 -11 41.9676 4.15814   3
  -2   0 -11 51.1547 3.47286   8
  -2   0 -11 44.4404 3.88644  13
  -2   0 -11 42.0554 3.48049  10
  -3   0 -11 7.13865 1.21298  10
  -3   0 -11 5.11752 1.47931  13
  -3   0 -11 5.99935 1.47232   5
  -3   0 -11 7.86409 2.21185  14
  -3   0 -11 6.49626 1.36814   9
  -4   0 -11 266.069 16.6340  14
  -4   0 -11 237.764 14.6293  12
  -4   0 -11 238.526 14.8987  13
  -4   0 -11 248.655 14.2297  10
  -5   0 -11 0.53256 0.98773  14
  -5   0 -11 0.11820 0.85809  13
  -5   0 -11 -0.1386 0.69881  12
  -7   1  11 3.50796 0.78382  17
  -6   1  11 43.5944 4.58201  18
  -6   1  11 65.5967 4.60692  17
  -5   1  11 13.3526 1.56488  10
  -5   1  11 11.2416 1.38179  16
  -5   1  11 11.4008 2.59842  18
  -5   1  11 11.6811 2.22940  17
  -4   1  11 31.7804 3.05611   9
  -4   1  11 34.9561 2.88505  10
  -4   1  11 33.1781 3.31583   7
  -4   1  11 32.7131 3.57035  17
  -4   1  11 36.7144 4.48739  18
  -3   1  11 151.882 9.35105  10
  -3   1  11 151.649 9.64692   9
  -3   1  11 154.737 9.61903   7
  -3   1  11 147.344 9.13362   8
  -3   1  11 148.184 10.1770   2
  -2   1  11 0.27771 0.75557   3
  -2   1  11 0.39316 0.74406   8
  -2   1  11 0.30839 0.93731   9
  -2   1  11 -0.1464 0.66631   7
  -2   1  11 1.11817 1.12785   2
  -1   1  11 255.117 15.1151   8
   0  -1 -11 84.1187 5.87274   8
  -1  -1 -11 0.14642 0.86681   9
  -1  -1 -11 0.53122 0.98532   3
  -1  -1 -11 0.07710 0.81229   8
  -1  -1 -11 0.32067 1.05155   5
  -1  -1 -11 1.51520 1.45938   2
  -2  -1 -11 4.73198 1.27484  10
  -2  -1 -11 5.28943 1.92237  14
  -2  -1 -11 5.26055 1.06950   8
  -2  -1 -11 2.21765 1.10344   3
  -2  -1 -11 3.17349 1.54797   2
  -2  -1 -11 4.01272 1.26362   9
  -2  -1 -11 2.17039 1.57478   5
  -3  -1 -11 30.3364 3.10590  13
  -3  -1 -11 39.6582 4.47963  14
  -3  -1 -11 38.5527 2.96005  10
  -3  -1 -11 35.1481 3.07683   9
  -4  -1 -11 1.13427 1.05951  13
  -4  -1 -11 1.49634 0.72970  10
  -4  -1 -11 -0.2234 1.43230  14
  -5  -1 -11 5.02003 1.06444  13
  -5  -1 -11 6.68368 1.49495  14
  -6   2  11 2.97986 1.40734  18
  -6   2  11 3.18756 0.53433  10
  -6   2  11 3.74837 1.14724  17
  -5   2  11 0.47604 0.54059  10
  -5   2  11 0.76562 0.99951  18
  -5   2  11 0.82076 1.16261  17
  -4   2  11 0.58776 0.83417  10
  -4   2  11 2.13303 1.35153   7
  -4   2  11 0.28511 0.94743  18
  -4   2  11 1.00785 0.97899   9
  -3   2  11 12.2793 1.96403  10
  -3   2  11 13.8500 2.58627  18
  -3   2  11 10.9489 2.70545   2
  -3   2  11 8.87236 1.87708   3
  -3   2  11 10.3502 1.93193   9
  -3   2  11 12.2615 1.66282   8
  -3   2  11 7.91708 1.55387   7
  -2   2  11 1.14678 1.57718   9
  -2   2  11 1.06514 0.96095   8
  -2   2  11 0.03199 1.59589   2
  -2   2  11 0.55697 0.98491   3
  -1   2  11 26.5455 3.03078   8
   0  -2 -11 591.836 33.7779   8
  -1  -2 -11 60.3902 5.80344   2
  -1  -2 -11 58.7381 4.85076   9
  -1  -2 -11 52.4695 5.07488   3
  -1  -2 -11 69.0428 4.62629   8
  -2  -2 -11 10.4228 2.53023  14
  -2  -2 -11 12.3361 1.96457  10
  -2  -2 -11 7.33337 1.34709  15
  -2  -2 -11 11.9266 2.06577   9
  -2  -2 -11 10.4440 1.04148   8
  -3  -2 -11 28.3940 2.47308   9
  -3  -2 -11 25.9303 3.46083  14
  -3  -2 -11 29.7362 2.72285  10
  -4  -2 -11 31.2550 3.44335  14
  -4  -2 -11 29.3229 2.28018  10
  -5  -2 -11 9.82692 1.36789  14
  -6   3  11 3.46455 0.59858  10
  -6   3  11 3.71734 1.28815  18
  -5   3  11 7.32354 0.77610   9
  -5   3  11 6.45878 1.28122  10
  -5   3  11 8.45360 1.99369  18
  -4   3  11 38.8886 3.61291   9
  -4   3  11 37.1703 4.09331  11
  -4   3  11 42.3860 3.60136  10
  -4   3  11 39.7140 4.50421  18
  -3   3  11 136.453 9.93580  18
  -3   3  11 128.235 9.21194   4
  -3   3  11 138.098 9.44653  10
  -3   3  11 136.326 8.61657   8
  -3   3  11 144.474 9.45323   9
  -2   3  11 79.7700 5.85796   8
  -1   3  11 734.925 42.1915   8
   0  -3 -11 0.98932 1.23015   8
  -1  -3 -11 51.8972 3.84345   8
  -1  -3 -11 47.3768 4.93438  14
  -1  -3 -11 56.2903 4.65783   9
  -2  -3 -11 14.3015 2.58391  14
  -2  -3 -11 14.6183 2.09135   9
  -2  -3 -11 14.8331 2.01627  10
  -2  -3 -11 10.7999 1.63228  15
  -3  -3 -11 2.87535 1.04345  15
  -3  -3 -11 1.85323 1.10926  14
  -3  -3 -11 3.40036 1.01152  10
  -4  -3 -11 1.90211 0.87260  14
  -4  -3 -11 2.56861 0.45645  10
  -6   4  11 3.46482 0.94294  18
  -6   4  11 3.78852 0.53173  10
  -5   4  11 10.6413 2.06974  18
  -5   4  11 12.3389 1.80850  11
  -5   4  11 14.8278 1.72788  10
  -5   4  11 11.9916 0.86066   9
  -4   4  11 36.2090 3.28750   9
  -4   4  11 33.8709 3.61992  11
  -4   4  11 31.6397 3.16071  10
  -4   4  11 29.7211 3.65900  18
  -3   4  11 7.45218 2.03305   9
  -3   4  11 4.94680 1.88118  18
  -3   4  11 7.82691 1.41760   8
  -2   4  11 5.59454 1.53998   8
   1  -4 -11 8.81870 2.03109   8
  -1   4  11 12.3505 2.18620   8
   0  -4 -11 102.672 6.89139   8
  -1  -4 -11 2.99417 1.31097   9
  -1  -4 -11 1.71291 0.59420   8
  -2  -4 -11 133.761 8.34294  10
  -2  -4 -11 132.442 8.08252  15
  -2  -4 -11 145.272 8.16204   9
  -2  -4 -11 109.831 8.54730  14
  -3  -4 -11 43.3027 3.16493  15
  -3  -4 -11 56.5668 3.32455  10
  -3  -4 -11 45.3509 3.57200  14
  -5   5  11 68.8604 4.52562  10
  -4   5  11 0.09592 0.80126  11
  -4   5  11 0.59128 1.17398  10
  -4   5  11 -0.3507 0.84637   9
  -3   5  11 13.8150 1.45326   8
  -3   5  11 15.1824 2.35461   9
  -2   5  11 2.73217 1.18111   8
   1  -5 -11 9.63681 1.76414   8
  -1   5  11 8.98923 1.97724   8
   0  -5 -11 12.4721 2.56518   9
   0  -5 -11 14.2110 1.51180   8
  -1  -5 -11 1.68359 1.14285   9
  -1  -5 -11 1.65081 0.67098  15
  -2  -5 -11 0.77863 0.60802  10
  -2  -5 -11 -0.2472 0.48465  15
  -4   6  11 18.4411 1.91922  11
  -4   6  11 20.6676 1.70786   9
  -3   6  11 2.11310 0.81049  11
  -3   6  11 4.23069 1.42456   9
   2  -6 -11 24.2877 2.18859   8
  -2   6  11 24.9356 2.05048   8
  -1   6  11 88.2738 5.73847   8
   0  -6 -11 4.85193 1.11772   9
   0  -6 -11 4.12782 0.78923  15
  -1  -7  12 0.66169 0.55796   9
   0   7 -12 0.60106 0.65863   8
   0  -7  12 0.15791 0.29496   8
  -1   7 -12 7.40303 1.04345   8
   1  -7  12 6.54697 0.98455   8
  -2   7 -12 49.2198 3.10682   8
  -2   7 -12 54.8382 3.98736   9
  -3   7 -12 0.81868 0.93436  13
  -3   7 -12 1.77483 0.74381   9
  -3  -6  12 21.9549 1.63992  10
  -2  -6  12 85.6506 5.57230  10
  -2  -6  12 92.3725 5.37639   9
  -2  -6  12 77.4920 5.73164  17
  -1  -6  12 32.4418 2.19984   8
  -1  -6  12 29.4538 2.91979   9
   0   6 -12 123.946 8.30428   8
   0  -6  12 133.721 8.00511   8
  -1   6 -12 7.68600 1.31228   8
   1  -6  12 4.88441 1.39077   8
  -2   6 -12 106.838 6.60362   8
  -2   6 -12 110.413 7.25823   9
  -3   6 -12 0.72194 0.63715   9
  -3   6 -12 0.42586 0.66405  13
  -4   6 -12 26.1160 1.64378   9
  -4   6 -12 25.6241 1.96287  10
  -4   6 -12 23.5648 2.21568  13
  -4  -5  12 0.22406 0.80337  17
  -4  -5  12 -0.1320 0.30424  10
  -3  -5  12 1.13484 0.60511  10
  -3  -5  12 1.50289 0.49889   9
  -3  -5  12 1.97383 1.31285  17
  -2  -5  12 99.6892 6.33625   9
  -2  -5  12 99.1331 6.77521  17
  -2  -5  12 86.1156 6.37276  10
  -1  -5  12 2.25769 0.72431   8
  -1  -5  12 2.04474 1.12063   9
   0  -5  12 47.3261 3.78316   8
  -1   5 -12 9.57864 1.59614   8
  -2   5 -12 34.7882 2.69746   8
  -2   5 -12 32.3813 3.38318   9
  -3   5 -12 49.9126 4.06965  10
  -3   5 -12 54.2787 4.13255  13
  -3   5 -12 57.0439 4.02677   9
  -4   5 -12 63.7847 4.24667  10
  -4   5 -12 61.5797 4.63277  13
  -4   5 -12 66.3985 3.95147   9
  -5   5 -12 0.40155 0.35113  10
  -5   5 -12 -0.0675 0.69260  13
  -4  -4  12 28.5647 2.57109  16
  -4  -4  12 32.3531 2.36384  10
  -4  -4  12 40.8812 3.51775  17
  -3  -4  12 3.66326 0.84714   9
  -3  -4  12 2.69761 0.96076  10
  -3  -4  12 5.44916 1.49844  17
  -2  -4  12 105.327 6.77591   9
  -2  -4  12 99.8319 6.02100   8
  -2  -4  12 95.1970 6.74383  10
  -1  -4  12 41.6480 4.24077   9
  -1  -4  12 46.0556 3.62144   7
  -1  -4  12 49.6213 3.52366   8
   0  -4  12 -0.2632 0.86138   8
  -1   4 -12 8.00785 1.45127   8
  -2   4 -12 -0.1722 0.54005   8
  -2   4 -12 -0.3946 1.23908   5
  -2   4 -12 -0.0628 1.08414   9
  -3   4 -12 0.36532 0.22065   8
  -3   4 -12 0.58313 0.59426   9
  -3   4 -12 0.50939 1.03001  13
  -3   4 -12 0.45882 0.61237  10
  -4   4 -12 32.6673 3.07386  13
  -4   4 -12 34.3397 2.35343   9
  -4   4 -12 34.0129 2.64169  10
  -5   4 -12 4.30361 1.06078  13
  -5   4 -12 4.70399 0.62294  10
  -5   4 -12 3.88341 1.19657  12
  -5  -3  12 -0.1092 0.30140  10
  -5  -3  12 -0.0490 0.47746  16
  -5  -3  12 0.52076 1.18792  17
  -4  -3  12 2.96252 0.87514  16
  -4  -3  12 3.55385 1.49261  17
  -4  -3  12 3.95150 0.82820  10
  -3  -3  12 57.0728 4.75586  17
  -3  -3  12 55.9402 3.99463   9
  -3  -3  12 55.4571 4.10670  10
  -2  -3  12 107.276 7.01040   7
  -2  -3  12 96.6626 7.12422  10
  -2  -3  12 109.816 7.09321   9
  -2  -3  12 114.523 6.59553   8
  -1  -3  12 137.904 8.57695   7
  -1  -3  12 137.762 8.52027   8
  -1   3 -12 2.15929 1.09897   5
  -1   3 -12 0.86809 0.85610   8
  -2   3 -12 134.466 8.84689   9
  -2   3 -12 147.290 9.19843   5
  -2   3 -12 139.293 8.40153   8
  -3   3 -12 148.428 9.89984  13
  -3   3 -12 158.361 9.42885   9
  -3   3 -12 156.720 9.47253  10
  -4   3 -12 0.49026 0.60613  10
  -4   3 -12 0.54813 0.49619   9
  -4   3 -12 0.10903 0.74723  13
  -5   3 -12 28.7658 2.46920  13
  -5   3 -12 19.1985 1.52871  10
  -5   3 -12 22.3829 2.05584  12
  -6   3 -12 2.34210 0.70920  13
  -6  -2  12 17.9282 1.99561  17
  -5  -2  12 23.6347 2.12869  16
  -5  -2  12 30.7874 3.29167  17
  -5  -2  12 25.3007 1.86263  10
  -4  -2  12 0.87100 1.20507  17
  -4  -2  12 0.58939 0.55165  10
  -4  -2  12 0.90134 0.55750   9
  -4  -2  12 0.90374 0.68839  16
  -3  -2  12 -0.2449 0.61329   9
  -3  -2  12 0.28345 0.73637  10
  -3  -2  12 1.69433 1.24770  17
  -3  -2  12 0.35877 0.27653   8
  -3  -2  12 0.06149 1.07047   7
  -2  -2  12 46.5479 3.79445  10
  -2  -2  12 41.5758 4.97627   3
  -2  -2  12 49.8070 4.49014   2
  -2  -2  12 51.6781 3.45907   8
  -2  -2  12 54.4292 3.90654   9
  -2  -2  12 50.5345 3.78446   7
  -1  -2  12 18.1518 1.84499   7
  -1  -2  12 16.4954 1.86665   8
   0   2 -12 136.060 8.64256   5
  -1   2 -12 71.0408 7.41421   3
  -1   2 -12 96.7559 6.17446   5
  -1   2 -12 97.4833 5.92853   8
  -2   2 -12 8.46113 1.77541   5
  -2   2 -12 8.27159 1.51807  13
  -2   2 -12 10.0042 1.13380   8
  -2   2 -12 6.27742 1.32257  10
  -2   2 -12 7.90413 1.49165   9
  -2   2 -12 3.26722 1.69120   3
  -2   2 -12 8.87339 1.83047   2
  -3   2 -12 107.412 8.36702  14
  -3   2 -12 123.023 7.02126  10
  -3   2 -12 99.4409 7.50503   5
  -3   2 -12 100.224 6.77125   9
  -3   2 -12 114.788 7.50666  13
  -4   2 -12 56.1087 3.49998   9
  -4   2 -12 59.9988 3.96046  10
  -4   2 -12 64.2944 4.75269  13
  -5   2 -12 21.3933 1.90295  12
  -5   2 -12 16.6001 1.31044  10
  -6   2 -12 44.1855 3.06407  13
  -6  -1  12 37.4544 3.03726  17
  -6  -1  12 29.6168 2.27172  16
  -5  -1  12 58.9766 4.85793  17
  -5  -1  12 48.2123 3.75273  16
  -5  -1  12 55.4081 3.55367  10
  -4  -1  12 452.297 26.3564  10
  -4  -1  12 477.131 26.4084   9
  -4  -1  12 477.812 27.6157  17
  -3  -1  12 93.1539 6.03739  10
  -3  -1  12 95.2949 5.66515   8
  -3  -1  12 92.7661 6.41127   7
  -3  -1  12 98.1924 6.87691  17
  -3  -1  12 85.2182 6.47380   2
  -3  -1  12 89.9111 6.06329   9
  -2  -1  12 0.24053 1.10973   3
  -2  -1  12 1.91857 1.13884   2
  -2  -1  12 0.62864 0.91029  17
  -2  -1  12 1.16617 0.64039   8
  -2  -1  12 1.28951 1.01461   9
  -2  -1  12 0.22045 0.73975   7
  -1  -1  12 315.615 18.7062   8
  -1  -1  12 338.184 18.7502   7
   0   1 -12 20.5764 2.05916   5
   0   1 -12 17.6724 2.25702   8
   0  -1  12 19.2468 1.80625   7
  -1   1 -12 72.7002 4.64657   8
  -1   1 -12 62.8196 4.65642  13
  -1   1 -12 79.8686 5.09642   5
  -1   1 -12 60.1282 5.81737   3
  -1   1 -12 60.5503 4.95825   9
  -1   1 -12 76.8185 5.51798   2
  -2   1 -12 137.892 9.30268   5
  -2   1 -12 137.114 8.81698   9
  -2   1 -12 142.637 8.53585   8
  -2   1 -12 142.064 9.37852   2
  -2   1 -12 142.948 9.12446  13
  -2   1 -12 150.099 8.85536  10
  -3   1 -12 0.24452 1.16889  14
  -3   1 -12 0.70799 0.75840   9
  -3   1 -12 0.28399 0.73359  13
  -3   1 -12 0.20778 1.08647   5
  -3   1 -12 0.42657 0.71997  10
  -4   1 -12 45.0617 4.67198  14
  -4   1 -12 43.9527 3.61894  13
  -4   1 -12 39.3415 2.92664  10
  -5   1 -12 0.46922 0.88146  14
  -5   1 -12 1.05786 0.74440  13
  -5   1 -12 0.61604 0.97114  12
  -6   0  12 9.50698 1.04141  16
  -6   0  12 9.90910 1.70568  17
  -6   0  12 6.66150 1.53546  18
  -5   0  12 0.14500 1.15990  17
  -5   0  12 0.83077 0.62506  10
  -5   0  12 2.06547 1.54193  18
  -5   0  12 0.87227 0.72559  16
  -4   0  12 0.69828 1.15870  17
  -4   0  12 0.46334 1.07446  18
  -4   0  12 1.33409 0.85577   9
  -4   0  12 1.72443 0.73333  10
  -3   0  12 2.87318 1.14164  17
  -3   0  12 2.36073 0.74705   8
  -3   0  12 2.67335 0.91253  10
  -3   0  12 1.92030 1.53377   2
  -3   0  12 3.60622 0.97608   7
  -3   0  12 3.07254 0.95765   9
  -2   0  12 7.35690 1.59554   9
  -2   0  12 4.83209 1.43213   3
  -2   0  12 8.48396 1.20528   8
  -2   0  12 8.22067 1.67572   2
  -2   0  12 9.07065 1.44699   7
  -1   0  12 3.68952 0.98593   8
  -1   0  12 2.53389 0.75223   7
   0   0 -12 5.26165 1.08449   8
   0   0 -12 7.88817 1.41734   5
  -1   0 -12 -0.0342 1.15347   3
  -1   0 -12 1.02026 0.81905   8
  -1   0 -12 1.24322 1.18450   5
  -1   0 -12 -0.0760 1.36126   2
  -1   0 -12 0.95937 1.14741   9
  -2   0 -12 44.2696 4.18103   5
  -2   0 -12 45.1536 4.01491  13
  -2   0 -12 50.2321 3.51029   8
  -2   0 -12 46.3107 3.69979  10
  -2   0 -12 52.4628 3.88514   9
  -3   0 -12 270.977 15.4366   9
  -3   0 -12 287.730 17.4845  14
  -3   0 -12 274.708 15.4516  10
  -3   0 -12 229.705 15.7214  13
  -4   0 -12 81.5997 6.49225  14
  -4   0 -12 75.6163 5.38033  13
  -4   0 -12 73.8308 4.89403  10
  -5   0 -12 98.5920 6.67083  14
  -5   0 -12 92.0753 5.97901  13
  -6   1  12 2.06445 1.08111  18
  -6   1  12 0.80507 0.76572  17
  -5   1  12 190.781 10.9225  10
  -5   1  12 183.287 11.5927  17
  -5   1  12 173.969 12.7051  18
  -4   1  12 28.0298 2.74219   9
  -4   1  12 29.7105 2.63660  10
  -4   1  12 30.2864 4.05423  18
  -4   1  12 26.7836 3.13956  17
  -3   1  12 0.54650 0.63595  10
  -3   1  12 0.06785 1.37643   2
  -3   1  12 0.41516 0.96936   9
  -3   1  12 0.24535 1.04905   7
  -3   1  12 0.37073 0.64963   8
  -2   1  12 90.6433 5.59581   8
  -2   1  12 63.8901 6.00921   3
  -2   1  12 86.4607 6.60416   2
  -2   1  12 82.8860 5.92044   9
  -1   1  12 49.5571 3.99529   8
   0  -1 -12 475.286 27.1843   8
  -1  -1 -12 0.74381 1.63486   2
  -1  -1 -12 1.05273 0.89932   8
  -1  -1 -12 0.73966 0.89606   9
  -1  -1 -12 1.15861 1.25918   3
  -2  -1 -12 12.1547 1.92574   9
  -2  -1 -12 12.9072 1.79165  10
  -2  -1 -12 15.3133 2.25562   5
  -2  -1 -12 16.6403 2.90861  14
  -2  -1 -12 13.7049 1.42221   8
  -3  -1 -12 3.67375 1.04913  10
  -3  -1 -12 1.83423 1.44109  13
  -3  -1 -12 3.15928 0.99528   9
  -3  -1 -12 3.11343 1.67111  14
  -4  -1 -12 0.14322 0.53698  10
  -4  -1 -12 0.27011 0.98074  13
  -4  -1 -12 0.14681 1.18212  14
  -5  -1 -12 13.1324 1.68969  14
  -6   2  12 2.37329 1.03011  18
  -6   2  12 3.03708 0.83503  17
  -6   2  12 3.37384 0.49264  10
  -5   2  12 1.77449 0.85591  10
  -5   2  12 2.34847 1.20909  18
  -4   2  12 15.3840 1.96548   9
  -4   2  12 19.9771 3.21691  18
  -4   2  12 14.5252 1.96653  10
  -3   2  12 29.6302 3.35296   9
  -3   2  12 31.4066 2.68732   8
  -3   2  12 27.2714 2.86365  10
  -3   2  12 35.1532 4.02865  18
  -2   2  12 28.4426 2.76120   8
  -2   2  12 22.2943 3.22997   9
  -1   2  12 386.056 22.5684   8
   0  -2 -12 354.585 20.8209   8
  -1  -2 -12 75.3317 5.19126   8
  -1  -2 -12 73.1048 5.60933   9
  -2  -2 -12 133.801 9.41790  14
  -2  -2 -12 124.129 8.21789  10
  -2  -2 -12 122.618 8.22331   9
  -3  -2 -12 2.33166 1.45471  14
  -3  -2 -12 4.39475 0.83851   9
  -3  -2 -12 5.34097 1.13153  10
  -4  -2 -12 18.3745 1.50977  10
  -4  -2 -12 22.7249 2.49278  14
  -6   3  12 62.4993 3.30594  10
  -6   3  12 43.6133 4.09991  18
  -5   3  12 21.8396 2.09960  10
  -5   3  12 20.5055 2.73932  18
  -4   3  12 96.9591 6.50837  10
  -4   3  12 89.2523 6.81677  11
  -4   3  12 97.4319 7.54917  18
  -4   3  12 95.1553 6.53913   9
  -3   3  12 23.4339 2.21874   8
  -3   3  12 22.1936 2.73205   9
  -3   3  12 20.5147 2.93129  18
  -2   3  12 26.9551 2.69679   8
   1  -3 -12 44.9233 4.13810   8
  -1   3  12 40.9091 4.04203   8
   0  -3 -12 48.9311 3.92933   8
   0  -3 -12 45.7979 4.60790  14
  -1  -3 -12 10.6230 2.13246   9
  -1  -3 -12 5.14633 1.71018  14
  -1  -3 -12 10.0028 1.31428   8
  -2  -3 -12 0.05444 0.85198  15
  -2  -3 -12 0.45355 1.34340  14
  -2  -3 -12 0.25048 0.80344  10
  -2  -3 -12 0.30457 0.96159   9
  -3  -3 -12 9.39608 1.73271  14
  -5   4  12 38.8797 2.78674  10
  -5   4  12 32.4908 2.86886  11
  -5   4  12 36.5463 3.24516  18
  -4   4  12 32.1285 2.86862  10
  -4   4  12 34.1558 2.87307   9
  -4   4  12 32.7919 3.30710  11
  -4   4  12 29.3378 3.24685  18
  -3   4  12 0.45424 1.41086   9
  -3   4  12 0.47569 0.66521   8
  -2   4  12 86.0627 5.99192   8
   1  -4 -12 81.1705 5.87846   8
  -1   4  12 78.6779 5.98960   8
   0  -4 -12 5.66728 2.08961   9
   0  -4 -12 3.06066 1.06916   8
  -1  -4 -12 225.598 13.1801   9
  -1  -4 -12 206.262 12.5983  15
  -2  -4 -12 16.3526 1.57922   9
  -2  -4 -12 16.8604 1.92034  10
  -2  -4 -12 14.5549 1.74521  15
  -3  -4 -12 49.1346 3.08149  10
  -5   5  12 1.32336 0.66976  10
  -4   5  12 0.54606 0.78000  11
  -4   5  12 0.92839 1.13982  10
  -4   5  12 1.09046 0.70006   9
  -3   5  12 1.33444 0.48225   8
  -3   5  12 1.13838 1.41262   9
   2  -5 -12 4.63217 1.62955   8
  -2   5  12 4.24227 1.11791   8
   1  -5 -12 2.65728 0.87046   8
  -1   5  12 2.82241 1.11738   8
   0  -5 -12 -0.4619 1.08365   9
   0  -5 -12 0.44303 0.36097   8
  -1  -5 -12 3.66169 0.86683   9
  -1  -5 -12 2.71324 0.70849  15
  -3   6  12 72.1794 4.86062  11
   2  -6 -12 8.79744 1.21741   8
  -2   6  12 8.10094 0.90737   8
   1  -6 -12 5.90718 0.89139  15
  -1   6  12 7.53640 0.99614   8
   0   7 -13 68.3663 4.34005   8
   0  -7  13 65.6757 3.92666   8
  -1   7 -13 15.9819 1.48518   8
   1  -7  13 18.2262 1.48902   8
  -2   7 -13 16.4621 1.53544  13
  -2  -6  13 18.7577 1.96480  17
  -2  -6  13 19.0726 1.78023  10
  -1  -6  13 2.32735 0.43273   8
  -1  -6  13 1.69843 1.07185   9
   0   6 -13 5.85446 1.19221   8
   0  -6  13 6.70634 1.05987   8
  -1   6 -13 56.9898 3.86794   8
   1  -6  13 51.2854 3.87911   8
  -2   6 -13 26.3053 2.54733   9
  -2   6 -13 25.3314 1.90945   8
  -3   6 -13 0.72093 0.53473   9
  -3   6 -13 0.48808 0.67067  13
  -4   6 -13 1.40542 0.66018  13
  -4   6 -13 3.67783 0.73760  10
  -3  -5  13 21.3205 1.54479   9
  -3  -5  13 24.2960 2.52756  17
  -3  -5  13 18.6820 1.74106  10
  -2  -5  13 53.8224 3.62655   9
  -2  -5  13 44.8108 3.85136  17
  -2  -5  13 50.8858 3.91487  10
  -1  -5  13 39.8204 3.78425   9
  -1  -5  13 42.6679 3.00393   8
   0   5 -13 62.1267 5.18278   8
   0  -5  13 74.4390 4.89102   8
  -1   5 -13 26.8406 2.45540   8
  -2   5 -13 71.1623 5.15411   9
  -2   5 -13 66.3766 4.42095   8
  -3   5 -13 18.5930 2.08317  10
  -3   5 -13 21.5886 2.06284   9
  -3   5 -13 20.1413 2.28383  13
  -4   5 -13 123.137 7.43329  10
  -4   5 -13 125.246 7.86283  13
  -4   5 -13 125.092 6.99353   9
  -5   5 -13 31.5721 2.11676  10
  -5   5 -13 42.5400 2.69862  13
  -4  -4  13 2.79012 1.09864  17
  -4  -4  13 3.42095 0.60562  10
  -3  -4  13 0.38977 0.41505   9
  -3  -4  13 0.67573 0.88796  17
  -3  -4  13 0.64225 0.73135  10
  -2  -4  13 184.930 12.1049  10
  -2  -4  13 197.065 11.1980   8
  -2  -4  13 193.361 11.7946   9
  -2  -4  13 209.729 12.3307  17
  -1  -4  13 10.0365 1.86857   9
  -1  -4  13 13.6792 1.46497   8
   0  -4  13 -0.3800 0.87823   8
  -1   4 -13 5.33156 1.20996   8
  -2   4 -13 0.40728 0.43782   8
  -2   4 -13 0.27673 0.75828   9
  -3   4 -13 35.9172 2.88265  10
  -3   4 -13 35.8466 3.20115  13
  -3   4 -13 37.0992 2.97643   9
  -4   4 -13 28.4358 1.87939   9
  -4   4 -13 28.5251 2.22964  10
  -4   4 -13 25.4950 2.72769  13
  -5   4 -13 4.94074 0.96061  13
  -5   4 -13 5.61668 0.59270  10
  -5  -3  13 53.4500 3.27126  10
  -5  -3  13 63.0647 4.36617  17
  -4  -3  13 6.29314 1.49048  17
  -4  -3  13 4.32446 0.82644  10
  -3  -3  13 120.613 8.26485  17
  -3  -3  13 116.396 7.60584  10
  -3  -3  13 124.196 7.51486   9
  -2  -3  13 56.1801 3.67326   8
  -2  -3  13 53.5019 4.19927   9
  -1  -3  13 93.2309 6.02455   8
  -1  -3  13 91.2094 6.17258   7
   0  -3  13 -0.6512 0.84300   8
  -1   3 -13 95.7530 6.01028   8
  -1   3 -13 82.8418 6.18175   5
  -2   3 -13 0.41372 0.54916   8
  -2   3 -13 -1.7293 1.34862   5
  -2   3 -13 0.92811 0.97123   9
  -3   3 -13 3.31660 0.94818   9
  -3   3 -13 2.99465 0.82675  10
  -3   3 -13 3.75467 1.10810  13
  -4   3 -13 10.8017 1.84799  13
  -4   3 -13 14.7650 1.38108  10
  -4   3 -13 12.8228 1.03387   9
  -5   3 -13 29.3275 2.52236  13
  -5   3 -13 28.8643 1.89829  10
  -5  -2  13 1.35390 0.38148  10
  -5  -2  13 1.50948 1.16058  17
  -4  -2  13 30.1613 2.45102  10
  -4  -2  13 30.1381 2.27914   9
  -4  -2  13 34.6495 3.29616  17
  -3  -2  13 0.93208 1.14979  18
  -3  -2  13 0.66928 1.02018  17
  -3  -2  13 1.04664 0.77810  10
  -3  -2  13 1.86348 0.80457   9
  -2  -2  13 5.19205 0.93159   8
  -2  -2  13 3.03151 1.01365   7
  -2  -2  13 5.49367 1.31615  17
  -2  -2  13 4.02610 1.25066   9
  -2  -2  13 3.01443 1.46046   2
  -1  -2  13 7.45042 1.20957   8
  -1  -2  13 9.86079 1.42423   7
   0   2 -13 101.461 6.79226   8
   0   2 -13 106.541 6.89714   5
   0  -2  13 102.518 6.57396   7
  -1   2 -13 2.98976 1.01692   5
  -1   2 -13 1.36923 0.79913   8
  -2   2 -13 54.5468 4.00702   9
  -2   2 -13 50.3920 3.92049  10
  -2   2 -13 53.6412 4.19167   5
  -2   2 -13 50.1707 4.05611  13
  -2   2 -13 46.9487 3.42042   8
  -3   2 -13 56.8250 3.88329   9
  -3   2 -13 55.2863 4.42030  13
  -3   2 -13 51.2740 5.07015  14
  -3   2 -13 54.1677 3.95472  10
  -4   2 -13 45.3432 3.76296  13
  -4   2 -13 47.9312 3.21491  10
  -5   2 -13 133.114 8.06342  13
  -5   2 -13 127.037 7.26135  10
  -6  -1  13 32.1641 2.65420  17
  -5  -1  13 87.4873 6.14426  17
  -5  -1  13 82.3134 5.14548  10
  -4  -1  13 11.1344 1.47226   9
  -4  -1  13 12.0276 2.49678  18
  -4  -1  13 8.48017 1.25375  10
  -4  -1  13 11.4882 2.16715  17
  -3  -1  13 31.9439 2.79988  10
  -3  -1  13 33.8600 3.40158  17
  -3  -1  13 34.0644 2.89106   9
  -3  -1  13 35.8338 2.46814   8
  -3  -1  13 35.5564 3.19401   7
  -2  -1  13 55.1424 4.28903   9
  -2  -1  13 62.8233 4.04776   8
  -2  -1  13 58.4038 4.25948   7
  -2  -1  13 51.2260 4.38591  17
  -2  -1  13 58.5556 4.96940   2
  -1  -1  13 0.85680 0.71647   7
  -1  -1  13 0.14139 0.73404   8
   0   1 -13 214.537 12.6548   8
   0   1 -13 207.824 12.7522   5
  -1   1 -13 24.1047 2.87065   9
  -1   1 -13 32.3311 2.79966   5
  -1   1 -13 24.5011 2.47588  13
  -1   1 -13 30.2766 2.46601   8
  -2   1 -13 6.42820 1.47585  13
  -2   1 -13 8.30711 1.13013   8
  -2   1 -13 7.44897 1.42413  10
  -2   1 -13 6.17840 1.78204   5
  -2   1 -13 8.15663 1.48629   9
  -3   1 -13 2.29764 1.21891  14
  -3   1 -13 1.13659 1.15399  13
  -3   1 -13 1.54839 0.76808   9
  -3   1 -13 1.11399 0.81769  10
  -4   1 -13 1.24180 1.30903  14
  -4   1 -13 0.29883 0.94991  13
  -4   1 -13 0.29641 0.55774  10
  -5   1 -13 2.92871 0.77799  13
  -6   0  13 0.29606 0.87286  17
  -6   0  13 0.48432 0.99018  18
  -5   0  13 4.58653 1.38138  17
  -5   0  13 2.51292 0.69902  10
  -5   0  13 2.60652 1.52688  18
  -4   0  13 75.1487 5.04143  10
  -4   0  13 80.9809 5.22470   9
  -4   0  13 74.8284 6.56003  18
  -4   0  13 71.7463 5.77407  17
  -3   0  13 17.7698 2.26947   7
  -3   0  13 14.2709 1.70548  10
  -3   0  13 17.6606 1.64336   8
  -3   0  13 17.7875 2.18905   9
  -3   0  13 12.8011 2.19990  17
  -2   0  13 28.5822 3.78515   3
  -2   0  13 47.0460 3.22019   8
  -2   0  13 35.9494 3.86863   2
  -2   0  13 37.4818 3.21267   7
  -2   0  13 40.5998 3.48206   9
  -1   0  13 0.03192 0.82816   8
   0   0 -13 8.98843 1.44911   8
  -1   0 -13 434.105 23.0194   8
  -1   0 -13 389.488 24.0098   2
  -1   0 -13 387.885 23.2313   9
  -1   0 -13 393.684 23.4041   5
  -2   0 -13 97.4505 6.93852   5
  -2   0 -13 98.3932 6.01365   8
  -2   0 -13 101.855 6.42852  10
  -2   0 -13 82.2312 6.81225  13
  -2   0 -13 103.107 6.54545   9
  -3   0 -13 7.78286 1.20827  10
  -3   0 -13 7.22340 2.00543  14
  -3   0 -13 6.45276 1.17718   9
  -3   0 -13 5.00778 1.47446  13
  -4   0 -13 36.0857 3.56572  14
  -4   0 -13 35.3709 2.51584  10
  -4   0 -13 28.5043 2.80345  13
  -5   0 -13 4.76161 1.10303  14
  -5   0 -13 4.55441 0.84320  13
  -6   1  13 16.1168 1.67299  17
  -6   1  13 21.2738 2.33950  18
  -5   1  13 1.68539 1.38040  18
  -5   1  13 1.25348 1.09893  17
  -5   1  13 1.88767 0.74384  10
  -4   1  13 24.4077 2.44627   9
  -4   1  13 24.9284 2.31333  10
  -4   1  13 26.2420 3.41606  18
  -3   1  13 2.13028 1.20822   9
  -3   1  13 2.21826 0.77001   8
  -3   1  13 1.38820 0.98015  10
  -3   1  13 0.66860 1.23419   7
  -2   1  13 35.2361 3.70455   9
  -2   1  13 40.9769 3.22637   8
  -1   1  13 11.7072 1.95757   8
   0  -1 -13 491.769 28.1658   8
  -1  -1 -13 -0.3510 0.78321   8
  -1  -1 -13 0.22697 1.24250   9
  -2  -1 -13 0.49560 0.99062   9
  -2  -1 -13 0.33870 1.00767  14
  -2  -1 -13 0.05742 0.46563   8
  -2  -1 -13 0.54520 1.01532  10
  -3  -1 -13 47.8584 4.70892  14
  -3  -1 -13 46.3229 3.33944   9
  -3  -1 -13 49.0536 3.53728  10
  -4  -1 -13 13.3650 1.25879  10
  -6   2  13 25.7210 2.61227  18
  -5   2  13 38.6461 3.02249  10
  -5   2  13 44.7188 4.26750  18
  -4   2  13 52.8272 4.27233  10
  -4   2  13 62.5233 5.49222  18
  -4   2  13 59.0617 4.39639   9
  -3   2  13 119.953 7.43097   8
  -3   2  13 111.225 7.80966  10
  -3   2  13 122.566 8.17176   9
  -3   2  13 124.841 8.84323  18
  -2   2  13 131.845 8.48259   8
  -1   2  13 17.7336 2.43245   8
   0  -2 -13 11.1044 1.93714   8
  -1  -2 -13 17.6078 1.88101   8
  -1  -2 -13 17.1980 2.37149   9
  -1  -2 -13 15.9000 2.67168  14
  -2  -2 -13 34.7099 3.16196   9
  -2  -2 -13 33.8719 3.04919  10
  -2  -2 -13 36.1079 3.87042  14
  -3  -2 -13 52.5298 4.38912  14
  -3  -2 -13 53.8973 3.38434  10
  -3  -2 -13 40.2125 2.61836   9
  -4  -2 -13 24.4158 1.46904  10
  -4  -2 -13 17.5854 2.12072  14
  -6   3  13 26.7365 2.37850  18
  -5   3  13 77.9779 4.50543  10
  -5   3  13 53.8560 4.88245  18
  -4   3  13 89.5424 6.05802  10
  -4   3  13 93.3998 6.15029   9
  -4   3  13 88.0003 6.86186  18
  -3   3  13 0.60494 1.33401  18
  -3   3  13 1.41473 1.37286   9
  -3   3  13 0.97439 0.71717   8
  -2   3  13 16.2879 1.99448   8
  -2   3  13 18.5307 2.77008  18
   1  -3 -13 130.846 8.55119   8
  -1   3  13 120.879 8.38357   8
   0  -3 -13 2.05273 1.08667   8
   0  -3 -13 1.89051 1.49777  14
  -1  -3 -13 7.62052 1.05231   8
  -1  -3 -13 6.43020 1.68973  14
  -1  -3 -13 8.42788 1.87087   9
  -2  -3 -13 14.5862 1.71607  10
  -2  -3 -13 13.4606 1.55000   9
  -2  -3 -13 11.8930 2.01003  14
  -3  -3 -13 3.91647 0.69790  10
  -3  -3 -13 2.87209 0.98775  14
  -5   4  13 0.82897 0.74146  18
  -5   4  13 0.88705 0.54676  10
  -4   4  13 19.1414 1.92359  10
  -4   4  13 16.1504 2.13129  18
  -4   4  13 17.2467 1.81330   9
  -4   4  13 16.8044 1.99700  11
  -3   4  13 12.8976 2.13956   9
  -3   4  13 11.8157 1.25657   8
  -2   4  13 5.08734 1.08196   8
   1  -4 -13 10.3861 1.68175   8
  -1   4  13 9.00503 1.78745   8
   0  -4 -13 162.872 10.2071   9
   0  -4 -13 154.318 9.44743   8
  -1  -4 -13 0.59702 0.83553   9
  -1  -4 -13 0.29765 0.58351  15
  -2  -4 -13 65.4734 3.68173   9
  -2  -4 -13 59.5149 3.93363  15
  -4   5  13 -0.0137 0.63516   9
  -4   5  13 -0.1174 0.60664  11
  -4   5  13 0.55755 0.98958  10
  -3   5  13 3.42927 0.93037  11
  -3   5  13 5.98561 1.49925   9
   2  -5 -13 3.18249 1.25060   8
  -2   5  13 5.11581 0.95607   8
   1  -5 -13 1.18972 0.73910   8
  -1   5  13 0.54467 1.02544   8
   0  -5 -13 3.50642 0.72443  15
   0  -5 -13 6.45170 1.56291   9
  -1  -5 -13 37.8909 2.62725   9
  -1   7 -14 51.6664 3.11462   8
  -2  -6  14 0.70467 0.38453   9
  -2  -6  14 1.24729 0.67911  17
  -1  -6  14 36.9706 2.93471  17
  -1  -6  14 47.5048 3.14539   9
  -1  -6  14 35.2794 2.17682   8
   0   6 -14 1.77830 0.76387   8
   0  -6  14 2.88668 0.71678   8
  -1   6 -14 6.32648 1.03384   8
   1  -6  14 7.51536 1.07856   8
  -2   6 -14 35.8181 2.62488  13
  -2   6 -14 27.5846 2.00770   8
  -2   6 -14 37.8926 2.73782   9
  -3   6 -14 22.8537 2.16927  13
  -3   6 -14 24.7757 1.83793   9
  -3  -5  14 5.94257 0.82051  10
  -2  -5  14 24.0683 2.24714  17
  -2  -5  14 17.5241 1.79287   9
  -1  -5  14 34.0017 3.04149   9
  -1  -5  14 38.2627 2.62050   8
   0   5 -14 54.1590 4.33097   8
   0  -5  14 57.4559 3.95421   8
  -1   5 -14 358.581 20.4581   8
  -2   5 -14 7.13728 1.29052   9
  -2   5 -14 6.18352 0.89966   8
  -3   5 -14 116.881 7.55845  10
  -3   5 -14 127.719 7.44330   9
  -3   5 -14 125.265 7.90289  13
  -4   5 -14 61.5151 4.22254  13
  -4  -4  14 1.79301 0.43743  10
  -4  -4  14 1.67719 0.80720  17
  -3  -4  14 11.1062 1.26441   9
  -3  -4  14 12.0864 1.75681  17
  -3  -4  14 11.5988 1.31742  10
  -2  -4  14 36.0236 3.11946   9
  -2  -4  14 37.2168 3.28416  17
  -2  -4  14 38.8272 2.51293   8
  -1  -4  14 -0.3237 1.05051   9
  -1  -4  14 0.46401 0.62143   8
   0   4 -14 1.13955 1.21413   8
   0  -4  14 1.65995 0.97239   8
  -1   4 -14 22.9963 2.22861   8
  -2   4 -14 56.9382 3.74397   8
  -2   4 -14 56.7999 4.17779   9
  -3   4 -14 2.64500 0.82002  10
  -3   4 -14 3.92225 0.80957   9
  -3   4 -14 5.30414 1.22951  13
  -4   4 -14 50.1759 3.39078  10
  -4   4 -14 52.2713 3.86882  13
  -5   4 -14 14.9554 1.46737  13
  -5  -3  14 23.3955 2.17716  17
  -4  -3  14 82.3101 5.67625  17
  -4  -3  14 75.1780 4.83987  10
  -3  -3  14 344.963 20.0614   9
  -3  -3  14 375.940 21.0247  17
  -3  -3  14 342.638 20.1733  10
  -2  -3  14 48.6571 3.35179   8
  -2  -3  14 49.3841 3.95748   9
  -2  -3  14 49.9590 4.10327  17
  -1  -3  14 19.6522 1.99729   8
   0   3 -14 95.3859 6.20928   8
   0   3 -14 88.7666 6.25360   5
   0  -3  14 90.7756 6.03230   7
   0  -3  14 87.7114 6.03592   8
  -1   3 -14 2.20162 0.90921   8
  -2   3 -14 0.52052 0.72880  13
  -2   3 -14 0.10237 0.48443   8
  -2   3 -14 0.56787 0.73104   9
  -3   3 -14 4.57953 0.98527   9
  -3   3 -14 3.76621 0.86845  10
  -3   3 -14 6.60122 1.33222  13
  -4   3 -14 3.59585 1.01869  13
  -4   3 -14 2.74583 0.62076  10
  -5   3 -14 0.81568 0.61631  13
  -5  -2  14 2.58298 0.47027  10
  -5  -2  14 2.46786 1.11431  17
  -4  -2  14 1.92165 0.97363  17
  -4  -2  14 1.62954 0.61587  10
  -4  -2  14 2.03452 0.59633   9
  -3  -2  14 0.90961 0.77238   9
  -3  -2  14 2.08311 1.21988  17
  -3  -2  14 1.03348 1.38647  18
  -3  -2  14 0.47948 0.76446  10
  -2  -2  14 65.8367 4.27179   8
  -2  -2  14 60.0991 4.81289  17
  -2  -2  14 62.2402 4.75350   9
  -1  -2  14 9.81522 1.42610   8
  -1  -2  14 8.75183 1.42948   7
   0   2 -14 40.4571 3.55721   5
   0   2 -14 42.9927 3.54082   8
   0  -2  14 44.1070 3.36490   7
  -1   2 -14 29.5916 3.04105   5
  -1   2 -14 33.4378 2.56518   8
  -1   2 -14 20.5112 3.02416   9
  -2   2 -14 24.5959 2.12741   8
  -2   2 -14 28.9138 2.88164  13
  -2   2 -14 31.1572 2.62289   9
  -2   2 -14 25.0115 2.61889  10
  -3   2 -14 78.5108 5.69079  13
  -3   2 -14 87.5984 5.33910   9
  -3   2 -14 78.6615 5.27413  10
  -3   2 -14 76.9799 6.21991  14
  -4   2 -14 74.5490 4.88515  10
  -4   2 -14 84.1095 5.47364  13
  -5   2 -14 33.9045 2.57594  13
  -5  -1  14 12.6616 1.15642  10
  -5  -1  14 14.2350 2.03732  17
  -4  -1  14 179.879 12.2705  18
  -4  -1  14 183.672 10.8419  10
  -4  -1  14 181.946 11.5992  17
  -4  -1  14 188.854 10.8012   9
  -3  -1  14 2.88726 1.00358  10
  -3  -1  14 4.65714 1.58890  18
  -3  -1  14 5.65137 1.41100  17
  -3  -1  14 4.23815 0.66598   8
  -3  -1  14 4.53640 1.18959   9
  -2  -1  14 0.89849 0.72003   7
  -2  -1  14 0.71093 0.63918   8
  -2  -1  14 -0.0037 0.72390   9
  -2  -1  14 -0.0852 1.05733  17
  -1  -1  14 54.3539 4.09187   8
   0   1 -14 17.9843 2.10514   8
  -1   1 -14 250.067 14.3063   8
  -1   1 -14 242.477 14.9074   5
  -1   1 -14 239.477 14.6808   9
  -2   1 -14 34.4969 2.92893   9
  -2   1 -14 28.4152 2.96768  13
  -2   1 -14 28.8569 2.76359  10
  -2   1 -14 26.7795 2.21178   8
  -3   1 -14 59.4885 4.89938  14
  -3   1 -14 50.8403 4.19511  13
  -3   1 -14 52.1223 3.78051  10
  -3   1 -14 54.5934 3.80859   9
  -4   1 -14 39.4124 3.12938  13
  -4   1 -14 38.1987 2.71020  10
  -4   1 -14 40.2458 3.73940  14
  -5   1 -14 13.4173 1.31560  13
  -6   0  14 0.32168 0.55277  17
  -5   0  14 22.3093 2.64637  18
  -5   0  14 18.3586 2.09110  17
  -5   0  14 18.3602 1.58184  10
  -4   0  14 1.99628 0.82496  10
  -4   0  14 3.38855 1.12475  17
  -4   0  14 3.68926 1.49115  18
  -4   0  14 3.11449 0.92439   9
  -3   0  14 58.7275 4.35277   9
  -3   0  14 50.2154 4.11143  10
  -3   0  14 58.1831 3.71690   8
  -2   0  14 4.90162 1.59222   9
  -2   0  14 6.43353 1.11555   8
  -1   0  14 21.6013 2.34292   8
   0   0 -14 282.557 16.6317   8
  -1   0 -14 405.518 23.7676   9
  -1   0 -14 413.760 23.3952   8
  -2   0 -14 101.126 7.41671  14
  -2   0 -14 88.4981 5.64789   8
  -2   0 -14 95.7885 6.36710   9
  -2   0 -14 96.8734 6.30294  10
  -3   0 -14 124.727 7.63101  10
  -3   0 -14 114.371 7.84338  13
  -3   0 -14 130.352 8.90104  14
  -3   0 -14 126.310 7.49354   9
  -4   0 -14 19.8659 2.37753  14
  -4   0 -14 18.4075 1.58186  10
  -4   0 -14 19.0048 1.78478  13
  -6   1  14 27.8105 2.48142  18
  -5   1  14 58.2018 3.95697  10
  -5   1  14 63.1374 5.10751  18
  -4   1  14 -0.2543 0.74549  10
  -4   1  14 0.98052 0.74450   9
  -4   1  14 0.29818 1.09354  18
  -3   1  14 72.8737 5.96255  18
  -3   1  14 65.7833 4.87483  10
  -3   1  14 67.6684 4.50268   8
  -3   1  14 70.1530 5.23388   9
  -2   1  14 11.5657 2.20815   9
  -2   1  14 14.6859 1.81014   8
  -1   1  14 14.7819 2.13231   8
   0  -1 -14 152.182 9.60572   8
  -1  -1 -14 2.07175 1.10746   9
  -1  -1 -14 3.31344 0.93998   8
  -2  -1 -14 7.62329 1.82448  14
  -2  -1 -14 8.90820 1.54316   9
  -2  -1 -14 9.02633 1.43216  10
  -3  -1 -14 0.59946 0.56891   9
  -3  -1 -14 0.69525 1.17232  14
  -3  -1 -14 0.66741 0.81659  10
  -4  -1 -14 28.9887 2.61951  14
  -4  -1 -14 24.8143 1.77954  10
  -6   2  14 46.0645 3.44687  18
  -5   2  14 -0.3495 0.55347  10
  -5   2  14 0.26613 0.69913  18
  -4   2  14 123.162 8.63374  18
  -4   2  14 120.984 7.67534   9
  -4   2  14 120.508 7.74903  10
  -3   2  14 74.3799 5.42402   9
  -3   2  14 74.4102 6.03390  18
  -3   2  14 68.9073 4.64667   8
  -2   2  14 46.6867 3.71168   8
   1  -2 -14 202.435 12.5196   8
  -1   2  14 195.836 12.3006   8
   0  -2 -14 3.67530 1.23561   8
  -1  -2 -14 1.02414 0.63741   8
  -1  -2 -14 2.35993 1.18428  14
  -1  -2 -14 1.78708 1.36391   9
  -2  -2 -14 86.4379 5.63017   9
  -2  -2 -14 89.2911 5.87878  10
  -2  -2 -14 81.2014 6.43979  14
  -3  -2 -14 12.0498 1.79251  14
  -3  -2 -14 14.4618 1.36335  10
  -5   3  14 0.27752 0.41072  10
  -5   3  14 -0.2425 0.60771  18
  -4   3  14 8.88820 1.41722   9
  -4   3  14 11.3257 1.88138  18
  -4   3  14 9.16369 1.38983  10
  -3   3  14 3.44659 1.42117  18
  -3   3  14 4.52836 1.53780   9
  -3   3  14 3.40223 0.74376   8
  -2   3  14 83.2383 6.58786  18
  -2   3  14 95.9684 6.07560   8
   1  -3 -14 6.96264 1.45841   8
  -1   3  14 5.39512 1.50007   8
   0  -3 -14 16.4749 1.73889   8
   0  -3 -14 16.0633 2.30592  14
  -1  -3 -14 -0.2912 0.81211   9
  -1  -3 -14 0.56931 0.85724  14
  -1  -3 -14 0.42104 0.59724  15
  -1  -3 -14 0.30660 0.31695   8
  -2  -3 -14 41.9225 2.85543   9
  -2  -3 -14 36.4446 3.33736  14
  -5   4  14 125.661 7.30718  10
  -4   4  14 57.2049 4.05421  10
  -4   4  14 60.9308 3.98103   9
  -3   4  14 21.2228 2.52633   9
  -3   4  14 22.7474 2.24481  11
  -3   4  14 19.4854 1.44676   8
   2  -4 -14 64.4765 4.84067   8
  -2   4  14 67.1972 4.54391   8
   1  -4 -14 26.7039 2.30414   8
  -1   4  14 23.3056 2.32755   8
   0  -4 -14 10.4456 1.12457   8
   0  -4 -14 11.4082 2.07946   9
  -1  -4 -14 21.3256 1.76905  15
  -3   5  14 0.35679 0.64758  11
  -3   5  14 0.01528 0.73037   9
   2  -5 -14 0.23617 0.64531   8
  -2   5  14 0.75741 0.40282   8
   1  -5 -14 49.3404 3.21966   8
  -1   5  14 52.9529 3.46651   8
  -1  -6  15 45.8355 3.28940   9
   0   6 -15 4.22741 0.83247   8
   0  -6  15 3.04660 0.56994   8
  -1   6 -15 15.5945 1.33174   8
   1  -6  15 16.2816 1.49335   8
  -2   6 -15 26.9341 2.24044  13
  -2   6 -15 29.2129 2.40094   9
  -3   6 -15 12.9395 1.35170  13
  -3  -5  15 4.78040 0.96481  17
  -3  -5  15 3.18628 0.59110  10
  -2  -5  15 119.757 7.83206   9
  -2  -5  15 147.808 8.42418  17
  -1  -5  15 13.0432 1.63106   9
  -1  -5  15 10.7078 1.02023   8
   0   5 -15 47.2257 3.64694   8
   0  -5  15 47.6196 3.33333   8
  -1   5 -15 0.23941 0.58522   8
   1  -5  15 0.24772 0.67097   8
  -2   5 -15 46.0092 3.35103  13
  -2   5 -15 40.6223 2.70298   8
  -2   5 -15 47.1407 3.31179   9
  -3   5 -15 9.73067 1.18502   9
  -3   5 -15 6.59606 1.25901  13
  -4   5 -15 0.19084 0.30806  10
  -4   5 -15 -0.0955 0.50404  13
  -4  -4  15 4.04986 0.94845  17
  -4  -4  15 2.01008 0.45083  10
  -3  -4  15 -0.1145 0.61461  17
  -3  -4  15 0.05260 0.33329   9
  -3  -4  15 0.00904 0.42807  10
  -2  -4  15 7.08208 1.45783  17
  -2  -4  15 5.26465 0.58113   8
  -2  -4  15 6.39924 1.12163   9
  -1  -4  15 11.0181 1.68931   9
  -1  -4  15 13.2158 1.39824   8
   0   4 -15 25.9301 2.54755   8
   0  -4  15 24.3925 2.24351   8
  -1   4 -15 56.4368 3.93408   8
  -2   4 -15 1.19671 0.46374   8
  -2   4 -15 1.21527 1.01596   9
  -2   4 -15 1.12667 0.94070  13
  -3   4 -15 80.4735 5.48201  13
  -3   4 -15 75.5432 5.10702  10
  -3   4 -15 84.5063 5.10605   9
  -4   4 -15 47.8958 3.39783  13
  -4   4 -15 43.9309 2.94043  10
  -4  -3  15 74.2392 5.01245  17
  -4  -3  15 63.9614 4.21331  10
  -3  -3  15 11.5762 1.87693  17
  -3  -3  15 12.9784 1.46847   9
  -3  -3  15 7.89393 1.17935  10
  -2  -3  15 17.4276 1.52242   8
  -2  -3  15 16.2933 2.20314  17
  -2  -3  15 18.9198 2.22378   9
  -1  -3  15 0.66139 0.67259   8
   0   3 -15 1.02113 1.00125   8
   0  -3  15 1.13870 0.92130   8
  -1   3 -15 24.7127 2.25797   8
  -2   3 -15 -0.2173 0.93050  13
  -2   3 -15 0.24447 0.43002   8
  -2   3 -15 0.17695 0.87755   9
  -3   3 -15 2.53066 0.78520   9
  -3   3 -15 2.73285 0.94644  13
  -3   3 -15 1.88151 0.86712  10
  -4   3 -15 7.68835 1.26110  13
  -4   3 -15 8.03360 0.96009  10
  -5  -2  15 0.03235 0.30764  10
  -5  -2  15 0.12841 0.60493  17
  -4  -2  15 24.0473 1.59178   9
  -4  -2  15 20.7522 2.32933  17
  -4  -2  15 23.2958 1.86587  10
  -3  -2  15 144.494 10.0570  18
  -3  -2  15 149.399 9.21727   9
  -3  -2  15 156.989 9.83346  17
  -3  -2  15 156.646 9.25825  10
  -2  -2  15 20.2604 1.81814   8
  -2  -2  15 19.2587 2.35544   9
  -2  -2  15 20.0541 2.48070  17
  -1  -2  15 166.239 10.0687   8
   0   2 -15 15.6633 1.82483   8
  -1   2 -15 26.7912 2.23364   8
  -1   2 -15 21.4469 2.30222  13
  -1   2 -15 22.6479 2.50499   9
  -2   2 -15 248.497 14.0860   8
  -2   2 -15 244.200 14.7883  13
  -2   2 -15 249.323 14.6066   9
  -3   2 -15 13.5038 1.54429  10
  -3   2 -15 13.5032 1.51671   9
  -3   2 -15 13.7977 1.83377  13
  -3   2 -15 9.16193 1.77088  14
  -4   2 -15 0.28003 0.63692  13
  -4   2 -15 0.40734 0.39407  10
  -5  -1  15 3.41698 0.60179  10
  -5  -1  15 4.78005 1.04078  17
  -4  -1  15 22.4773 2.57495  17
  -4  -1  15 21.2109 2.59072  18
  -4  -1  15 19.9977 1.83878  10
  -4  -1  15 22.6272 1.92363   9
  -3  -1  15 1.18270 0.35341   8
  -3  -1  15 0.63966 0.82318  10
  -3  -1  15 2.13421 1.18883  18
  -3  -1  15 0.96892 1.11389  17
  -3  -1  15 2.10934 0.99035   9
  -2  -1  15 18.3644 2.27027   9
  -2  -1  15 21.2605 1.93748   8
  -2  -1  15 16.1702 2.41160  17
  -1  -1  15 5.08509 1.09348   8
   0   1 -15 -0.0365 0.85318   8
  -1   1 -15 128.760 8.84564   9
  -1   1 -15 146.743 8.58113   8
  -2   1 -15 1.13034 0.53039   8
  -2   1 -15 2.45310 1.31551  13
  -2   1 -15 1.48812 0.81823  10
  -2   1 -15 2.32778 1.06350   9
  -3   1 -15 38.4010 3.50256  13
  -3   1 -15 51.2512 4.40434  14
  -3   1 -15 54.4347 3.41130   9
  -3   1 -15 50.4814 3.54179  10
  -4   1 -15 56.5010 3.43850  10
  -4   1 -15 49.5012 4.05954  14
  -5   0  15 132.089 7.62184  10
  -5   0  15 130.994 8.02240  17
  -5   0  15 127.938 8.46021  18
  -4   0  15 106.121 6.45830  10
  -4   0  15 107.329 7.54779  18
  -4   0  15 95.7205 6.72709  17
  -4   0  15 100.221 6.30878   9
  -3   0  15 5.34635 1.27863  10
  -3   0  15 6.48368 0.86690   8
  -3   0  15 7.20772 1.69756  18
  -3   0  15 7.90224 1.46385   9
  -2   0  15 135.059 9.06666   9
  -2   0  15 140.770 8.51851   8
  -1   0  15 100.956 6.67581   8
   0   0 -15 0.02133 0.63287   8
  -1   0 -15 22.6774 2.15398   8
  -1   0 -15 20.2461 2.44691   9
  -2   0 -15 6.01315 1.23401  10
  -2   0 -15 8.12411 1.44912   9
  -2   0 -15 6.59804 1.80027  14
  -3   0 -15 69.6208 4.58562  10
  -3   0 -15 69.4033 4.30949   9
  -3   0 -15 67.9109 5.35055  14
  -4   0 -15 10.0522 0.84547  10
  -4   0 -15 7.28272 1.32731  14
  -5   1  15 1.24871 0.79136  18
  -5   1  15 0.46368 0.55179  10
  -4   1  15 44.6995 3.27370  10
  -4   1  15 39.4286 3.09777   9
  -4   1  15 49.4935 4.28330  18
  -3   1  15 9.86762 1.65596   9
  -3   1  15 7.81862 1.76786  18
  -3   1  15 9.77885 1.10781   8
  -2   1  15 0.04983 0.76684   8
  -2   1  15 0.19541 0.99037   9
   1  -1 -15 82.1942 5.89515   8
  -1   1  15 81.1063 5.64515   8
   0  -1 -15 210.451 12.7489   8
  -1  -1 -15 13.2573 2.05908   9
  -1  -1 -15 10.4628 1.26474   8
  -2  -1 -15 23.9893 2.94596  14
  -2  -1 -15 25.6042 2.45732   9
  -2  -1 -15 23.4605 2.28584  10
  -3  -1 -15 32.8868 2.60435  10
  -3  -1 -15 40.7306 3.38129  14
  -5   2  15 91.6788 5.94528  10
  -5   2  15 108.370 6.75887  18
  -4   2  15 1.18586 0.77797   9
  -4   2  15 1.26254 0.85908  18
  -4   2  15 2.06429 0.79946  10
  -3   2  15 65.0976 4.16799   8
  -3   2  15 75.8916 5.11130   9
  -3   2  15 61.5676 5.24986  18
  -2   2  15 0.76904 0.80369   8
   1  -2 -15 10.6386 1.75283   8
  -1   2  15 10.0137 1.78135   8
   0  -2 -15 4.02571 1.13173   8
  -1  -2 -15 42.1390 3.97294  14
  -1  -2 -15 43.2040 3.54165   9
  -1  -2 -15 38.4438 2.69072   8
  -2  -2 -15 5.15601 1.29001  10
  -2  -2 -15 7.98146 1.11371   9
  -2  -2 -15 8.25557 1.56718  14
  -3  -2 -15 10.3054 1.13748  10
  -5   3  15 0.60688 0.37544  10
  -5   3  15 1.60710 0.67468  18
  -4   3  15 19.5658 2.01806  10
  -4   3  15 25.1556 2.52675  18
  -4   3  15 29.2924 2.15159   9
  -3   3  15 4.60936 1.21188   9
  -3   3  15 3.05101 0.50792   8
  -3   3  15 3.39291 1.30285  18
  -2   3  15 73.5267 5.75426  18
  -2   3  15 87.0846 5.37928   8
   1  -3 -15 62.7013 4.56166   8
  -1   3  15 59.8111 4.43095   8
   0  -3 -15 9.70721 1.79455   9
   0  -3 -15 7.24069 0.99448   8
   0  -3 -15 5.11739 1.30273  14
  -1  -3 -15 43.0377 3.93459  14
  -1  -3 -15 54.2147 3.67786   9
  -2  -3 -15 25.2844 2.44827  14
  -2  -3 -15 28.9106 1.76979   9
  -4   4  15 23.9029 1.72354   9
  -3   4  15 29.9704 2.78040  11
  -3   4  15 38.8509 2.82670   9
   2  -4 -15 1.99018 1.13771   8
  -2   4  15 1.83637 0.71401   8
   1  -4 -15 19.4873 1.72643   8
  -1   4  15 18.2936 1.95498   8
   0  -4 -15 0.97590 0.55971  15
   0  -4 -15 2.49669 1.08802   9
   0  -4 -15 1.29292 0.34125   8
   0   6 -16 13.2354 1.16176   8
   0  -6  16 11.7303 0.97923   8
   0  -6  16 13.2084 1.38105  17
  -1   6 -16 1.01960 0.29520   8
  -1   6 -16 1.30496 0.56131  13
   1  -6  16 0.91550 0.41615   8
  -2  -5  16 104.775 5.59342   9
  -2  -5  16 79.5585 5.87856  17
  -1  -5  16 10.2292 0.87628   8
  -1  -5  16 9.25734 1.31573   9
  -1  -5  16 10.6663 1.42996  17
   0   5 -16 2.04487 0.80696   8
   0  -5  16 2.39524 0.59092   8
  -1   5 -16 20.0177 1.63232   8
   1  -5  16 21.4938 1.89350   8
  -2   5 -16 5.99902 1.00389  13
  -2   5 -16 7.42570 1.17863   9
  -3   5 -16 0.35714 0.56139  13
  -3   5 -16 0.46692 0.32364   9
  -3  -4  16 2.25945 0.59628  10
  -3  -4  16 2.62867 0.56286   9
  -3  -4  16 2.65847 0.85011  17
  -2  -4  16 18.0847 2.19923  17
  -2  -4  16 20.7075 1.88557   9
  -1  -4  16 71.6703 5.14753  17
  -1  -4  16 73.4271 5.18795   9
  -1  -4  16 78.7089 4.72828   8
   0   4 -16 4.64174 1.09033   8
   0  -4  16 3.76653 0.82507   8
  -1   4 -16 13.4040 1.33226   8
  -2   4 -16 40.5370 2.96018   9
  -2   4 -16 39.4694 3.10288  13
  -2   4 -16 37.1596 2.38099   8
  -3   4 -16 18.4274 1.90070  13
  -3   4 -16 19.4659 1.54667   9
  -3   4 -16 19.6037 1.67655  10
  -4  -3  16 4.22749 0.60228  10
  -3  -3  16 86.5120 5.18234   9
  -3  -3  16 83.7278 5.70314  17
  -3  -3  16 75.0967 5.15980  10
  -2  -3  16 3.64134 0.59706   8
  -2  -3  16 3.50871 1.22568  17
  -2  -3  16 2.82064 0.84672   9
  -1  -3  16 5.17834 1.21492  17
  -1  -3  16 3.59703 0.89686   8
   0   3 -16 1.06809 0.91823   8
   0  -3  16 -0.3443 0.74237   8
  -1   3 -16 14.4652 1.53595   8
  -1   3 -16 13.8139 1.66772  13
  -2   3 -16 26.2502 1.97218   8
  -2   3 -16 31.3865 2.71724  13
  -2   3 -16 37.7713 2.86364   9
  -3   3 -16 24.9453 2.27357  10
  -3   3 -16 31.0655 2.17268   9
  -3   3 -16 31.6806 2.61423  13
  -4  -2  16 34.8281 3.07191  17
  -4  -2  16 36.1297 2.54501  10
  -3  -2  16 4.76173 1.02637   9
  -3  -2  16 1.40690 1.15334  18
  -3  -2  16 3.00139 0.92185  10
  -3  -2  16 3.46181 1.03686  17
  -2  -2  16 106.113 6.38862   8
  -2  -2  16 105.660 6.86231   9
  -2  -2  16 102.325 7.11580  17
  -1  -2  16 -0.1552 0.63072  17
  -1  -2  16 0.05508 0.56072   8
   0   2 -16 68.0171 4.79589   8
   0  -2  16 72.8450 4.99473   8
  -1   2 -16 41.6792 3.67523   9
  -1   2 -16 44.8270 3.14274   8
  -1   2 -16 35.6959 3.35393  13
  -2   2 -16 156.118 9.64877   8
  -2   2 -16 173.522 11.1261  14
  -2   2 -16 181.921 10.3806   9
  -2   2 -16 179.344 10.5897  13
  -3   2 -16 13.6025 1.77037  13
  -3   2 -16 16.0283 1.57836  10
  -3   2 -16 10.1765 1.67393  14
  -4   2 -16 21.6788 1.56092  10
  -4   2 -16 19.8288 1.76337  13
  -5  -1  16 31.2353 2.01119  10
  -4  -1  16 8.28808 1.51850  18
  -4  -1  16 5.77509 0.73039   9
  -4  -1  16 6.30109 0.94529  10
  -4  -1  16 4.83260 1.25446  17
  -3  -1  16 6.43452 1.43472  17
  -3  -1  16 6.21389 1.14304   9
  -3  -1  16 6.71449 1.31066  10
  -3  -1  16 3.46030 1.31766  18
  -2  -1  16 14.3032 1.50752   8
  -2  -1  16 11.0385 1.95149   9
  -1  -1  16 104.031 6.75666   8
   0   1 -16 2.64251 0.83600   8
  -1   1 -16 237.904 14.0709   9
  -1   1 -16 229.867 13.6304   8
  -2   1 -16 22.9154 2.42652  10
  -2   1 -16 27.1305 2.36770   9
  -2   1 -16 26.2897 2.93703  14
  -3   1 -16 0.90280 0.51819   9
  -3   1 -16 1.06288 0.58863  10
  -3   1 -16 0.18242 0.73514  14
  -4   1 -16 6.25929 0.73767  10
  -5   0  16 71.2218 4.62759  18
  -5   0  16 61.4853 3.97609  10
  -4   0  16 12.1846 1.26397   9
  -4   0  16 13.4849 1.49527  10
  -4   0  16 8.51871 1.61798  18
  -3   0  16 35.3209 2.21214   8
  -3   0  16 48.4385 3.25245  10
  -2   0  16 26.7624 2.81506   9
  -2   0  16 27.4170 2.28900   8
  -1   0  16 21.5578 2.20545   8
   0   0 -16 199.707 12.1114   8
  -1   0 -16 1.70980 0.76348   8
  -1   0 -16 1.24970 0.95718   9
  -2   0 -16 10.6667 1.94870  14
  -2   0 -16 8.87029 1.55312  10
  -2   0 -16 9.29680 1.45880   9
  -3   0 -16 10.5957 1.18617  10
  -3   0 -16 9.50449 1.58972  14
  -5   1  16 0.14339 0.56715  18
  -5   1  16 0.29083 0.32697  10
  -4   1  16 4.45007 0.90951  10
  -4   1  16 3.32673 0.78786   9
  -4   1  16 3.42247 1.16882  18
  -3   1  16 0.27059 0.30246   8
  -3   1  16 0.22254 0.71990  18
  -3   1  16 0.62305 1.04128   9
  -2   1  16 51.6324 4.43371   9
  -2   1  16 58.3265 3.97535   8
   1  -1 -16 117.857 7.67145   8
  -1   1  16 113.503 7.50695   8
   0  -1 -16 5.61503 1.26545   8
  -1  -1 -16 26.3375 2.82176   9
  -1  -1 -16 19.7438 1.77205   8
  -1  -1 -16 25.0478 2.94363  14
  -2  -1 -16 3.94014 1.15173  14
  -2  -1 -16 3.77525 0.89060   9
  -2  -1 -16 4.38277 1.03635  10
  -3  -1 -16 42.1252 3.12528  14
  -3  -1 -16 30.9800 2.44759  10
  -5   2  16 -0.1197 0.45244  18
  -5   2  16 0.26950 0.28854  10
  -4   2  16 208.326 13.9932  18
  -4   2  16 240.858 13.5318  10
  -4   2  16 250.478 13.3536   9
  -3   2  16 11.4971 0.91547   8
  -3   2  16 16.8018 2.10438   9
  -3   2  16 15.8575 2.00542  18
  -2   2  16 42.1192 3.89939   9
  -2   2  16 52.4289 3.47106   8
  -2   2  16 42.8253 3.90122  18
   1  -2 -16 2.15646 0.93695   8
  -1   2  16 2.13147 0.88066   8
   0  -2 -16 5.85096 1.59565  14
   0  -2 -16 7.77906 1.16256   8
  -1  -2 -16 14.2218 1.81350   9
  -1  -2 -16 9.73168 1.65166  14
  -2  -2 -16 7.36096 1.35290  14
  -2  -2 -16 8.58293 1.04512   9
  -4   3  16 1.12688 0.69055  18
  -4   3  16 1.15555 0.50954   9
  -4   3  16 0.27426 0.53443  10
  -3   3  16 29.2120 2.53573   9
  -3   3  16 30.2104 2.85617  18
   2  -3 -16 1.09612 1.31295   8
  -2   3  16 2.26095 0.61666   8
  -2   3  16 1.47183 0.82681  18
  -1   3  16 12.5533 1.50550   8
   0  -3 -16 45.3554 2.91739   8
   0  -3 -16 47.4984 3.68533   9
   0  -3 -16 40.7608 3.48962  14
  -1  -3 -16 0.50668 0.72184  14
  -1  -3 -16 0.75345 0.87910   9
  -3   4  16 0.79269 0.65489   9
   2  -4 -16 2.47327 0.72123   8
  -2   4  16 3.78847 0.57451   8
   1  -4 -16 17.1297 1.41541   8
  -1   4  16 18.8165 1.58726   8
  -1  -5  17 3.22656 0.83792  17
  -1  -5  17 3.68352 0.84727   9
   0   5 -17 1.51402 0.64503   8
   0  -5  17 1.70126 0.65707  17
   0  -5  17 1.06847 0.40480   8
  -1   5 -17 0.18169 0.53149  13
  -1   5 -17 0.56171 0.37242   8
   1  -5  17 0.27072 0.64482   8
  -2   5 -17 0.33651 0.51747   9
  -2   5 -17 -0.3084 0.52637  13
  -2  -4  17 93.5817 5.59916   9
  -2  -4  17 87.2946 5.86838  17
  -1  -4  17 35.0555 2.91821   9
  -1  -4  17 36.0637 2.47178   8
  -1  -4  17 38.0749 3.04512  17
   0  -4  17 86.8028 5.41062   8
  -1   4 -17 10.0196 1.05432   8
  -1   4 -17 8.73999 1.40322   9
  -1   4 -17 9.95131 1.28907  13
  -2   4 -17 29.6695 2.20653   9
  -2   4 -17 23.0115 2.28090  13
  -3   4 -17 135.527 7.42222   9
  -3   4 -17 127.871 7.90978  13
  -3  -3  17 15.3645 1.80434  17
  -3  -3  17 23.9074 1.79439  10
  -2  -3  17 2.47226 0.97885   9
  -2  -3  17 1.91808 0.34278   8
  -2  -3  17 2.31170 0.88552  17
  -1  -3  17 64.1519 4.52321  17
   0   3 -17 6.57067 1.31230  13
   0   3 -17 8.23350 1.24485   8
   0  -3  17 10.4196 1.28673   8
  -1   3 -17 20.2703 1.73265   8
  -1   3 -17 23.8710 2.36506   9
  -1   3 -17 22.3570 2.10538  13
  -2   3 -17 70.4978 5.24984  13
  -2   3 -17 90.1487 5.28993   9
  -3   3 -17 3.57554 0.61172   9
  -3   3 -17 3.06945 0.82728  13
  -3   3 -17 2.63930 0.63915  10
  -4  -2  17 123.253 7.51462  17
  -3  -2  17 108.903 6.23485  10
  -3  -2  17 108.313 6.14553   9
  -3  -2  17 80.6500 6.27323  17
  -2  -2  17 0.44685 0.96556  17
  -2  -2  17 1.44369 1.06906   9
  -2  -2  17 1.11583 0.49228   8
  -1  -2  17 136.369 8.30249   8
   0   2 -17 7.92702 1.33563   8
   0  -2  17 8.22512 1.44131   8
  -1   2 -17 2.17749 0.97653   9
  -1   2 -17 1.82571 0.69247   8
  -2   2 -17 6.48673 1.06702   9
  -2   2 -17 3.65160 1.37572  14
  -3   2 -17 0.58519 0.60965  13
  -3   2 -17 1.31717 0.73270  10
  -3   2 -17 1.45666 0.43449   9
  -4  -1  17 0.20647 0.42337  10
  -4  -1  17 -0.0611 0.56107  18
  -3  -1  17 0.54866 0.62727  10
  -3  -1  17 1.02005 0.81779  18
  -3  -1  17 0.65755 0.77057   9
  -2  -1  17 0.83592 0.56524   8
  -2  -1  17 -0.6610 1.05089   9
   1   1 -17 -0.0469 1.05327   8
  -1  -1  17 0.25403 0.77852   8
   0   1 -17 165.450 10.1436   8
   0  -1  17 169.704 10.2811   8
  -1   1 -17 190.762 11.5986   9
  -2   1 -17 39.6509 3.21566  10
  -2   1 -17 47.4633 3.26030   9
  -2   1 -17 43.4919 3.77924  14
  -3   1 -17 25.4883 2.51626  14
  -3   1 -17 30.6258 2.13126  10
  -4   0  17 42.0689 3.47321  18
  -4   0  17 44.2261 2.72688   9
  -4   0  17 45.6400 3.06764  10
  -3   0  17 6.04532 1.45838  18
  -3   0  17 7.58064 1.35634   9
  -2   0  17 32.1021 2.49358   8
  -2   0  17 32.1456 3.27102   9
   1   0 -17 0.27370 0.81254   8
  -1   0  17 -0.0116 0.81921   8
   0   0 -17 13.6824 1.62364   8
  -1   0 -17 13.4721 1.29738   8
  -1   0 -17 13.4095 2.00360   9
  -2   0 -17 0.66740 0.70665  10
  -2   0 -17 1.03725 0.80383  14
  -2   0 -17 0.95176 0.80284   9
  -3   0 -17 5.65041 1.10536  14
  -3   0 -17 4.78932 0.74164  10
  -4   1  17 13.3261 1.57590  10
  -4   1  17 16.8947 1.86712  18
  -4   1  17 15.0062 1.25571   9
  -3   1  17 77.3274 6.02577  18
  -3   1  17 95.4171 5.77840   9
  -2   1  17 0.35278 0.64888   8
  -2   1  17 0.27919 0.98234   9
   1  -1 -17 137.787 8.44743   8
  -1   1  17 125.241 8.13661   8
   0  -1 -17 71.0180 4.71295   8
  -1  -1 -17 17.2607 1.90672   9
  -1  -1 -17 12.4566 0.95997   8
  -1  -1 -17 15.0346 2.21609  14
  -2  -1 -17 74.0259 4.57653   9
  -4   2  17 1.00532 0.65550  18
  -4   2  17 0.29882 0.56585  10
  -4   2  17 0.56600 0.34326   9
  -3   2  17 17.1212 2.00496  18
  -3   2  17 21.9392 2.18424   9
  -2   2  17 -0.0092 0.99419   9
  -2   2  17 -0.1770 0.68502  18
  -2   2  17 -0.0279 0.56600   8
   1  -2 -17 0.18504 0.90383   8
  -1   2  17 0.43207 0.64319   8
   0  -2 -17 2.51532 0.58258   8
   0  -2 -17 3.01688 1.25342   9
   0  -2 -17 1.94007 1.23329  14
  -1  -2 -17 2.25568 1.02799   9
  -1  -2 -17 1.49944 1.04317  14
  -3   3  17 0.44404 0.60223   9
  -2   3  17 171.304 9.82843   9
  -2   3  17 145.790 8.93611   8
  -1   3  17 27.8588 2.25414   8
   0  -3 -17 0.63110 1.27542   9
  -2  -4  18 7.40509 0.94169   9
  -1  -4  18 29.0382 2.00834   8
  -1  -4  18 35.7582 2.60428   9
  -1  -4  18 35.0165 2.71943  17
   0   4 -18 2.81435 0.74500   8
   0   4 -18 3.14102 0.82032  13
   0  -4  18 3.16646 0.73054   8
   0  -4  18 2.70193 0.88556  17
  -1   4 -18 29.2935 2.50002   9
   1  -4  18 30.8334 2.33958   8
  -2   4 -18 3.34443 0.79797  13
  -2   4 -18 3.27826 0.68426   9
  -3  -3  18 2.58452 0.47352   9
  -2  -3  18 23.8895 2.09282  17
   1   3 -18 3.95404 0.92277   8
  -1  -3  18 4.42922 0.74591   8
   0   3 -18 137.030 8.07548   8
   0  -3  18 133.400 8.11296   8
  -1   3 -18 12.6887 1.15930   8
  -1   3 -18 12.8870 1.67829   9
  -2   3 -18 165.584 10.7418  13
  -2   3 -18 204.732 10.7386   9
  -3  -2  18 26.8205 1.92998   9
  -3  -2  18 18.9014 1.79509  10
  -2  -2  18 16.6854 1.80115   9
  -2  -2  18 13.7738 1.04785   8
   1   2 -18 0.21475 0.98223   8
  -1  -2  18 0.29909 0.45438   8
   0   2 -18 2.02941 0.70157   8
   0  -2  18 1.82443 0.95027   8
  -1   2 -18 18.6396 2.05020   9
  -1   2 -18 17.3095 1.46513   8
  -2   2 -18 0.18177 0.75125   9
  -2   2 -18 -0.1321 0.63484  14
  -3  -1  18 0.11603 0.54617   9
  -3  -1  18 1.07626 0.69920  10
  -3  -1  18 0.27371 0.56986  18
  -2  -1  18 11.5369 1.09422   8
  -2  -1  18 13.2982 1.72462   9
   1   1 -18 104.832 6.76704   8
  -1  -1  18 107.420 6.62304   8
   0   1 -18 62.3640 4.23887   8
   0  -1  18 62.7703 4.43393   8
  -1   1 -18 12.2189 1.57956   9
  -1   1 -18 8.80345 0.95279   8
  -2   1 -18 5.36881 1.02195  10
  -2   1 -18 9.62868 1.13819   9
  -2   1 -18 5.97962 1.29275  14
  -4   0  18 0.31373 0.46484  10
  -4   0  18 1.01835 0.58167  18
  -3   0  18 95.7545 6.43054  18
  -2   0  18 0.71256 0.37929   8
  -2   0  18 1.54675 1.33701   9
  -1   0  18 28.0669 2.32771   8
   0   0 -18 7.12487 1.05231   8
   0   0  18 4.79108 1.31331   8
  -1   0 -18 2.45144 1.21212  14
  -2   0 -18 34.0997 2.91427  14
  -3   1  18 14.3288 1.56484   9
  -3   1  18 14.9048 1.76902  18
  -2   1  18 41.4922 3.00756   8
  -2   1  18 49.5430 3.90177  18
  -2   1  18 54.6655 3.75857   9
   1  -1 -18 1.31427 0.73254   8
  -1   1  18 1.02534 0.82956   8
   0  -1 -18 24.5992 2.46957  14
   0   1  18 20.5793 2.19792   8
  -1  -1 -18 18.9261 2.02949  14
  -3   2  18 2.99126 0.86620  18
  -3   2  18 3.14897 0.77414   9
   2  -2 -18 1.53603 0.81888   8
  -2   2  18 1.66477 0.75432  18
  -2   2  18 1.30072 0.95052   9
  -2   2  18 0.53244 0.40105   8
   1  -2 -18 54.5971 3.82246   8
  -1   2  18 64.7376 3.85654   8
  -1   2  18 54.7764 4.10446  18
   0  -2 -18 2.37564 1.07264  14
   0  -2 -18 3.10698 1.15160   9
   0  -2 -18 2.99573 0.38750   8
   0   2  18 4.14251 0.90051   8
  -1  -3  19 4.89386 0.58930   8
   0   3 -19 5.78513 0.78890   8
   0  -3  19 4.51669 0.71147   8
   1   2 -19 0.85634 0.58717   8
  -1  -2  19 1.72628 0.54482   8
   0   2 -19 17.2598 1.56730   8
   0  -2  19 21.8739 1.85514   8
  -1   2 -19 0.83756 0.97252  14
  -1   2 -19 1.44708 1.01968   9
  -3  -1  19 14.1210 1.21320   9
  -2  -1  19 97.4966 6.38009  18
  -2  -1  19 97.5857 6.16802   9
   1   1 -19 0.29550 0.84320   8
  -1  -1  19 -0.0510 0.39619   8
   0   1 -19 63.9585 4.35620   8
   0  -1  19 77.0451 4.63448   8
  -1   1 -19 23.6578 2.12064   9
  -1   1 -19 23.6120 2.29015  14
  -3   0  19 2.07849 0.52960   9
  -3   0  19 0.47786 0.51390  18
  -2   0  19 1.31073 0.31204   8
  -2   0  19 1.71705 0.74470  18
  -2   0  19 0.85653 1.09006   9
   1   0 -19 9.43686 1.19822   8
  -1   0  19 9.85355 1.18075   8
   0   0 -19 2.53107 0.52092   8
   0   0  19 2.70116 0.97469   8
  -1   0 -19 47.9480 3.63136  14
  -1   0 -19 48.9206 3.33567   9
  -2   1  19 5.45112 1.10153  18
  -1   1  19 143.198 8.32614   8
   0  -1 -19 6.55627 1.17475  14
  -1  -1  20 41.9951 2.61230   8
   0   0   0    0.00    0.00   0

 _exptl_absorpt_process_details 'SADABS 2014/4'
 _exptl_absorpt_correction_type   multiscan
 _exptl_absorpt_correction_T_max  0.3201
 _exptl_absorpt_correction_T_min  0.1645
 _exptl_special_details
)
 The following wavelength and cell were deduced by SADABS from the
 direction cosines etc. They are given here for emergency use only:
 CELL 1.54177    6.660    7.231   16.631   97.847   94.705  103.819
)

;
_shelx_hkl_checksum   33803

