data_x15297 
 
_audit_creation_method            'SHELXL-2014/7 and CIFFIX' 
# CIF edited on-the-fly by script CIFFIX (S. Parkin, 2000-2014). 
# CIFFIX: http://xray.uky.edu/people/parkin/programs/ciffix 
_audit_update_record              ? 
 
_shelx_SHELXL_version_number      '2014/7' 
 
_publ_section_exptl_refinement 
; 
H atoms were found in difference Fourier maps, but subsequently included 
in the refinement using riding models, with constrained distances set to 
0.95 %A (C~sp2~H), 0.98 %A (RCH~3~) and 0.99 %A (R~2~CH~2~).  U~iso~(H) 
parameters were set to values of either 1.2U~eq~ or 1.5U~eq~ (RCH~3~ only) 
of the attached atom. 
 
To ensure satisfactory refinement for disordered groups in the structure, 
a combination of constraints and restraints were employed. The constraints 
(SHELXL commands EXYZ and EADP) were used to fix overlapping fragments. 
Restraints were used to ensure the integrity of ill-defined or disordered 
groups (SHELXL commands SAME and RIGU). 
; 
 
_publ_section_references 
; 
Bruker-AXS (2006). 
  <i>APEX2</i> Bruker-AXS Inc., Madison, WI, USA. 
 
Hope, H. (1994). 
  <i>Prog. Inorg. Chem.</i> <b>41</b>, 1--19. 
 
Krause, L., Herbst-Irmer, R., Sheldrick, G.M. & Stalke, D. (2015). 
  <i>J. Appl. Cryst.</i> <b>48</b>, 3--10. 
 
Parkin, S. & Hope, H. (1998). 
  <i>J. Appl. Cryst.</i> <b>31</b>, 945--953. 
 
Parkin, S. (2000). 
  <i>Acta Cryst.</i> A<b>56</b>, 157--162. 
 
Parkin, S. (2013). 
  <i>CIFFIX</i>, http://xray.uky.edu/people/parkin/programs/ciffix 
 
Sheldrick, G.M. (2008). 
  <i>Acta Cryst.</i> A<b>64</b>, 112--122. 
 
Sheldrick, G.M. (2015a). 
  <i>Acta Cryst.</i> A<b>71</b>, 3--8. 
 
Sheldrick, G.M. (2015b). 
  <i>Acta Cryst.</i> C<b>71</b>, 3--8. 
 
Spek, A.L. (2009). 
  <i>Acta Cryst.</i> D<b>65</b>, 148--155. 
; 
 
_publ_section_acknowledgements 
; 
The X8 Proteum diffractometer was funded by the NSF (MRI CHE0319176, 70%), 
and by the University of Kentucky (cost share, 30%). 
; 
 
_chemical_name_systematic         ? 
_chemical_name_common             ? 
_chemical_melting_point           ? 
_chemical_formula_moiety          'C58 H66 S6 Si2' 
_chemical_formula_sum             'C58 H66 S6 Si2' 
_chemical_formula_weight          1011.64 
 
loop_ 
 _atom_type_symbol 
 _atom_type_description 
 _atom_type_scat_dispersion_real 
 _atom_type_scat_dispersion_imag 
 _atom_type_scat_source 
 'C'  'C'   0.0181   0.0091 
 'International Tables Vol C Tables 4.2.6.8 and 6.1.1.4' 
 'H'  'H'   0.0000   0.0000 
 'International Tables Vol C Tables 4.2.6.8 and 6.1.1.4' 
 'Si'  'Si'   0.2541   0.3302 
 'International Tables Vol C Tables 4.2.6.8 and 6.1.1.4' 
 'S'  'S'   0.3331   0.5567 
 'International Tables Vol C Tables 4.2.6.8 and 6.1.1.4' 
 
_space_group_crystal_system       triclinic 
_space_group_IT_number            2 
_space_group_name_H-M_alt         'P -1' 
_space_group_name_Hall            '-P 1' 
 
_shelx_space_group_comment 
; 
The symmetry employed for this shelxl refinement is uniquely defined 
by the following loop, which should always be used as a source of 
symmetry information in preference to the above space-group names. 
They are only intended as comments. 
; 
 
loop_ 
 _space_group_symop_operation_xyz 
 'x, y, z' 
 '-x, -y, -z' 
 
_cell_length_a                    10.1547(4) 
_cell_length_b                    10.3853(4) 
_cell_length_c                    14.1353(6) 
_cell_angle_alpha                 78.723(2) 
_cell_angle_beta                  82.090(2) 
_cell_angle_gamma                 69.285(2) 
_cell_volume                      1363.6(1) 
_cell_formula_units_Z             1 
_cell_measurement_temperature     90.0(2) 
_cell_measurement_reflns_used     9992 
_cell_measurement_theta_min       3.20 
_cell_measurement_theta_max       68.17 
 
_exptl_crystal_description        plate 
_exptl_crystal_colour             yellow 
_exptl_crystal_density_meas       ? 
_exptl_crystal_density_method     ? 
_exptl_crystal_density_diffrn     1.232 
_exptl_crystal_F_000              538 
_exptl_transmission_factor_min    ? 
_exptl_transmission_factor_max    ? 
_exptl_crystal_size_max           0.210 
_exptl_crystal_size_mid           0.120 
_exptl_crystal_size_min           0.090 
_exptl_absorpt_coefficient_mu     3.008 
_shelx_estimated_absorpt_T_min    0.571 
_shelx_estimated_absorpt_T_max    0.774 
_exptl_absorpt_correction_type    multi-scan 
_exptl_absorpt_correction_T_min   0.609 
_exptl_absorpt_correction_T_max   0.773 
_exptl_absorpt_process_details    '<i>SADABS</i> (Krause et al., 2015)' 
_exptl_absorpt_special_details 
; 
In addition to absorption, multi-scan techniques also correct other slowly 
varying changes in scale factor over reciprocal space, such as those caused 
by x-ray beam inhomogeneity, goniometer imperfection, crystal decomposition, 
crystal longer than the x-ray beam cross section, absorption by the crystal 
mount etc.  These account, by and large, for much of the difference between 
estimated values of Tmin and Tmax and the _exptl_absorpt_correction_ values. 
; 
 
_exptl_special_details 
; 
The crystal was mounted using polyisobutene oil on the tip of a fine glass 
fibre, which was fastened in a copper mounting pin with electrical solder. 
It was placed directly into the cold gas stream of a liquid-nitrogen based 
cryostat (Hope, 1994; Parkin & Hope, 1998). 
 
Diffraction data were collected with the crystal at 90K, which is standard 
practice in this laboratory for the majority of flash-cooled crystals. 
; 
 
_diffrn_ambient_temperature       90.0(2) 
_diffrn_radiation_wavelength      1.54178 
_diffrn_radiation_type            CuK\a 
_diffrn_source                    'fine-focus rotating anode' 
_diffrn_measurement_device_type   'Bruker X8 Proteum diffractometer' 
_diffrn_measurement_method        '\f and \w scans' 
_diffrn_detector_area_resol_mean  5.6 
_diffrn_reflns_number             18432 
_diffrn_reflns_av_unetI/netI      0.0311 
_diffrn_reflns_av_R_equivalents   0.0393 
_diffrn_reflns_limit_h_min        -11 
_diffrn_reflns_limit_h_max        12 
_diffrn_reflns_limit_k_min        -12 
_diffrn_reflns_limit_k_max        9 
_diffrn_reflns_limit_l_min        -16 
_diffrn_reflns_limit_l_max        17 
_diffrn_reflns_theta_min          3.197 
_diffrn_reflns_theta_max          68.162 
_diffrn_reflns_theta_full         67.679 
_diffrn_measured_fraction_theta_max                0.972 
_diffrn_measured_fraction_theta_full               0.976 
_diffrn_reflns_Laue_measured_fraction_max          0.972 
_diffrn_reflns_Laue_measured_fraction_full         0.976 
_diffrn_reflns_point_group_measured_fraction_max   0.972 
_diffrn_reflns_point_group_measured_fraction_full  0.976 
 
_reflns_number_total              4842 
_reflns_number_gt                 4581 
_reflns_threshold_expression      'I > 2\s(I)' 
_reflns_Friedel_coverage          0.000 
_reflns_Friedel_fraction_max      . 
_reflns_Friedel_fraction_full     . 
_reflns_special_details 
; 
Reflections were merged by SHELXL according to the crystal 
class for the calculation of statistics and refinement. 
 
_reflns_Friedel_fraction is defined as the number of unique 
Friedel pairs measured divided by the number that would be 
possible theoretically, ignoring centric projections and 
systematic absences. 
; 
 
_computing_data_collection        '<i>APEX2</i> (Bruker-AXS, 2006)' 
_computing_cell_refinement        '<i>APEX2</i> (Bruker-AXS, 2006)' 
_computing_data_reduction         '<i>APEX2</i> (Bruker-AXS, 2006)' 
_computing_structure_solution     '<i>SHELXT</i> (Sheldrick, 2015a)' 
_computing_structure_refinement   '<i>SHELXL-2014/7</i> (Sheldrick, 2015b)' 
_computing_molecular_graphics     '<i>XP in SHELXTL</i> (Sheldrick, 2008)' 
_computing_publication_material 
'<i>SHELX</i> (Sheldrick, 2008) and <i>CIFFIX</i> (Parkin, 2013)' 
 
_refine_special_details 
; 
Refinement progress was checked using <i>Platon</i> (Spek, 2009) and by 
an <i>R</i>-tensor (Parkin, 2000). The final model was further checked 
with the IUCr utility <i>checkCIF</i>. 
; 
_refine_ls_structure_factor_coef  Fsqd 
_refine_ls_matrix_type            full 
_refine_ls_weighting_scheme       calc 
_refine_ls_weighting_details 
'w=1/[\s^2^(Fo^2^)+(0.0825P)^2^+0.5953P] where P=(Fo^2^+2Fc^2^)/3' 
_atom_sites_solution_primary      direct 
_atom_sites_solution_secondary    difmap 
_atom_sites_solution_hydrogens    difmap 
_refine_ls_hydrogen_treatment     constr 
_refine_ls_extinction_method      none 
_refine_ls_extinction_coef        . 
_refine_ls_number_reflns          4842 
_refine_ls_number_parameters      359 
_refine_ls_number_restraints      343 
_refine_ls_R_factor_all           0.0390 
_refine_ls_R_factor_gt            0.0376 
_refine_ls_wR_factor_ref          0.1232 
_refine_ls_wR_factor_gt           0.1216 
_refine_ls_goodness_of_fit_ref    1.047 
_refine_ls_restrained_S_all       1.021 
_refine_ls_shift/su_max           0.000 
_refine_ls_shift/su_mean          0.000 
 
loop_ 
 _atom_site_label 
 _atom_site_type_symbol 
 _atom_site_fract_x 
 _atom_site_fract_y 
 _atom_site_fract_z 
 _atom_site_U_iso_or_equiv 
 _atom_site_adp_type 
 _atom_site_occupancy 
 _atom_site_site_symmetry_order 
 _atom_site_calc_flag 
 _atom_site_refinement_flags_posn 
 _atom_site_refinement_flags_adp 
 _atom_site_refinement_flags_occupancy 
 _atom_site_disorder_assembly 
 _atom_site_disorder_group 
Si1 Si 0.12884(5) 0.83514(5) 0.18986(3) 0.01895(15) Uani 1 1 d . . . . . 
C1 C 0.41913(16) 0.57109(17) 0.41753(11) 0.0149(3) Uani 1 1 d . . . . . 
C2 C 0.41721(17) 0.44031(17) 0.46594(12) 0.0158(3) Uani 0.8886(17) 1 d D U P A 
1 
S1 S 0.32143(5) 0.34846(5) 0.43465(3) 0.01451(17) Uani 0.8886(17) 1 d D U P A 1 
C3 C 0.49574(17) 0.37020(17) 0.54737(12) 0.0160(3) Uani 0.8886(17) 1 d D U P A 
1 
C4 C 0.4728(3) 0.2400(3) 0.5815(2) 0.0150(4) Uani 0.8886(17) 1 d D U P A 1 
H4 H 0.5175 0.1764 0.6351 0.018 Uiso 0.8886(17) 1 calc R U P A 1 
C5 C 0.38276(17) 0.21480(16) 0.53159(12) 0.0151(3) Uani 0.8886(17) 1 d D U P A 
1 
C3' C 0.49574(17) 0.37020(17) 0.54737(12) 0.0160(3) Uani 0.1114(17) 1 d D U P A 
2 
S1' S 0.4944(6) 0.2178(6) 0.6156(4) 0.0150(4) Uani 0.1114(17) 1 d D U P A 2 
C2' C 0.41721(17) 0.44031(17) 0.46594(12) 0.0158(3) Uani 0.1114(17) 1 d D U P A 
2 
C4' C 0.3457(17) 0.3360(14) 0.4676(12) 0.01451(17) Uani 0.1114(17) 1 d D U P A 
2 
H4' H 0.2751 0.3541 0.4244 0.017 Uiso 0.1114(17) 1 calc R U P A 2 
C5' C 0.38276(17) 0.21480(16) 0.53159(12) 0.0151(3) Uani 0.1114(17) 1 d D U P A 
2 
C6 C 0.33666(17) 0.09431(17) 0.54891(11) 0.0159(3) Uani 0.9242(15) 1 d D U P A 
1 
S2 S 0.39094(5) -0.03250(4) 0.65091(3) 0.01591(15) Uani 0.9242(15) 1 d D U P A 
1 
C7 C 0.2551(2) 0.0614(2) 0.49712(18) 0.0170(4) Uani 0.9242(15) 1 d D U P A 1 
H7 H 0.2178 0.1184 0.4391 0.020 Uiso 0.9242(15) 1 calc R U P A 1 
C8 C 0.2289(4) -0.0650(3) 0.53561(17) 0.0146(5) Uani 0.9242(15) 1 d D U P A 1 
C9 C 0.1503(4) -0.1287(4) 0.4999(3) 0.0166(4) Uani 0.9242(15) 1 d D U P A 1 
H9 H 0.1036 -0.0875 0.4421 0.020 Uiso 0.9242(15) 1 calc R U P A 1 
C10 C 0.1424(5) -0.2540(4) 0.5514(2) 0.0170(6) Uani 0.9242(15) 1 d D U P A 1 
S3 S 0.04863(6) -0.35167(5) 0.52345(4) 0.02085(16) Uani 0.9242(15) 1 d D U P A 
1 
C11 C 0.1057(14) -0.4775(7) 0.6223(5) 0.0247(7) Uani 0.9242(15) 1 d D U P A 1 
H11 H 0.0779 -0.5578 0.6389 0.030 Uiso 0.9242(15) 1 calc R U P A 1 
C12 C 0.1926(3) -0.4520(3) 0.67360(19) 0.0219(5) Uani 0.9242(15) 1 d D U P A 1 
H12 H 0.2350 -0.5134 0.7287 0.026 Uiso 0.9242(15) 1 calc R U P A 1 
C13 C 0.2152(7) -0.3212(4) 0.6363(3) 0.0186(8) Uani 0.9242(15) 1 d D U P A 1 
C14 C 0.2959(3) -0.2591(2) 0.6712(2) 0.0177(6) Uani 0.9242(15) 1 d D U P A 1 
H14 H 0.3463 -0.3027 0.7272 0.021 Uiso 0.9242(15) 1 calc R U P A 1 
C15 C 0.3002(3) -0.1315(2) 0.6213(2) 0.0157(5) Uani 0.9242(15) 1 d D U P A 1 
C6' C 0.33666(17) 0.09431(17) 0.54891(11) 0.0159(3) Uani 0.0758(15) 1 d D U P A 
2 
S2' S 0.2330(8) 0.0839(8) 0.4637(5) 0.0170(4) Uani 0.0758(15) 1 d D U P A 2 
C7' C 0.355(3) -0.0176(19) 0.6199(14) 0.01591(15) Uani 0.0758(15) 1 d D U P A 2 
H7' H 0.4127 -0.0347 0.6716 0.019 Uiso 0.0758(15) 1 calc R U P A 2 
C8' C 0.281(6) -0.108(4) 0.610(3) 0.0157(5) Uani 0.0758(15) 1 d D U P A 2 
C9' C 0.280(5) -0.230(3) 0.672(3) 0.0157(5) Uani 0.0758(15) 1 d D U P A 2 
H9' H 0.3267 -0.2584 0.7299 0.019 Uiso 0.0758(15) 1 calc R U P A 2 
C10' C 0.209(10) -0.308(6) 0.646(4) 0.0186(8) Uani 0.0758(15) 1 d D U P A 2 
S3' S 0.1907(11) -0.4631(10) 0.7083(6) 0.0219(5) Uani 0.0758(15) 1 d D U P A 2 
C11' C 0.108(17) -0.483(8) 0.617(7) 0.0247(7) Uani 0.0758(15) 1 d D U P A 2 
H11' H 0.0906 -0.5663 0.6138 0.030 Uiso 0.0758(15) 1 calc R U P A 2 
C12' C 0.071(3) -0.368(3) 0.551(2) 0.02085(16) Uani 0.0758(15) 1 d D U P A 2 
H12' H 0.0108 -0.3555 0.5019 0.025 Uiso 0.0758(15) 1 calc R U P A 2 
C13' C 0.130(8) -0.264(5) 0.562(4) 0.0170(6) Uani 0.0758(15) 1 d D U P A 2 
C14' C 0.133(6) -0.144(5) 0.501(3) 0.0166(4) Uani 0.0758(15) 1 d D U P A 2 
H14' H 0.0781 -0.1087 0.4467 0.020 Uiso 0.0758(15) 1 calc R U P A 2 
C15' C 0.218(6) -0.075(4) 0.521(3) 0.0146(5) Uani 0.0758(15) 1 d D U P A 2 
C16 C 0.33397(17) 0.64768(17) 0.33872(12) 0.0186(3) Uani 1 1 d . . . . . 
C17 C 0.25807(18) 0.71988(18) 0.27641(12) 0.0208(4) Uani 1 1 d . . . . . 
C18 C 0.08051(19) 1.02023(18) 0.20926(13) 0.0240(4) Uani 0.577(6) 1 d D U P B 1 
H18A H 0.0163 1.0810 0.1595 0.029 Uiso 0.577(6) 1 calc R U P B 1 
H18B H 0.0270 1.0298 0.2730 0.029 Uiso 0.577(6) 1 calc R U P B 1 
C19 C 0.2030(9) 1.0743(9) 0.2058(16) 0.0296(6) Uani 0.577(6) 1 d D U P B 1 
H19A H 0.2599 1.0233 0.2615 0.036 Uiso 0.577(6) 1 calc R U P B 1 
H19B H 0.2645 1.0537 0.1460 0.036 Uiso 0.577(6) 1 calc R U P B 1 
C20 C 0.157(2) 1.2305(11) 0.2082(8) 0.0360(8) Uani 0.577(6) 1 d D U P B 1 
H20A H 0.0896 1.2811 0.1581 0.043 Uiso 0.577(6) 1 calc R U P B 1 
H20B H 0.1073 1.2495 0.2719 0.043 Uiso 0.577(6) 1 calc R U P B 1 
C21 C 0.2765(5) 1.2850(4) 0.1913(3) 0.0441(11) Uani 0.577(6) 1 d D U P B 1 
H21A H 0.3466 1.2318 0.2382 0.066 Uiso 0.577(6) 1 calc R U P B 1 
H21B H 0.2415 1.3835 0.1991 0.066 Uiso 0.577(6) 1 calc R U P B 1 
H21C H 0.3202 1.2758 0.1256 0.066 Uiso 0.577(6) 1 calc R U P B 1 
C18' C 0.08051(19) 1.02023(18) 0.20926(13) 0.0240(4) Uani 0.423(6) 1 d D U P B 
2 
H18C H 0.0140 1.0812 0.1609 0.029 Uiso 0.423(6) 1 calc R U P B 2 
H18D H 0.0303 1.0294 0.2741 0.029 Uiso 0.423(6) 1 calc R U P B 2 
C19' C 0.2046(11) 1.0724(12) 0.202(2) 0.0296(6) Uani 0.423(6) 1 d D U P B 2 
H19C H 0.2548 1.0641 0.1371 0.036 Uiso 0.423(6) 1 calc R U P B 2 
H19D H 0.2714 1.0118 0.2504 0.036 Uiso 0.423(6) 1 calc R U P B 2 
C20' C 0.162(3) 1.2236(15) 0.2185(11) 0.0360(8) Uani 0.423(6) 1 d D U P B 2 
H20C H 0.0941 1.2376 0.2763 0.043 Uiso 0.423(6) 1 calc R U P B 2 
H20D H 0.2461 1.2425 0.2309 0.043 Uiso 0.423(6) 1 calc R U P B 2 
C21' C 0.0956(7) 1.3229(5) 0.1338(4) 0.0423(15) Uani 0.423(6) 1 d D U P B 2 
H21D H 0.1582 1.3028 0.0753 0.064 Uiso 0.423(6) 1 calc R U P B 2 
H21E H 0.0800 1.4183 0.1433 0.064 Uiso 0.423(6) 1 calc R U P B 2 
H21F H 0.0050 1.3132 0.1268 0.064 Uiso 0.423(6) 1 calc R U P B 2 
C22 C 0.20963(19) 0.81413(18) 0.06409(12) 0.0219(4) Uani 1 1 d . . . . . 
H22A H 0.1434 0.8809 0.0175 0.026 Uiso 1 1 calc R U . . . 
H22B H 0.2971 0.8381 0.0548 0.026 Uiso 1 1 calc R U . . . 
C23 C 0.2453(2) 0.66678(19) 0.04125(13) 0.0255(4) Uani 1 1 d . . . . . 
H23A H 0.3117 0.6000 0.0877 0.031 Uiso 1 1 calc R U . . . 
H23B H 0.1578 0.6427 0.0506 0.031 Uiso 1 1 calc R U . . . 
C24 C 0.3108(2) 0.6498(2) -0.06137(13) 0.0295(4) Uani 1 1 d . . . . . 
H24A H 0.2438 0.7148 -0.1081 0.035 Uiso 1 1 calc R U . . . 
H24B H 0.3975 0.6752 -0.0714 0.035 Uiso 1 1 calc R U . . . 
C25 C 0.3475(3) 0.5024(2) -0.08112(15) 0.0389(5) Uani 1 1 d . . . . . 
H25A H 0.4098 0.4371 -0.0328 0.058 Uiso 1 1 calc R U . . . 
H25B H 0.3956 0.4949 -0.1459 0.058 Uiso 1 1 calc R U . . . 
H25C H 0.2608 0.4799 -0.0774 0.058 Uiso 1 1 calc R U . . . 
C26 C -0.03032(18) 0.77935(18) 0.21349(12) 0.0224(4) Uani 1 1 d . . . . . 
H26A H -0.0005 0.6793 0.2079 0.027 Uiso 1 1 calc R U . . . 
H26B H -0.0694 0.7893 0.2809 0.027 Uiso 1 1 calc R U . . . 
C27 C -0.14772(18) 0.86131(18) 0.14530(13) 0.0224(4) Uani 1 1 d . . . . . 
H27A H -0.1863 0.9595 0.1564 0.027 Uiso 1 1 calc R U . . . 
H27B H -0.1070 0.8606 0.0775 0.027 Uiso 1 1 calc R U . . . 
C28 C -0.26698(19) 0.80171(19) 0.15964(13) 0.0253(4) Uani 1 1 d . . . . . 
H28A H -0.3004 0.7929 0.2290 0.030 Uiso 1 1 calc R U . . . 
H28B H -0.2299 0.7069 0.1421 0.030 Uiso 1 1 calc R U . . . 
C29 C -0.3918(2) 0.8895(2) 0.10024(17) 0.0372(5) Uani 1 1 d . . . . . 
H29A H -0.4303 0.9831 0.1179 0.056 Uiso 1 1 calc R U . . . 
H29B H -0.4649 0.8457 0.1133 0.056 Uiso 1 1 calc R U . . . 
H29C H -0.3604 0.8960 0.0313 0.056 Uiso 1 1 calc R U . . . 
 
loop_ 
 _atom_site_aniso_label 
 _atom_site_aniso_U_11 
 _atom_site_aniso_U_22 
 _atom_site_aniso_U_33 
 _atom_site_aniso_U_23 
 _atom_site_aniso_U_13 
 _atom_site_aniso_U_12 
Si1 0.0198(3) 0.0188(3) 0.0162(2) 0.00158(17) -0.00583(18) -0.00476(19) 
C1 0.0135(7) 0.0143(8) 0.0150(8) -0.0023(6) -0.0009(6) -0.0024(6) 
C2 0.0133(7) 0.0158(8) 0.0187(8) -0.0056(6) -0.0010(6) -0.0041(6) 
S1 0.0157(3) 0.0127(3) 0.0167(3) -0.00095(19) -0.00448(19) -0.00624(19) 
C3 0.0157(8) 0.0141(8) 0.0166(8) -0.0022(6) 0.0009(6) -0.0039(6) 
C4 0.0161(10) 0.0128(10) 0.0155(14) 0.0003(10) -0.002(1) -0.0052(8) 
C5 0.0155(8) 0.0118(7) 0.0176(8) -0.0019(6) -0.0011(6) -0.0047(6) 
C3' 0.0157(8) 0.0141(8) 0.0166(8) -0.0022(6) 0.0009(6) -0.0039(6) 
S1' 0.0161(10) 0.0128(10) 0.0155(14) 0.0003(10) -0.002(1) -0.0052(8) 
C2' 0.0133(7) 0.0158(8) 0.0187(8) -0.0056(6) -0.0010(6) -0.0041(6) 
C4' 0.0157(3) 0.0127(3) 0.0167(3) -0.00095(19) -0.00448(19) -0.00624(19) 
C5' 0.0155(8) 0.0118(7) 0.0176(8) -0.0019(6) -0.0011(6) -0.0047(6) 
C6 0.0160(8) 0.0143(8) 0.0174(8) -0.0022(6) -0.0007(6) -0.0055(6) 
S2 0.0205(3) 0.0138(2) 0.0157(3) -0.00074(17) -0.00419(17) -0.00832(19) 
C7 0.0188(10) 0.0138(10) 0.0178(13) 0.0012(9) -0.0052(9) -0.0053(8) 
C8 0.0144(10) 0.0121(9) 0.0174(12) -0.0048(8) 0.0006(8) -0.0040(6) 
C9 0.0141(14) 0.0156(11) 0.0208(8) -0.0036(7) -0.0018(8) -0.0053(7) 
C10 0.0141(14) 0.015(1) 0.0228(13) -0.0069(7) 0.0030(12) -0.0055(7) 
S3 0.0195(3) 0.0181(3) 0.0287(3) -0.0065(2) -0.0008(2) -0.0097(2) 
C11 0.0308(11) 0.0194(10) 0.0287(14) -0.0072(10) 0.0069(13) -0.0160(11) 
C12 0.0308(9) 0.0183(9) 0.0178(13) -0.0029(12) 0.0043(13) -0.0121(7) 
C13 0.0212(11) 0.0155(12) 0.0193(13) -0.0048(11) 0.0046(12) -0.0075(12) 
C14 0.0200(13) 0.0155(12) 0.0166(8) -0.0021(9) 0.0004(8) -0.0059(12) 
C15 0.0158(14) 0.0148(12) 0.0161(11) -0.0042(7) 0.0002(7) -0.0043(12) 
C6' 0.0160(8) 0.0143(8) 0.0174(8) -0.0022(6) -0.0007(6) -0.0055(6) 
S2' 0.0188(10) 0.0138(10) 0.0178(13) 0.0012(9) -0.0052(9) -0.0053(8) 
C7' 0.0205(3) 0.0138(2) 0.0157(3) -0.00074(17) -0.00419(17) -0.00832(19) 
C8' 0.0158(14) 0.0148(12) 0.0161(11) -0.0042(7) 0.0002(7) -0.0043(12) 
C9' 0.0158(14) 0.0148(12) 0.0161(11) -0.0042(7) 0.0002(7) -0.0043(12) 
C10' 0.0212(11) 0.0155(12) 0.0193(13) -0.0048(11) 0.0046(12) -0.0075(12) 
S3' 0.0308(9) 0.0183(9) 0.0178(13) -0.0029(12) 0.0043(13) -0.0121(7) 
C11' 0.0308(11) 0.0194(10) 0.0287(14) -0.0072(10) 0.0069(13) -0.0160(11) 
C12' 0.0195(3) 0.0181(3) 0.0287(3) -0.0065(2) -0.0008(2) -0.0097(2) 
C13' 0.0141(14) 0.015(1) 0.0228(13) -0.0069(7) 0.0030(12) -0.0055(7) 
C14' 0.0141(14) 0.0156(11) 0.0208(8) -0.0036(7) -0.0018(8) -0.0053(7) 
C15' 0.0144(10) 0.0121(9) 0.0174(12) -0.0048(8) 0.0006(8) -0.0040(6) 
C16 0.0191(8) 0.0184(8) 0.0173(8) -0.0034(6) -0.0006(6) -0.0052(7) 
C17 0.0222(8) 0.0211(9) 0.0191(8) -0.0039(7) -0.0020(7) -0.0068(7) 
C18 0.0239(9) 0.0215(9) 0.0232(9) -0.0003(7) -0.0053(7) -0.0041(7) 
C19 0.0282(10) 0.0266(10) 0.0349(16) -0.0100(9) 0.0009(9) -0.0087(8) 
C20 0.0411(15) 0.0262(13) 0.042(2) -0.0070(12) -0.0022(17) -0.0122(13) 
C21 0.063(3) 0.033(2) 0.044(2) -0.0025(16) -0.0121(19) -0.0251(19) 
C18' 0.0239(9) 0.0215(9) 0.0232(9) -0.0003(7) -0.0053(7) -0.0041(7) 
C19' 0.0282(10) 0.0266(10) 0.0349(16) -0.0100(9) 0.0009(9) -0.0087(8) 
C20' 0.0411(15) 0.0262(13) 0.042(2) -0.0070(12) -0.0022(17) -0.0122(13) 
C21' 0.058(3) 0.025(2) 0.042(3) -0.004(2) 0.000(2) -0.013(2) 
C22 0.0251(9) 0.0229(9) 0.0178(8) 0.0009(6) -0.0046(6) -0.0092(7) 
C23 0.0323(10) 0.0255(9) 0.0199(9) -0.0026(7) -0.0040(7) -0.0109(8) 
C24 0.0356(10) 0.0309(10) 0.0204(9) -0.0029(7) -0.0054(8) -0.0087(8) 
C25 0.0497(13) 0.0368(12) 0.0296(11) -0.0101(9) -0.0069(9) -0.0101(10) 
C26 0.0221(9) 0.0220(8) 0.0204(8) 0.0018(7) -0.0041(7) -0.0059(7) 
C27 0.0218(8) 0.0218(9) 0.0219(9) 0.0016(7) -0.0055(7) -0.0063(7) 
C28 0.0259(9) 0.0249(9) 0.0262(9) -0.0030(7) -0.0043(7) -0.0094(8) 
C29 0.0266(10) 0.0437(12) 0.0430(12) -0.0029(9) -0.0114(9) -0.0128(9) 
 
_geom_special_details 
; 
 All esds (except the esd in the dihedral angle between two l.s. planes) 
 are estimated using the full covariance matrix.  The cell esds are taken 
 into account individually in the estimation of esds in distances, angles 
 and torsion angles; correlations between esds in cell parameters are only 
 used when they are defined by crystal symmetry.  An approximate (isotropic) 
 treatment of cell esds is used for estimating esds involving l.s. planes. 
; 
 
loop_ 
 _geom_bond_atom_site_label_1 
 _geom_bond_atom_site_label_2 
 _geom_bond_distance 
 _geom_bond_site_symmetry_2 
 _geom_bond_publ_flag 
Si1 C17 1.8465(18) . ? 
Si1 C26 1.8702(18) . ? 
Si1 C22 1.8721(18) . ? 
Si1 C18 1.8742(19) . ? 
Si1 C18' 1.8742(19) . ? 
C1 C2' 1.402(2) . ? 
C1 C2 1.402(2) . ? 
C1 C3' 1.405(2) 2_666 ? 
C1 C3 1.405(2) 2_666 ? 
C1 C16 1.433(2) . ? 
C2 C3 1.416(2) . ? 
C2 S1 1.7295(17) . ? 
S1 C5 1.7526(16) . ? 
C3 C1 1.405(2) 2_666 ? 
C3 C4 1.432(3) . ? 
C4 C5 1.350(3) . ? 
C4 H4 0.9500 . ? 
C5 C6 1.452(3) . ? 
C3' C1 1.405(2) 2_666 ? 
C3' C2' 1.416(2) . ? 
C3' S1' 1.689(5) . ? 
S1' C5' 1.763(5) . ? 
C2' C4' 1.498(13) . ? 
C4' C5' 1.363(13) . ? 
C4' H4' 0.9500 . ? 
C5' C6' 1.452(3) . ? 
C6 C7 1.343(3) . ? 
C6 S2 1.7549(16) . ? 
S2 C15 1.739(2) . ? 
C7 C8 1.421(3) . ? 
C7 H7 0.9500 . ? 
C8 C9 1.395(3) . ? 
C8 C15 1.424(3) . ? 
C9 C10 1.384(3) . ? 
C9 H9 0.9500 . ? 
C10 C13 1.424(3) . ? 
C10 S3 1.742(2) . ? 
S3 C11 1.723(3) . ? 
C11 C12 1.339(5) . ? 
C11 H11 0.9500 . ? 
C12 C13 1.443(3) . ? 
C12 H12 0.9500 . ? 
C13 C14 1.393(3) . ? 
C14 C15 1.386(3) . ? 
C14 H14 0.9500 . ? 
C6' C7' 1.354(15) . ? 
C6' S2' 1.746(7) . ? 
S2' C15' 1.736(17) . ? 
C7' C8' 1.433(17) . ? 
C7' H7' 0.9500 . ? 
C8' C9' 1.388(17) . ? 
C8' C15' 1.421(17) . ? 
C9' C10' 1.384(18) . ? 
C9' H9' 0.9500 . ? 
C10' C13' 1.431(17) . ? 
C10' S3' 1.734(17) . ? 
S3' C11' 1.72(2) . ? 
C11' C12' 1.33(2) . ? 
C11' H11' 0.9500 . ? 
C12' C13' 1.447(18) . ? 
C12' H12' 0.9500 . ? 
C13' C14' 1.386(18) . ? 
C14' C15' 1.383(18) . ? 
C14' H14' 0.9500 . ? 
C16 C17 1.205(2) . ? 
C18 C19 1.528(5) . ? 
C18 H18A 0.9900 . ? 
C18 H18B 0.9900 . ? 
C19 C20 1.527(5) . ? 
C19 H19A 0.9900 . ? 
C19 H19B 0.9900 . ? 
C20 C21 1.483(14) . ? 
C20 H20A 0.9900 . ? 
C20 H20B 0.9900 . ? 
C21 H21A 0.9800 . ? 
C21 H21B 0.9800 . ? 
C21 H21C 0.9800 . ? 
C18' C19' 1.523(6) . ? 
C18' H18C 0.9900 . ? 
C18' H18D 0.9900 . ? 
C19' C20' 1.530(7) . ? 
C19' H19C 0.9900 . ? 
C19' H19D 0.9900 . ? 
C20' C21' 1.481(16) . ? 
C20' H20C 0.9900 . ? 
C20' H20D 0.9900 . ? 
C21' H21D 0.9800 . ? 
C21' H21E 0.9800 . ? 
C21' H21F 0.9800 . ? 
C22 C23 1.532(2) . ? 
C22 H22A 0.9900 . ? 
C22 H22B 0.9900 . ? 
C23 C24 1.526(2) . ? 
C23 H23A 0.9900 . ? 
C23 H23B 0.9900 . ? 
C24 C25 1.515(3) . ? 
C24 H24A 0.9900 . ? 
C24 H24B 0.9900 . ? 
C25 H25A 0.9800 . ? 
C25 H25B 0.9800 . ? 
C25 H25C 0.9800 . ? 
C26 C27 1.534(2) . ? 
C26 H26A 0.9900 . ? 
C26 H26B 0.9900 . ? 
C27 C28 1.518(2) . ? 
C27 H27A 0.9900 . ? 
C27 H27B 0.9900 . ? 
C28 C29 1.523(3) . ? 
C28 H28A 0.9900 . ? 
C28 H28B 0.9900 . ? 
C29 H29A 0.9800 . ? 
C29 H29B 0.9800 . ? 
C29 H29C 0.9800 . ? 
 
loop_ 
 _geom_angle_atom_site_label_1 
 _geom_angle_atom_site_label_2 
 _geom_angle_atom_site_label_3 
 _geom_angle 
 _geom_angle_site_symmetry_1 
 _geom_angle_site_symmetry_3 
 _geom_angle_publ_flag 
C17 Si1 C26 107.39(8) . . ? 
C17 Si1 C22 108.64(8) . . ? 
C26 Si1 C22 110.33(8) . . ? 
C17 Si1 C18 109.35(8) . . ? 
C26 Si1 C18 110.30(8) . . ? 
C22 Si1 C18 110.74(8) . . ? 
C17 Si1 C18' 109.35(8) . . ? 
C26 Si1 C18' 110.30(8) . . ? 
C22 Si1 C18' 110.74(8) . . ? 
C2' C1 C3' 117.03(15) . 2_666 ? 
C2 C1 C3 117.03(15) . 2_666 ? 
C2' C1 C16 122.93(16) . . ? 
C2 C1 C16 122.93(16) . . ? 
C3' C1 C16 119.97(15) 2_666 . ? 
C3 C1 C16 119.97(15) 2_666 . ? 
C1 C2 C3 122.00(16) . . ? 
C1 C2 S1 124.85(13) . . ? 
C3 C2 S1 113.16(13) . . ? 
C2 S1 C5 90.43(8) . . ? 
C1 C3 C2 120.97(15) 2_666 . ? 
C1 C3 C4 129.58(17) 2_666 . ? 
C2 C3 C4 109.45(18) . . ? 
C5 C4 C3 114.8(2) . . ? 
C5 C4 H4 122.6 . . ? 
C3 C4 H4 122.6 . . ? 
C4 C5 C6 127.99(18) . . ? 
C4 C5 S1 112.17(15) . . ? 
C6 C5 S1 119.84(13) . . ? 
C1 C3' C2' 120.97(15) 2_666 . ? 
C1 C3' S1' 112.5(2) 2_666 . ? 
C2' C3' S1' 126.4(2) . . ? 
C3' S1' C5' 85.5(2) . . ? 
C1 C2' C3' 122.00(16) . . ? 
C1 C2' C4' 141.3(6) . . ? 
C3' C2' C4' 96.5(6) . . ? 
C5' C4' C2' 119.4(10) . . ? 
C5' C4' H4' 120.3 . . ? 
C2' C4' H4' 120.3 . . ? 
C4' C5' C6' 132.4(6) . . ? 
C4' C5' S1' 111.5(6) . . ? 
C6' C5' S1' 115.8(2) . . ? 
C7 C6 C5 129.52(17) . . ? 
C7 C6 S2 111.69(14) . . ? 
C5 C6 S2 118.78(13) . . ? 
C15 S2 C6 91.41(9) . . ? 
C6 C7 C8 114.9(2) . . ? 
C6 C7 H7 122.6 . . ? 
C8 C7 H7 122.6 . . ? 
C9 C8 C7 129.4(2) . . ? 
C9 C8 C15 119.5(2) . . ? 
C7 C8 C15 111.08(19) . . ? 
C10 C9 C8 117.9(2) . . ? 
C10 C9 H9 121.0 . . ? 
C8 C9 H9 121.0 . . ? 
C9 C10 C13 122.5(2) . . ? 
C9 C10 S3 126.7(2) . . ? 
C13 C10 S3 110.83(19) . . ? 
C11 S3 C10 91.20(16) . . ? 
C12 C11 S3 114.0(3) . . ? 
C12 C11 H11 123.0 . . ? 
S3 C11 H11 123.0 . . ? 
C11 C12 C13 112.9(3) . . ? 
C11 C12 H12 123.6 . . ? 
C13 C12 H12 123.6 . . ? 
C14 C13 C10 119.7(2) . . ? 
C14 C13 C12 129.3(3) . . ? 
C10 C13 C12 111.0(2) . . ? 
C15 C14 C13 117.8(2) . . ? 
C15 C14 H14 121.1 . . ? 
C13 C14 H14 121.1 . . ? 
C14 C15 C8 122.6(2) . . ? 
C14 C15 S2 126.55(17) . . ? 
C8 C15 S2 110.89(16) . . ? 
C7' C6' C5' 133.9(9) . . ? 
C7' C6' S2' 109.2(9) . . ? 
C5' C6' S2' 116.9(3) . . ? 
C15' S2' C6' 95.0(9) . . ? 
C6' C7' C8' 114.4(15) . . ? 
C6' C7' H7' 122.8 . . ? 
C8' C7' H7' 122.8 . . ? 
C9' C8' C15' 118.8(19) . . ? 
C9' C8' C7' 127.1(19) . . ? 
C15' C8' C7' 113.5(17) . . ? 
C10' C9' C8' 118(2) . . ? 
C10' C9' H9' 120.8 . . ? 
C8' C9' H9' 120.8 . . ? 
C9' C10' C13' 122.6(18) . . ? 
C9' C10' S3' 128.2(19) . . ? 
C13' C10' S3' 109.1(15) . . ? 
C11' S3' C10' 92.9(14) . . ? 
C12' C11' S3' 111.8(19) . . ? 
C12' C11' H11' 124.1 . . ? 
S3' C11' H11' 124.1 . . ? 
C11' C12' C13' 114(2) . . ? 
C11' C12' H12' 123.0 . . ? 
C13' C12' H12' 123.0 . . ? 
C14' C13' C10' 118.2(19) . . ? 
C14' C13' C12' 131(2) . . ? 
C10' C13' C12' 110.8(17) . . ? 
C15' C14' C13' 119(2) . . ? 
C15' C14' H14' 120.6 . . ? 
C13' C14' H14' 120.6 . . ? 
C14' C15' C8' 122(2) . . ? 
C14' C15' S2' 129(2) . . ? 
C8' C15' S2' 107.1(14) . . ? 
C17 C16 C1 175.20(17) . . ? 
C16 C17 Si1 174.73(15) . . ? 
C19 C18 Si1 116.3(5) . . ? 
C19 C18 H18A 108.2 . . ? 
Si1 C18 H18A 108.2 . . ? 
C19 C18 H18B 108.2 . . ? 
Si1 C18 H18B 108.2 . . ? 
H18A C18 H18B 107.4 . . ? 
C20 C19 C18 114.0(6) . . ? 
C20 C19 H19A 108.8 . . ? 
C18 C19 H19A 108.8 . . ? 
C20 C19 H19B 108.8 . . ? 
C18 C19 H19B 108.8 . . ? 
H19A C19 H19B 107.7 . . ? 
C21 C20 C19 113.3(11) . . ? 
C21 C20 H20A 108.9 . . ? 
C19 C20 H20A 108.9 . . ? 
C21 C20 H20B 108.9 . . ? 
C19 C20 H20B 108.9 . . ? 
H20A C20 H20B 107.7 . . ? 
C20 C21 H21A 109.5 . . ? 
C20 C21 H21B 109.5 . . ? 
H21A C21 H21B 109.5 . . ? 
C20 C21 H21C 109.5 . . ? 
H21A C21 H21C 109.5 . . ? 
H21B C21 H21C 109.5 . . ? 
C19' C18' Si1 114.9(6) . . ? 
C19' C18' H18C 108.5 . . ? 
Si1 C18' H18C 108.5 . . ? 
C19' C18' H18D 108.5 . . ? 
Si1 C18' H18D 108.5 . . ? 
H18C C18' H18D 107.5 . . ? 
C18' C19' C20' 113.6(9) . . ? 
C18' C19' H19C 108.8 . . ? 
C20' C19' H19C 108.8 . . ? 
C18' C19' H19D 108.9 . . ? 
C20' C19' H19D 108.9 . . ? 
H19C C19' H19D 107.7 . . ? 
C21' C20' C19' 111.5(13) . . ? 
C21' C20' H20C 109.3 . . ? 
C19' C20' H20C 109.3 . . ? 
C21' C20' H20D 109.3 . . ? 
C19' C20' H20D 109.3 . . ? 
H20C C20' H20D 108.0 . . ? 
C20' C21' H21D 109.5 . . ? 
C20' C21' H21E 109.5 . . ? 
H21D C21' H21E 109.5 . . ? 
C20' C21' H21F 109.5 . . ? 
H21D C21' H21F 109.5 . . ? 
H21E C21' H21F 109.5 . . ? 
C23 C22 Si1 113.72(12) . . ? 
C23 C22 H22A 108.8 . . ? 
Si1 C22 H22A 108.8 . . ? 
C23 C22 H22B 108.8 . . ? 
Si1 C22 H22B 108.8 . . ? 
H22A C22 H22B 107.7 . . ? 
C24 C23 C22 113.67(15) . . ? 
C24 C23 H23A 108.8 . . ? 
C22 C23 H23A 108.8 . . ? 
C24 C23 H23B 108.8 . . ? 
C22 C23 H23B 108.8 . . ? 
H23A C23 H23B 107.7 . . ? 
C25 C24 C23 112.43(16) . . ? 
C25 C24 H24A 109.1 . . ? 
C23 C24 H24A 109.1 . . ? 
C25 C24 H24B 109.1 . . ? 
C23 C24 H24B 109.1 . . ? 
H24A C24 H24B 107.8 . . ? 
C24 C25 H25A 109.5 . . ? 
C24 C25 H25B 109.5 . . ? 
H25A C25 H25B 109.5 . . ? 
C24 C25 H25C 109.5 . . ? 
H25A C25 H25C 109.5 . . ? 
H25B C25 H25C 109.5 . . ? 
C27 C26 Si1 114.59(12) . . ? 
C27 C26 H26A 108.6 . . ? 
Si1 C26 H26A 108.6 . . ? 
C27 C26 H26B 108.6 . . ? 
Si1 C26 H26B 108.6 . . ? 
H26A C26 H26B 107.6 . . ? 
C28 C27 C26 112.63(14) . . ? 
C28 C27 H27A 109.1 . . ? 
C26 C27 H27A 109.1 . . ? 
C28 C27 H27B 109.1 . . ? 
C26 C27 H27B 109.1 . . ? 
H27A C27 H27B 107.8 . . ? 
C27 C28 C29 113.72(16) . . ? 
C27 C28 H28A 108.8 . . ? 
C29 C28 H28A 108.8 . . ? 
C27 C28 H28B 108.8 . . ? 
C29 C28 H28B 108.8 . . ? 
H28A C28 H28B 107.7 . . ? 
C28 C29 H29A 109.5 . . ? 
C28 C29 H29B 109.5 . . ? 
H29A C29 H29B 109.5 . . ? 
C28 C29 H29C 109.5 . . ? 
H29A C29 H29C 109.5 . . ? 
H29B C29 H29C 109.5 . . ? 
 
loop_ 
 _geom_torsion_atom_site_label_1 
 _geom_torsion_atom_site_label_2 
 _geom_torsion_atom_site_label_3 
 _geom_torsion_atom_site_label_4 
 _geom_torsion 
 _geom_torsion_site_symmetry_1 
 _geom_torsion_site_symmetry_2 
 _geom_torsion_site_symmetry_3 
 _geom_torsion_site_symmetry_4 
 _geom_torsion_publ_flag 
C3 C1 C2 C3 0.7(3) 2_666 . . . ? 
C16 C1 C2 C3 -176.10(15) . . . . ? 
C3 C1 C2 S1 -179.45(12) 2_666 . . . ? 
C16 C1 C2 S1 3.7(2) . . . . ? 
C1 C2 S1 C5 -178.97(15) . . . . ? 
C3 C2 S1 C5 0.85(13) . . . . ? 
C1 C2 C3 C1 -0.8(3) . . . 2_666 ? 
S1 C2 C3 C1 179.39(12) . . . 2_666 ? 
C1 C2 C3 C4 179.79(17) . . . . ? 
S1 C2 C3 C4 -0.04(19) . . . . ? 
C1 C3 C4 C5 179.49(17) 2_666 . . . ? 
C2 C3 C4 C5 -1.1(3) . . . . ? 
C3 C4 C5 C6 -179.06(17) . . . . ? 
C3 C4 C5 S1 1.8(2) . . . . ? 
C2 S1 C5 C4 -1.50(16) . . . . ? 
C2 S1 C5 C6 179.28(14) . . . . ? 
C1 C3' S1' C5' -178.85(16) 2_666 . . . ? 
C2' C3' S1' C5' 4.1(4) . . . . ? 
C3' C1 C2' C3' 0.7(3) 2_666 . . . ? 
C16 C1 C2' C3' -176.10(15) . . . . ? 
C3' C1 C2' C4' 174.6(11) 2_666 . . . ? 
C16 C1 C2' C4' -2.2(12) . . . . ? 
C1 C3' C2' C1 -0.8(3) 2_666 . . . ? 
S1' C3' C2' C1 176.0(3) . . . . ? 
C1 C3' C2' C4' -176.9(7) 2_666 . . . ? 
S1' C3' C2' C4' -0.1(8) . . . . ? 
C1 C2' C4' C5' 179.4(5) . . . . ? 
C3' C2' C4' C5' -5.8(14) . . . . ? 
C2' C4' C5' C6' -178.2(6) . . . . ? 
C2' C4' C5' S1' 9.3(16) . . . . ? 
C3' S1' C5' C4' -6.9(9) . . . . ? 
C3' S1' C5' C6' 179.26(17) . . . . ? 
C4 C5 C6 C7 -175.0(2) . . . . ? 
S1 C5 C6 C7 4.1(3) . . . . ? 
C4 C5 C6 S2 4.9(3) . . . . ? 
S1 C5 C6 S2 -176.03(8) . . . . ? 
C7 C6 S2 C15 0.08(19) . . . . ? 
C5 C6 S2 C15 -179.81(19) . . . . ? 
C5 C6 C7 C8 -179.3(2) . . . . ? 
S2 C6 C7 C8 0.8(3) . . . . ? 
C6 C7 C8 C9 -179.6(4) . . . . ? 
C6 C7 C8 C15 -1.6(4) . . . . ? 
C7 C8 C9 C10 179.4(4) . . . . ? 
C15 C8 C9 C10 1.5(7) . . . . ? 
C8 C9 C10 C13 -2.4(8) . . . . ? 
C8 C9 C10 S3 178.6(4) . . . . ? 
C9 C10 S3 C11 179.1(7) . . . . ? 
C13 C10 S3 C11 0.0(6) . . . . ? 
C10 S3 C11 C12 -1.2(9) . . . . ? 
S3 C11 C12 C13 2.1(11) . . . . ? 
C9 C10 C13 C14 1.2(9) . . . . ? 
S3 C10 C13 C14 -179.6(4) . . . . ? 
C9 C10 C13 C12 -178.0(5) . . . . ? 
S3 C10 C13 C12 1.1(6) . . . . ? 
C11 C12 C13 C14 178.7(8) . . . . ? 
C11 C12 C13 C10 -2.1(9) . . . . ? 
C10 C13 C14 C15 0.8(7) . . . . ? 
C12 C13 C14 C15 179.9(5) . . . . ? 
C13 C14 C15 C8 -1.7(6) . . . . ? 
C13 C14 C15 S2 179.2(4) . . . . ? 
C9 C8 C15 C14 0.5(6) . . . . ? 
C7 C8 C15 C14 -177.7(3) . . . . ? 
C9 C8 C15 S2 179.8(3) . . . . ? 
C7 C8 C15 S2 1.6(4) . . . . ? 
C6 S2 C15 C14 178.3(3) . . . . ? 
C6 S2 C15 C8 -1.0(3) . . . . ? 
C4' C5' C6' C7' -168.5(17) . . . . ? 
S1' C5' C6' C7' 3.7(15) . . . . ? 
C4' C5' C6' S2' 10.8(11) . . . . ? 
S1' C5' C6' S2' -176.9(4) . . . . ? 
C7' C6' S2' C15' -2(2) . . . . ? 
C5' C6' S2' C15' 179(2) . . . . ? 
C5' C6' C7' C8' 176(3) . . . . ? 
S2' C6' C7' C8' -4(3) . . . . ? 
C6' C7' C8' C9' 180(5) . . . . ? 
C6' C7' C8' C15' 9(6) . . . . ? 
C15' C8' C9' C10' -5(9) . . . . ? 
C7' C8' C9' C10' -175(7) . . . . ? 
C8' C9' C10' C13' -4(12) . . . . ? 
C8' C9' C10' S3' -180(7) . . . . ? 
C9' C10' S3' C11' -175(11) . . . . ? 
C13' C10' S3' C11' 9(9) . . . . ? 
C10' S3' C11' C12' -12(12) . . . . ? 
S3' C11' C12' C13' 10(14) . . . . ? 
C9' C10' C13' C14' 5(13) . . . . ? 
S3' C10' C13' C14' -179(7) . . . . ? 
C9' C10' C13' C12' 178(8) . . . . ? 
S3' C10' C13' C12' -5(9) . . . . ? 
C11' C12' C13' C14' 169(12) . . . . ? 
C11' C12' C13' C10' -3(12) . . . . ? 
C10' C13' C14' C15' 3(12) . . . . ? 
C12' C13' C14' C15' -168(7) . . . . ? 
C13' C14' C15' C8' -12(10) . . . . ? 
C13' C14' C15' S2' -174(6) . . . . ? 
C9' C8' C15' C14' 13(9) . . . . ? 
C7' C8' C15' C14' -175(5) . . . . ? 
C9' C8' C15' S2' 179(4) . . . . ? 
C7' C8' C15' S2' -10(6) . . . . ? 
C6' S2' C15' C14' 171(6) . . . . ? 
C6' S2' C15' C8' 7(4) . . . . ? 
C17 Si1 C18 C19 54.2(9) . . . . ? 
C26 Si1 C18 C19 172.1(9) . . . . ? 
C22 Si1 C18 C19 -65.4(9) . . . . ? 
Si1 C18 C19 C20 172.0(9) . . . . ? 
C18 C19 C20 C21 -172.1(11) . . . . ? 
C17 Si1 C18' C19' 56.2(12) . . . . ? 
C26 Si1 C18' C19' 174.1(12) . . . . ? 
C22 Si1 C18' C19' -63.5(12) . . . . ? 
Si1 C18' C19' C20' -179.8(12) . . . . ? 
C18' C19' C20' C21' -74.6(19) . . . . ? 
C17 Si1 C22 C23 62.74(14) . . . . ? 
C26 Si1 C22 C23 -54.73(14) . . . . ? 
C18 Si1 C22 C23 -177.15(12) . . . . ? 
C18' Si1 C22 C23 -177.15(12) . . . . ? 
Si1 C22 C23 C24 179.88(13) . . . . ? 
C22 C23 C24 C25 178.87(16) . . . . ? 
C17 Si1 C26 C27 -178.02(12) . . . . ? 
C22 Si1 C26 C27 -59.78(15) . . . . ? 
C18 Si1 C26 C27 62.89(15) . . . . ? 
C18' Si1 C26 C27 62.89(15) . . . . ? 
Si1 C26 C27 C28 173.39(12) . . . . ? 
C26 C27 C28 C29 174.10(16) . . . . ? 
 
_refine_diff_density_max    0.415 
_refine_diff_density_min   -0.353 
_refine_diff_density_rms    0.065 
 
_shelx_res_file 
; 
 
    x15297.res created by SHELXL-2014/7 
 
 
TITL x15297 : space group P-1 
CELL  1.54178  10.1547  10.3853  14.1353   78.723   82.090   69.285 
ZERR    1.000   0.0004   0.0004   0.0006    0.002    0.002    0.002 
LATT  1 
SFAC C H SI S 
UNIT 58 66 2 6 
TEMP -183 
SIZE 0.21 0.12 0.09 
REM FORM plate 
REM COLR yellow 
L.S. 12 
BOND $H 
LIST 4 
CONF 
HTAB 
ACTA 
FMAP 2 
PLAN 5 
REM EXTI    0.000282, SU = 0.00026 : insignificant - removed. 
WGHT    0.082500    0.595300 
FVAR       0.50467   0.57699   0.88863   0.92420 
SI1   3    0.128840    0.835142    0.189857    11.00000    0.01984    0.01884 = 
         0.01619    0.00158   -0.00583   -0.00476 
C1    1    0.419129    0.571088    0.417532    11.00000    0.01346    0.01435 = 
         0.01505   -0.00230   -0.00090   -0.00236 
EXYZ C2 C2' 
EXYZ C3 C3' 
EXYZ C5 C5' 
EADP C2 C2' 
EADP C3 C3' 
EADP S1 C4' 
EADP C4 S1' 
EADP C5 C5' 
SAME C3' S1' C2' C4' C5' 
RIGU C2 > C5 
RIGU C3' > C5' 
PART 1 
C2    1    0.417210    0.440310    0.465937    31.00000    0.01334    0.01582 = 
         0.01872   -0.00564   -0.00101   -0.00408 
S1    4    0.321429    0.348460    0.434649    31.00000    0.01574    0.01268 = 
         0.01671   -0.00095   -0.00448   -0.00624 
C3    1    0.495741    0.370202    0.547371    31.00000    0.01571    0.01410 = 
         0.01664   -0.00219    0.00085   -0.00387 
C4    1    0.472797    0.240024    0.581484    31.00000    0.01607    0.01281 = 
         0.01552    0.00029   -0.00195   -0.00520 
AFIX  43 
H4    2    0.517472    0.176407    0.635051    31.00000   -1.20000 
AFIX   0 
C5    1    0.382759    0.214796    0.531588    31.00000    0.01550    0.01185 = 
         0.01764   -0.00186   -0.00108   -0.00470 
PART 2 
C3'   1    0.495741    0.370202    0.547371   -31.00000    0.01571    0.01410 = 
         0.01664   -0.00219    0.00085   -0.00387 
S1'   4    0.494424    0.217752    0.615630   -31.00000    0.01607    0.01281 = 
         0.01552    0.00029   -0.00195   -0.00520 
C2'   1    0.417210    0.440310    0.465937   -31.00000    0.01334    0.01582 = 
         0.01872   -0.00564   -0.00101   -0.00408 
C4'   1    0.345663    0.335956    0.467585   -31.00000    0.01574    0.01268 = 
         0.01671   -0.00095   -0.00448   -0.00624 
AFIX  43 
H4'   2    0.275051    0.354108    0.424382   -31.00000   -1.20000 
AFIX   0 
C5'   1    0.382759    0.214796    0.531588   -31.00000    0.01550    0.01185 = 
         0.01764   -0.00186   -0.00108   -0.00470 
PART 0 
EXYZ C6 C6' 
EADP C6 C6' 
EADP S2 C7' 
EADP C7 S2' 
EADP C8 C15' 
EADP C9 C14' 
EADP C10 C13' 
EADP S3 C12' 
EADP C11 C11' 
EADP C12 S3' 
EADP C13 C10' 
EADP C15 C9' 
EADP C15 C8' 
SAME C6' > C15' 
RIGU C6 > C15 
RIGU C6' > C15' 
PART 1 
C6    1    0.336658    0.094311    0.548908    41.00000    0.01598    0.01432 = 
         0.01742   -0.00223   -0.00072   -0.00549 
S2    4    0.390938   -0.032498    0.650910    41.00000    0.02051    0.01379 = 
         0.01568   -0.00074   -0.00419   -0.00832 
C7    1    0.255121    0.061449    0.497117    41.00000    0.01877    0.01378 = 
         0.01775    0.00117   -0.00516   -0.00533 
AFIX  43 
H7    2    0.217779    0.118398    0.439140    41.00000   -1.20000 
AFIX   0 
C8    1    0.228932   -0.064974    0.535612    41.00000    0.01445    0.01213 = 
         0.01741   -0.00482    0.00059   -0.00399 
C9    1    0.150291   -0.128730    0.499906    41.00000    0.01409    0.01556 = 
         0.02076   -0.00355   -0.00177   -0.00531 
AFIX  43 
H9    2    0.103623   -0.087460    0.442071    41.00000   -1.20000 
AFIX   0 
C10   1    0.142399   -0.253994    0.551388    41.00000    0.01415    0.01500 = 
         0.02285   -0.00693    0.00303   -0.00553 
S3    4    0.048629   -0.351666    0.523449    41.00000    0.01953    0.01809 = 
         0.02866   -0.00646   -0.00085   -0.00975 
C11   1    0.105703   -0.477482    0.622305    41.00000    0.03085    0.01938 = 
         0.02866   -0.00715    0.00695   -0.01602 
AFIX  43 
H11   2    0.077946   -0.557834    0.638931    41.00000   -1.20000 
AFIX   0 
C12   1    0.192628   -0.451960    0.673603    41.00000    0.03081    0.01832 = 
         0.01782   -0.00292    0.00432   -0.01211 
AFIX  43 
H12   2    0.234954   -0.513430    0.728706    41.00000   -1.20000 
AFIX   0 
C13   1    0.215212   -0.321223    0.636338    41.00000    0.02121    0.01547 = 
         0.01934   -0.00482    0.00463   -0.00750 
C14   1    0.295874   -0.259063    0.671157    41.00000    0.02003    0.01552 = 
         0.01661   -0.00212    0.00043   -0.00586 
AFIX  43 
H14   2    0.346270   -0.302656    0.727231    41.00000   -1.20000 
AFIX   0 
C15   1    0.300213   -0.131506    0.621314    41.00000    0.01578    0.01480 = 
         0.01608   -0.00421    0.00021   -0.00433 
PART 2 
C6'   1    0.336658    0.094311    0.548908   -41.00000    0.01598    0.01432 = 
         0.01742   -0.00223   -0.00072   -0.00549 
S2'   4    0.233036    0.083949    0.463713   -41.00000    0.01877    0.01378 = 
         0.01775    0.00117   -0.00516   -0.00533 
C7'   1    0.355122   -0.017589    0.619868   -41.00000    0.02051    0.01379 = 
         0.01568   -0.00074   -0.00419   -0.00832 
AFIX  43 
H7'   2    0.412741   -0.034743    0.671629   -41.00000   -1.20000 
AFIX   0 
C8'   1    0.280539   -0.107955    0.610393   -41.00000    0.01578    0.01480 = 
         0.01608   -0.00421    0.00021   -0.00433 
C9'   1    0.279886   -0.229743    0.671712   -41.00000    0.01578    0.01480 = 
         0.01608   -0.00421    0.00021   -0.00433 
AFIX  43 
H9'   2    0.326742   -0.258408    0.729867   -41.00000   -1.20000 
AFIX   0 
C10'  1    0.209244   -0.308376    0.645990   -41.00000    0.02121    0.01547 = 
         0.01934   -0.00482    0.00463   -0.00750 
S3'   4    0.190715   -0.463080    0.708345   -41.00000    0.03081    0.01832 = 
         0.01782   -0.00292    0.00432   -0.01211 
C11'  1    0.107883   -0.483158    0.617075   -41.00000    0.03085    0.01938 = 
         0.02866   -0.00715    0.00695   -0.01602 
AFIX  43 
H11'  2    0.090636   -0.566250    0.613763   -41.00000   -1.20000 
AFIX   0 
C12'  1    0.070699   -0.368217    0.551455   -41.00000    0.01953    0.01809 = 
         0.02866   -0.00646   -0.00085   -0.00975 
AFIX  43 
H12'  2    0.010827   -0.355520    0.501880   -41.00000   -1.20000 
AFIX   0 
C13'  1    0.129682   -0.264343    0.562428   -41.00000    0.01415    0.01500 = 
         0.02285   -0.00693    0.00303   -0.00553 
C14'  1    0.133190   -0.143608    0.501190   -41.00000    0.01409    0.01556 = 
         0.02076   -0.00355   -0.00177   -0.00531 
AFIX  43 
H14'  2    0.078138   -0.108749    0.446728   -41.00000   -1.20000 
AFIX   0 
C15'  1    0.218222   -0.074772    0.520747   -41.00000    0.01445    0.01213 = 
         0.01741   -0.00482    0.00059   -0.00399 
PART 0 
C16   1    0.333969    0.647678    0.338724    11.00000    0.01911    0.01836 = 
         0.01728   -0.00341   -0.00061   -0.00516 
C17   1    0.258070    0.719880    0.276409    11.00000    0.02222    0.02111 = 
         0.01911   -0.00391   -0.00201   -0.00677 
EXYZ C18 C18' 
EADP C18 C18' 
EADP C19 C19' 
EADP C20 C20' 
RIGU C18 C19 C20 C21 
RIGU C18' C19' C20' C21' 
SAME 0.010 C18' C19' C20' C21' 
PART 1 
C18   1    0.080510    1.020231    0.209257    21.00000    0.02387    0.02154 = 
         0.02320   -0.00028   -0.00528   -0.00407 
AFIX  23 
H18A  2    0.016327    1.081039    0.159470    21.00000   -1.20000 
H18B  2    0.026984    1.029759    0.273041    21.00000   -1.20000 
AFIX   0 
C19   1    0.203048    1.074330    0.205811    21.00000    0.02822    0.02661 = 
         0.03488   -0.01004    0.00085   -0.00866 
AFIX  23 
H19A  2    0.259926    1.023264    0.261520    21.00000   -1.20000 
H19B  2    0.264458    1.053659    0.146036    21.00000   -1.20000 
AFIX   0 
C20   1    0.157150    1.230509    0.208156    21.00000    0.04112    0.02615 = 
         0.04182   -0.00700   -0.00217   -0.01225 
AFIX  23 
H20A  2    0.089616    1.281114    0.158110    21.00000   -1.20000 
H20B  2    0.107265    1.249513    0.271878    21.00000   -1.20000 
AFIX   0 
C21   1    0.276464    1.285020    0.191345    21.00000    0.06276    0.03347 = 
         0.04418   -0.00255   -0.01210   -0.02512 
AFIX 137 
H21A  2    0.346614    1.231760    0.238228    21.00000   -1.50000 
H21B  2    0.241481    1.383514    0.199075    21.00000   -1.50000 
H21C  2    0.320160    1.275817    0.125620    21.00000   -1.50000 
AFIX   0 
PART 2 
C18'  1    0.080510    1.020231    0.209257   -21.00000    0.02387    0.02154 = 
         0.02320   -0.00028   -0.00528   -0.00407 
AFIX  23 
H18C  2    0.014006    1.081223    0.160873   -21.00000   -1.20000 
H18D  2    0.030271    1.029412    0.274082   -21.00000   -1.20000 
AFIX   0 
C19'  1    0.204645    1.072384    0.202004   -21.00000    0.02822    0.02661 = 
         0.03488   -0.01004    0.00085   -0.00866 
AFIX  23 
H19C  2    0.254824    1.064082    0.137094   -21.00000   -1.20000 
H19D  2    0.271388    1.011821    0.250368   -21.00000   -1.20000 
AFIX   0 
C20'  1    0.161601    1.223584    0.218458   -21.00000    0.04112    0.02615 = 
         0.04182   -0.00700   -0.00217   -0.01225 
AFIX  23 
H20C  2    0.094128    1.237566    0.276262   -21.00000   -1.20000 
H20D  2    0.246068    1.242521    0.230944   -21.00000   -1.20000 
AFIX   0 
C21'  1    0.095594    1.322890    0.133778   -21.00000    0.05786    0.02489 = 
         0.04169   -0.00350    0.00047   -0.01328 
AFIX 137 
H21D  2    0.158163    1.302805    0.075263   -21.00000   -1.50000 
H21E  2    0.079957    1.418327    0.143270   -21.00000   -1.50000 
H21F  2    0.004999    1.313230    0.126782   -21.00000   -1.50000 
AFIX   0 
PART 0 
C22   1    0.209634    0.814131    0.064087    11.00000    0.02514    0.02294 = 
         0.01779    0.00095   -0.00458   -0.00924 
AFIX  23 
H22A  2    0.143416    0.880921    0.017506    11.00000   -1.20000 
H22B  2    0.297107    0.838130    0.054821    11.00000   -1.20000 
AFIX   0 
C23   1    0.245266    0.666781    0.041252    11.00000    0.03232    0.02549 = 
         0.01986   -0.00261   -0.00398   -0.01088 
AFIX  23 
H23A  2    0.311656    0.600001    0.087733    11.00000   -1.20000 
H23B  2    0.157837    0.642694    0.050640    11.00000   -1.20000 
AFIX   0 
C24   1    0.310846    0.649844   -0.061366    11.00000    0.03557    0.03092 = 
         0.02043   -0.00292   -0.00540   -0.00872 
AFIX  23 
H24A  2    0.243809    0.714815   -0.108129    11.00000   -1.20000 
H24B  2    0.397547    0.675242   -0.071422    11.00000   -1.20000 
AFIX   0 
C25   1    0.347533    0.502411   -0.081121    11.00000    0.04972    0.03681 = 
         0.02962   -0.01011   -0.00689   -0.01006 
AFIX 137 
H25A  2    0.409844    0.437098   -0.032839    11.00000   -1.50000 
H25B  2    0.395634    0.494886   -0.145874    11.00000   -1.50000 
H25C  2    0.260848    0.479899   -0.077425    11.00000   -1.50000 
AFIX   0 
C26   1   -0.030321    0.779351    0.213493    11.00000    0.02212    0.02198 = 
         0.02038    0.00184   -0.00406   -0.00586 
AFIX  23 
H26A  2   -0.000522    0.679310    0.207942    11.00000   -1.20000 
H26B  2   -0.069386    0.789253    0.280857    11.00000   -1.20000 
AFIX   0 
C27   1   -0.147721    0.861309    0.145301    11.00000    0.02177    0.02181 = 
         0.02188    0.00156   -0.00547   -0.00630 
AFIX  23 
H27A  2   -0.186313    0.959456    0.156391    11.00000   -1.20000 
H27B  2   -0.107010    0.860617    0.077536    11.00000   -1.20000 
AFIX   0 
C28   1   -0.266984    0.801706    0.159643    11.00000    0.02588    0.02488 = 
         0.02618   -0.00303   -0.00425   -0.00938 
AFIX  23 
H28A  2   -0.300444    0.792946    0.228997    11.00000   -1.20000 
H28B  2   -0.229883    0.706927    0.142064    11.00000   -1.20000 
AFIX   0 
C29   1   -0.391796    0.889478    0.100243    11.00000    0.02663    0.04367 = 
         0.04302   -0.00288   -0.01137   -0.01280 
AFIX 137 
H29A  2   -0.430341    0.983142    0.117899    11.00000   -1.50000 
H29B  2   -0.464947    0.845737    0.113325    11.00000   -1.50000 
H29C  2   -0.360430    0.896047    0.031275    11.00000   -1.50000 
 
AFIX   0 
HKLF 4 
 
REM  x15297 : space group P-1 
REM R1 =  0.0376 for    4581 Fo > 4sig(Fo)  and  0.0390 for all    4842 data 
REM    359 parameters refined using    343 restraints 
 
END 
 
WGHT      0.0825      0.5970 
 
REM Instructions for potential hydrogen bonds 
EQIV $1 -x, -y, -z+1 
HTAB C7 S3_$1 
 
REM Highest difference peak  0.415,  deepest hole -0.353,  1-sigma level  0.065 
Q1    1   0.3628  0.1518  0.5400  11.00000  0.05    0.42 
Q2    1   0.1939  0.8189  0.1209  11.00000  0.05    0.35 
Q3    1   0.0967  0.9522  0.2049  11.00000  0.05    0.32 
Q4    1   0.1995  0.7751  0.2350  11.00000  0.05    0.31 
Q5    1   0.3772  0.0407  0.5867  11.00000  0.05    0.30 
; 
_shelx_res_checksum   95718 
 
_shelx_hkl_file
;
  -1   0   0 1.64145 0.27982   3
  -1   0   0 2.22717 0.24782   1
  -1   0   0 1.61325 0.21530   1
   1   0   0 1.76154 0.24382   3
   1   0   0 2.13664 0.23678   1
   1   0   0 1.71197 0.23934   1
   1   0   0 1.89245 0.20605   2
   1   0   0 1.52358 0.19300   2
   1   0   0 1.92114 0.22073   7
   1   0   0 1.44982 0.29510   3
  -2   0   0 1639.19 87.7124   1
  -2   0   0 1806.27 87.7733   1
   2   0   0 1532.41 87.1519   3
   2   0   0 1453.40 87.0652   2
   2   0   0 1777.28 88.0552   3
   2   0   0 1682.88 87.6649   1
   2   0   0 1704.06 87.7068   1
   2   0   0 1632.93 87.6318   7
   2   0   0 1639.41 87.4429   2
  -3   0   0 97.5844 5.30016   1
  -3   0   0 100.219 5.30152   1
   3   0   0 92.2881 5.25775   1
   3   0   0 89.1840 5.44045   3
   3   0   0 97.6167 5.27840   7
   3   0   0 102.927 5.31406   1
   3   0   0 100.020 5.18844   2
   3   0   0 81.6550 5.17962   2
   3   0   0 94.4957 5.39217   3
  -4   0   0 148.389 8.60166   1
  -4   0   0 154.485 8.66154   1
   4   0   0 141.905 8.55679   1
   4   0   0 165.366 8.63354   7
   4   0   0 160.139 8.74956   3
   4   0   0 160.526 8.65058   1
   4   0   0 161.730 8.91275   4
   4   0   0 149.560 8.95923   3
   4   0   0 167.151 8.49492   2
   5   0   0 19.2086 1.38347   2
   5   0   0 18.9206 1.59282   7
   5   0   0 16.8414 1.80105   4
   5   0   0 19.2771 1.84860   3
   6   0   0 1.52432 0.58908   2
   6   0   0 1.88049 0.29128  10
   6   0   0 1.21407 0.95932   3
   6   0   0 0.96257 0.64735   4
   6   0   0 1.55240 0.39672  18
   6   0   0 0.71824 0.66716   7
   6   0   0 0.80416 0.29331   9
   6   0   0 1.12687 0.29847  16
   7   0   0 -0.1073 1.06423   3
   7   0   0 0.29577 0.31744  16
   7   0   0 0.59338 0.40663  17
   7   0   0 0.94781 0.91487   4
   7   0   0 0.06929 0.27071  10
   7   0   0 0.49010 0.26063   9
   7   0   0 0.64089 0.31756  11
   7   0   0 0.28463 0.53666   2
   7   0   0 0.94174 0.81983   7
   7   0   0 0.67971 0.53211  18
   8   0   0 10.4969 1.96664   4
   8   0   0 11.9050 1.41178   2
   8   0   0 13.0508 1.08940  17
   8   0   0 13.4736 0.85888   9
   8   0   0 8.63534 1.48895   7
   8   0   0 14.3887 1.43156  18
   8   0   0 13.2089 0.95515  10
   8   0   0 15.1990 1.19882  11
   9   0   0 16.9331 1.23937  17
   9   0   0 17.8610 1.14079  10
   9   0   0 17.3708 1.28330  11
   9   0   0 16.8269 1.44343  18
  10   0   0 0.56783 0.37911  11
  10   0   0 1.19894 0.30220  10
  10   0   0 0.35341 0.49622  18
  11   0   0 288.737 15.4377  18
  11  -1   0 1.11795 0.35470  18
  10  -1   0 11.4360 0.87300  11
  10  -1   0 9.29794 0.57454  10
  10  -1   0 11.9548 1.02578  18
   9  -1   0 54.4383 3.40159  18
   9  -1   0 57.1588 2.97878  10
   9  -1   0 54.4770 3.23004  11
   9  -1   0 50.5142 3.11063  17
   8  -1   0 97.4934 5.46134  11
   8  -1   0 97.2872 5.24302  10
   8  -1   0 96.4583 5.60085  18
   8  -1   0 96.9960 5.38761  17
   7  -1   0 64.8040 3.41476  16
   7  -1   0 57.3589 3.22240   9
   7  -1   0 59.9180 3.48005  11
   7  -1   0 60.5885 3.44505  17
   7  -1   0 66.3613 3.69818  18
   7  -1   0 61.2285 4.06196   7
   7  -1   0 55.9490 3.68882   3
   7  -1   0 56.3365 3.39288   2
   7  -1   0 61.6538 3.29612  10
   7  -1   0 54.6794 4.37903   4
   6  -1   0 30.2921 1.88660   2
   6  -1   0 29.7211 1.80890  17
   6  -1   0 30.1566 2.22173   3
   6  -1   0 30.3729 1.78136  16
   6  -1   0 33.0347 2.38084   7
   6  -1   0 29.9985 1.83942  11
   6  -1   0 27.3774 2.52325   4
   6  -1   0 28.1804 1.66095  10
   6  -1   0 27.3102 1.62018   9
   6  -1   0 26.5516 1.94843  18
   5  -1   0 31.2951 2.33854   3
   5  -1   0 34.2373 2.33427   7
   5  -1   0 34.9065 2.06918   2
   5  -1   0 32.7799 2.58664   4
   4  -1   0 78.3475 4.65864   3
   4  -1   0 69.2306 4.31056   2
   4  -1   0 85.2305 4.86815   4
   4  -1   0 87.8411 4.63409   7
   4  -1   0 73.2330 4.46193   1
   4  -1   0 85.6465 4.57468   3
   4  -1   0 72.9019 4.39261   1
   4  -1   0 82.0140 4.34918   2
  -4   1   0 74.4055 4.47023   1
   3  -1   0 28.5830 1.80253   1
   3  -1   0 31.0034 1.69473   2
   3  -1   0 28.6317 2.08480   4
   3  -1   0 30.3232 1.90926   7
   3  -1   0 25.8749 1.66117   2
   3  -1   0 30.9250 1.85563   3
   3  -1   0 27.2395 1.71001   1
   3  -1   0 29.7328 1.95938   3
  -3   1   0 27.9459 1.74492   1
  -3   1   0 29.7706 1.80674   1
   2  -1   0 1116.93 59.1222   6
   2  -1   0 1161.75 59.5274   3
   2  -1   0 1131.36 59.4120   3
   2  -1   0 1082.13 59.1359   2
   2  -1   0 1153.42 59.3429   1
   2  -1   0 974.444 59.0326   5
   2  -1   0 1132.94 59.2084   7
   2  -1   0 1019.78 59.2137   4
   2  -1   0 1191.86 59.3366   1
   2  -1   0 1163.46 59.2255   2
  -2   1   0 1136.74 59.3602   1
  -2   1   0 1166.08 59.3620   1
   1  -1   0 100.809 5.74648   7
   1  -1   0 98.8109 5.77435   5
   1  -1   0 99.8467 5.65451   2
   1  -1   0 109.606 5.85905   4
   1  -1   0 108.128 5.67244   1
   1  -1   0 114.505 5.66160   1
   1  -1   0 104.258 5.65139   2
   1  -1   0 110.486 5.67424   3
   1  -1   0 104.621 5.78462   6
   1  -1   0 105.689 5.69186   3
  -1   1   0 114.296 5.67395   1
  -1   1   0 112.346 5.66311   1
   0  -1   0 92.3719 4.68697   1
   0  -1   0 83.9678 4.66853   2
   0  -1   0 85.0748 4.76556   5
   0  -1   0 82.8370 4.74600   6
   0  -1   0 91.5700 4.69048   1
   0  -1   0 88.6472 4.78604   4
   0  -1   0 84.9108 4.69473   3
   0  -1   0 85.9650 4.67645   2
   0  -1   0 88.0601 4.70915   3
   0   1   0 91.4483 4.69241   1
   0   1   0 94.8008 4.68447   1
  -1  -1   0 484.825 26.9160   3
  -1  -1   0 535.353 27.2664   1
  -1  -1   0 479.852 26.8181   5
  -1  -1   0 472.377 26.8091   2
  -1  -1   0 525.314 27.1207   1
   1   1   0 532.007 27.2193   1
   1   1   0 483.735 26.7978   2
   1   1   0 558.642 26.9643   1
   1   1   0 501.727 26.8792   3
  -2  -1   0 182.585 9.77150   1
  -2  -1   0 172.304 9.70561   2
  -2  -1   0 167.724 9.62260   5
  -2  -1   0 177.705 9.89916   3
  -2  -1   0 189.615 9.77648   1
   2   1   0 193.192 9.83811   3
   2   1   0 179.685 9.66566   7
   2   1   0 195.335 9.78882   1
   2   1   0 178.550 9.68281   2
   2   1   0 177.941 9.74837   1
  -3  -1   0 296.900 17.4203   2
  -3  -1   0 341.018 17.5373   1
  -3  -1   0 310.650 17.6846   3
  -3  -1   0 332.170 17.5257   1
   3   1   0 332.895 17.5362   1
   3   1   0 336.138 17.4095   7
   3   1   0 322.004 17.4889   1
   3   1   0 325.569 17.3983   2
   3   1   0 343.324 17.6229   3
  -4  -1   0 101.650 5.95219   1
  -4  -1   0 101.769 5.97959   1
   4   1   0 108.882 6.14603   3
   4   1   0 107.086 5.99677   1
   4   1   0 109.133 5.86274   7
   4   1   0 97.0045 5.90245   1
   4   1   0 109.253 5.81750   2
   5   1   0 174.090 9.26351   2
   5   1   0 167.845 9.35382   7
   5   1   0 165.289 9.64023   3
   6   1   0 49.0912 3.13465   7
   6   1   0 48.0976 3.50162   3
   6   1   0 45.3748 3.44846   4
   6   1   0 46.4382 2.99191   2
   7   1   0 0.47246 0.49107  18
   7   1   0 0.84137 0.99544   4
   7   1   0 1.39287 1.07187   3
   7   1   0 0.73339 0.55075   7
   7   1   0 1.55034 0.19849   8
   7   1   0 1.59792 0.33791   9
   7   1   0 1.93293 0.83526   2
   7   1   0 0.62579 0.32288  10
   8   1   0 417.049 23.1057   2
   8   1   0 462.930 22.8280  11
   8   1   0 409.451 23.7168   3
   8   1   0 443.039 22.7012  10
   8   1   0 405.404 23.9593   4
   8   1   0 435.288 22.9597  18
   8   1   0 417.527 23.3084   7
   8   1   0 426.624 22.6750   9
   9   1   0 6.66495 0.79528  11
   9   1   0 6.02656 0.69891   9
   9   1   0 7.83161 1.12537  18
   9   1   0 5.45135 0.61190  10
  10   1   0 51.1709 3.02298  11
  10   1   0 51.1624 3.15637  18
  10   1   0 50.3460 2.85870  10
  11   1   0 10.8764 0.82323  11
  11   1   0 10.2953 0.89269  18
  11   1   0 9.89310 0.66552  10
  10  -2   0 0.24871 0.40282  18
   9  -2   0 9.06275 1.17846  18
   9  -2   0 7.87176 0.95581  11
   9  -2   0 7.96538 0.85691  17
   8  -2   0 1.40770 0.60118  17
   8  -2   0 1.24586 0.57273  11
   8  -2   0 0.98380 0.24414  10
   8  -2   0 1.21454 0.77722  18
   7  -2   0 8.50129 0.93774  16
   7  -2   0 8.87368 1.01969  18
   7  -2   0 8.34323 0.97135  11
   7  -2   0 6.65888 0.80963  17
   7  -2   0 8.10568 1.26359   7
   7  -2   0 7.65998 0.56538  10
   6  -2   0 23.1009 2.06118   7
   6  -2   0 21.7499 1.67349  18
   6  -2   0 19.8251 2.26315   4
   6  -2   0 22.3862 1.45160  16
   6  -2   0 22.7891 1.49371  17
   6  -2   0 20.0611 1.49940  11
   6  -2   0 22.1148 1.26754  10
   5  -2   0 1030.59 53.4223  18
   5  -2   0 993.577 53.2344  16
   5  -2   0 1007.05 54.1374   4
   5  -2   0 1006.46 53.2848  17
   5  -2   0 941.504 53.1551  10
   5  -2   0 1076.39 53.7745   7
   4  -2   0 95.8710 5.10434   2
   4  -2   0 96.0822 5.57509   7
   4  -2   0 106.923 5.94990   4
   4  -2   0 87.5796 5.17164   3
   3  -2   0 5.63467 0.72383   7
   3  -2   0 5.21615 0.75425   6
   3  -2   0 3.98100 0.56634   5
   2  -2   0 87.0347 4.78323   6
   2  -2   0 84.5663 4.94790   4
   2  -2   0 81.9852 4.78103   5
   2  -2   0 85.4592 4.74191   7
   1  -2   0 5.30427 0.72766   5
   1  -2   0 6.05128 0.66946   6
   1  -2   0 5.33599 0.57552   7
   1  -2   0 6.48882 0.80533   4
   0  -2   0 326.089 18.8446   6
   0  -2   0 316.663 18.7326   7
   0  -2   0 348.003 18.7006   2
   0  -2   0 353.876 18.9383   4
   0  -2   0 354.110 18.7244   2
   0  -2   0 359.560 18.7721   3
   0  -2   0 331.321 18.7559   3
   0  -2   0 371.147 18.7566   1
   0  -2   0 376.457 18.8832   1
   0  -2   0 349.884 18.8991   5
   0   2   0 394.007 18.7617   1
   0   2   0 371.636 18.9292   1
  -1  -2   0 909.234 49.0850   3
  -1  -2   0 952.641 49.3437   1
  -1  -2   0 914.274 49.4134   5
  -1  -2   0 895.338 49.1216   2
   1   2   0 969.870 49.4147   1
   1   2   0 862.959 48.8710   3
   1   2   0 971.748 49.3157   1
  -2  -2   0 118.694 6.53347   2
  -2  -2   0 117.534 6.74815   3
  -2  -2   0 124.682 6.60641   1
  -2  -2   0 124.903 6.61281   1
  -2  -2   0 117.048 6.53361   5
   2   2   0 119.779 6.66711   3
   2   2   0 114.841 6.49582   2
   2   2   0 130.072 6.63774   1
   2   2   0 111.936 6.39525   7
   2   2   0 122.565 6.58027   1
  -3  -2   0 31.1018 1.98112   1
  -3  -2   0 27.9453 2.21977   3
  -3  -2   0 28.6050 1.72524   5
  -3  -2   0 28.5669 1.86015   2
  -3  -2   0 30.0873 1.96290   1
   3   2   0 30.8520 2.13859   3
   3   2   0 29.1577 1.91908   1
   3   2   0 27.0836 1.70568   7
   3   2   0 28.2978 1.81730   2
   3   2   0 29.3275 1.99394   1
  -4  -2   0 429.370 23.4310   3
  -4  -2   0 451.553 23.2050   1
  -4  -2   0 416.891 23.0338   2
  -4  -2   0 403.723 23.1267   1
   4   2   0 423.557 22.9291   7
   4   2   0 459.295 23.3482   3
   4   2   0 443.791 22.9857   2
   4   2   0 402.538 23.0954   1
   4   2   0 445.764 23.2006   1
   5   2   0 3.50649 1.06392   3
   5   2   0 3.73830 0.68868   2
   5   2   0 2.97273 0.78196   1
   5   2   0 3.58496 0.61036   7
   6   2   0 1281.55 68.1552   7
   6   2   0 1280.29 68.6695   3
   6   2   0 1293.86 68.1364   2
   7   2   0 160.082 9.48100   4
   7   2   0 153.206 8.16708   8
   7   2   0 156.181 9.39279   3
   7   2   0 142.362 8.24612   9
   7   2   0 160.937 8.76385   7
   7   2   0 155.924 8.73327   2
   7   2   0 150.822 8.41710  18
   7   2   0 154.196 8.25724  10
   8   2   0 9.92335 0.63823   8
   8   2   0 10.5015 1.38638   2
   8   2   0 9.97680 0.96959  18
   8   2   0 6.22860 1.16157   7
   8   2   0 11.1186 1.95485   4
   8   2   0 10.5333 0.89589  10
   8   2   0 10.6011 0.87252   9
   8   2   0 6.84537 1.76018   3
   9   2   0 8.63751 1.01818  18
   9   2   0 10.7372 0.89700   9
   9   2   0 10.3945 0.94012  10
   9   2   0 11.0808 1.09222  11
  10   2   0 201.110 10.5074   9
  10   2   0 200.203 10.6705  11
  10   2   0 197.889 10.5475  10
  10   2   0 189.073 10.7524  18
  11   2   0 91.1124 4.59369  10
  11   2   0 81.4810 4.71980  18
  11   2   0 80.4306 4.64387  11
  10  -3   0 9.60201 0.79576  18
   9  -3   0 20.0411 1.59293  18
   8  -3   0 199.494 10.6203  18
   8  -3   0 188.618 10.4457  11
   8  -3   0 189.204 10.3832  17
   7  -3   0 183.533 10.1084  16
   7  -3   0 188.045 10.2496  11
   7  -3   0 199.044 10.4062  18
   7  -3   0 182.616 10.1675  17
   6  -3   0 68.2910 3.85689  18
   6  -3   0 61.7013 3.73288  11
   6  -3   0 63.9488 3.70157  17
   6  -3   0 64.0677 3.44630  10
   6  -3   0 62.6163 4.26684   7
   6  -3   0 65.3122 3.63661  16
   5  -3   0 5.04254 1.24948   4
   5  -3   0 6.09486 0.82390  11
   5  -3   0 6.70453 0.77860  17
   5  -3   0 5.91975 0.41702  10
   5  -3   0 6.69887 0.82699  18
   5  -3   0 6.72841 0.77284  15
   5  -3   0 6.99353 0.73854  16
   5  -3   0 6.44224 1.08659   7
   4  -3   0 195.840 12.2677   4
   4  -3   0 235.284 11.9634   7
   3  -3   0 180.156 10.9106   5
   3  -3   0 206.018 10.9770   6
   3  -3   0 200.688 11.2860   4
   3  -3   0 209.377 10.9402   7
   2  -3   0 2.56553 0.73219   4
   2  -3   0 3.21266 0.58540   6
   2  -3   0 4.42940 0.72978   5
   2  -3   0 3.27352 0.56309   7
   1  -3   0 63.9044 3.80968   5
   1  -3   0 64.3039 3.87512   4
   1  -3   0 61.4529 3.58712   7
   1  -3   0 63.8921 3.67697   6
   0  -3   0 181.494 9.54706   2
   0  -3   0 180.063 9.58928   1
   0  -3   0 184.201 9.88796   4
   0  -3   0 186.827 9.54513   1
   0  -3   0 160.492 9.55163   7
   0  -3   0 169.448 9.49893   2
   0  -3   0 177.317 9.58829   3
   0  -3   0 176.204 9.83069   5
   0  -3   0 195.704 9.59939   3
   0  -3   0 172.845 9.74206   6
   0   3   0 185.370 9.53951   1
   0   3   0 178.838 9.58985   1
  -1  -3   0 93.9923 5.52492   2
  -1  -3   0 105.309 5.74853   3
  -1  -3   0 99.4825 5.76861   5
  -1  -3   0 106.823 5.58996   2
  -1  -3   0 104.727 5.61589   1
  -1  -3   0 90.2675 5.72984   6
  -1  -3   0 109.522 5.66701   1
  -1  -3   0 97.3195 5.66929   3
   1   3   0 110.964 5.67922   1
   1   3   0 105.642 5.61044   1
  -2  -3   0 4.40802 0.64289   1
  -2  -3   0 4.87403 0.67360   5
  -2  -3   0 3.45432 0.59654   1
  -2  -3   0 3.89070 0.57465   2
  -2  -3   0 4.34053 0.82805   3
   2   3   0 4.03259 0.66428   1
   2   3   0 3.36302 0.51069   2
   2   3   0 3.13877 0.74890   3
   2   3   0 3.88505 0.61795   1
  -3  -3   0 2651.14 134.143   2
  -3  -3   0 2567.97 134.292   5
  -3  -3   0 2636.21 134.092   1
  -3  -3   0 2459.96 133.472   1
  -3  -3   0 2600.69 133.342   3
   3   3   0 2199.43 133.015   7
   3   3   0 2556.66 133.623   1
   3   3   0 2390.09 132.958   2
   3   3   0 2682.24 133.185   1
   3   3   0 2477.16 133.230   3
  -4  -3   0 320.385 17.2634   3
  -4  -3   0 318.592 17.0057   1
  -4  -3   0 317.126 16.8383   2
  -4  -3   0 297.839 16.6822   5
  -4  -3   0 304.348 16.9293   1
   4   3   0 326.878 17.1855   3
   4   3   0 317.852 16.7706   2
   4   3   0 292.577 16.8862   1
   4   3   0 327.691 17.0280   1
   4   3   0 295.234 16.6036   7
  -5  -3   0 3.60566 0.89671   1
   5   3   0 2.44257 0.82601   1
   5   3   0 3.05206 0.50398   7
   5   3   0 3.69792 0.74900   2
   5   3   0 2.74256 1.07695   3
   6   3   0 0.37927 1.05163   3
   6   3   0 0.24079 0.62084   2
   6   3   0 1.45367 0.57828   7
   7   3   0 215.081 11.7237   8
   7   3   0 238.940 12.3828   2
   7   3   0 212.777 11.8115   9
   7   3   0 212.007 11.9244  18
   7   3   0 232.903 13.1003   3
   8   3   0 40.2531 2.58552  18
   8   3   0 40.8260 2.43473   9
   8   3   0 37.4250 3.06306   2
   8   3   0 42.9063 2.29277   8
   8   3   0 41.6009 3.60258   4
   8   3   0 44.0796 2.46719  10
   8   3   0 38.0074 3.86688   3
   9   3   0 3.83673 1.89495   4
   9   3   0 4.77356 0.48652   8
   9   3   0 5.04041 0.64821  10
   9   3   0 4.68391 0.61700   9
   9   3   0 4.78778 0.75923  18
  10   3   0 21.3280 1.44439  11
  10   3   0 20.5316 1.40204   9
  10   3   0 23.0164 1.63504  18
  10   3   0 19.2139 1.35038  10
  11   3   0 2.47338 0.49408  10
  11   3   0 2.61270 0.44965  11
  12   3   0 8.62424 0.58061  10
   9  -4   0 72.0985 3.87095  18
   9  -4   0 63.5132 3.70983  17
   8  -4   0 0.12082 0.32937  11
   8  -4   0 0.84355 0.69885  18
   8  -4   0 0.15150 0.37420  17
   7  -4   0 12.6472 1.12118  11
   7  -4   0 13.2868 1.19851  17
   7  -4   0 14.3897 1.15656  16
   7  -4   0 14.5256 1.29117  18
   6  -4   0 454.940 24.5798  15
   6  -4   0 471.173 24.7138  18
   6  -4   0 508.911 24.5607  17
   6  -4   0 440.511 24.5831  11
   6  -4   0 419.610 25.0640   7
   6  -4   0 466.509 24.4561  16
   5  -4   0 1.91930 0.60763  15
   5  -4   0 1.16125 0.81552   7
   5  -4   0 2.62516 0.56436  17
   5  -4   0 2.00850 0.54788  11
   5  -4   0 1.70678 0.63106  18
   5  -4   0 1.09312 0.45825  16
   4  -4   0 0.70636 0.63271   7
   4  -4   0 0.67433 0.39456  17
   4  -4   0 0.10698 0.75398   4
   4  -4   0 0.30031 0.27105  12
   4  -4   0 0.00202 0.30697  15
   4  -4   0 0.27067 0.47300  18
   4  -4   0 0.07103 0.39361  11
   4  -4   0 0.04839 0.33132  16
   4  -4   0 0.31473 0.43568  14
   3  -4   0 72.4549 4.10589   7
   3  -4   0 66.6405 4.51227   4
   3  -4   0 60.2281 4.16006   5
   3  -4   0 70.4977 4.17474   6
   2  -4   0 221.705 11.9120   6
   2  -4   0 217.495 12.2184   4
   2  -4   0 215.944 11.7952   7
   2  -4   0 211.951 12.0500   5
   1  -4   0 11.0493 0.91836   7
   1  -4   0 12.0964 1.10830   6
   1  -4   0 11.0774 1.28858   4
   1  -4   0 10.9103 1.33409   5
   0  -4   0 81.3797 4.49506   1
   0  -4   0 78.0233 4.47968   3
   0  -4   0 88.0552 4.48101   3
   0  -4   0 69.1312 4.45125   7
   0  -4   0 84.6284 4.76805   6
   0  -4   0 82.0074 4.38918   2
   0  -4   0 85.9628 4.89569   5
   0  -4   0 84.3198 4.44804   2
   0  -4   0 80.7291 4.43094   1
   0   4   0 85.6620 4.43080   1
   0   4   0 80.4571 4.47614   1
  -1  -4   0 38.8825 2.35653   1
  -1  -4   0 33.9764 2.34319   3
  -1  -4   0 40.2887 2.28013   2
  -1  -4   0 40.7973 2.60076   5
  -1  -4   0 36.6483 2.25845   1
  -1  -4   0 40.3551 2.44175   3
  -1  -4   0 37.0478 2.49270   6
  -1  -4   0 34.0301 2.16317   2
   1   4   0 40.9368 2.27337   1
   1   4   0 36.1591 2.33204   1
  -2  -4   0 92.3255 5.97370   2
  -2  -4   0 112.637 6.27433   3
  -2  -4   0 107.094 6.05523   1
  -2  -4   0 113.803 6.05645   2
  -2  -4   0 110.793 6.22453   5
  -2  -4   0 111.107 6.17024   1
   2   4   0 113.840 6.18712   1
   2   4   0 105.880 6.04629   1
  -3  -4   0 1.81927 0.81777   3
  -3  -4   0 1.03408 0.58159   1
  -3  -4   0 2.38380 0.59514   5
  -3  -4   0 0.85614 0.43840   1
  -3  -4   0 1.02339 0.53337   2
   3   4   0 0.96298 0.49358   1
   3   4   0 1.30267 0.60626   1
  -4  -4   0 0.28127 0.40799   5
  -4  -4   0 0.21068 0.44375   1
  -4  -4   0 0.51396 0.64844   2
  -4  -4   0 -0.5525 0.67690   1
  -4  -4   0 1.01629 0.89935   3
   4   4   0 0.62502 0.50928   1
  -5  -4   0 741.785 40.2788   3
  -5  -4   0 745.226 39.7693   2
   7   4   0 26.0352 1.51565   8
   8   4   0 389.410 21.3724  18
   8   4   0 418.467 21.1610   8
   8   4   0 391.613 21.2740   9
   9   4   0 0.75691 0.48337  18
   9   4   0 0.48583 0.49453   9
   9   4   0 0.26292 0.28542   8
  10   4   0 1.49979 0.53545   9
  10   4   0 1.36959 0.21111   8
  11   4   0 207.050 11.4432  11
  11   4   0 219.425 11.3693   9
   8  -5   0 10.2714 0.93076  18
   8  -5   0 8.86380 0.73791  17
   7  -5   0 23.3264 1.77880  18
   7  -5   0 21.7409 1.58341  11
   7  -5   0 22.7413 1.50427  16
   7  -5   0 22.2040 1.47111  17
   6  -5   0 2.67193 0.54696  16
   6  -5   0 2.27036 0.63630  17
   6  -5   0 1.85542 0.59863  11
   6  -5   0 1.99925 0.74807  18
   5  -5   0 106.190 7.10355   7
   5  -5   0 130.944 6.85475  18
   5  -5   0 112.012 6.68278  11
   5  -5   0 126.128 6.56967  16
   5  -5   0 121.770 6.70193  15
   5  -5   0 132.173 6.63696  17
   5  -5   0 110.990 6.70646  14
   4  -5   0 0.78481 0.51390  11
   4  -5   0 0.17575 0.38473  16
   4  -5   0 0.71203 0.50451  15
   4  -5   0 0.04687 0.62800   7
   4  -5   0 0.27530 0.42528  17
   4  -5   0 0.02625 0.33137  12
   4  -5   0 0.50970 0.57638  18
   4  -5   0 0.13086 0.50562  14
   4  -5   0 0.15619 0.35967  13
   3  -5   0 1.24858 0.59277   7
   3  -5   0 1.63216 0.36569  16
   3  -5   0 2.11445 0.44948  17
   3  -5   0 1.28937 0.41357  13
   3  -5   0 1.88425 0.56398  18
   3  -5   0 1.76885 0.38725  12
   3  -5   0 0.86213 0.68103   5
   3  -5   0 1.76256 0.50874  11
   3  -5   0 1.66488 0.37507  15
   3  -5   0 0.88723 0.81332   4
   3  -5   0 0.99480 0.68031   6
   3  -5   0 1.30089 0.38937  14
   2  -5   0 975.425 51.5438   5
   2  -5   0 928.755 51.0878   7
   2  -5   0 969.595 51.7237   4
   2  -5   0 977.753 51.2756   6
   1  -5   0 0.48603 0.55631   6
   1  -5   0 1.32899 0.76425   5
   1  -5   0 1.62286 0.74230   4
   1  -5   0 1.02744 0.41056   7
   0  -5   0 0.02539 0.67937   5
   0  -5   0 1.07453 0.58496   6
  -1  -5   0 88.3507 5.15675   5
  -1  -5   0 89.6265 4.71139   2
  -1  -5   0 75.9182 4.53963   2
  -1  -5   0 84.2224 4.97848   6
  -1  -5   0 72.9478 4.73687   3
  -1  -5   0 81.4489 4.71451   1
  -1  -5   0 89.4883 4.78592   3
  -2  -5   0 5.54252 1.01641   6
  -2  -5   0 5.06356 1.00727   3
  -2  -5   0 5.02210 0.85441   5
  -2  -5   0 6.68929 0.82004   2
  -3  -5   0 70.7673 4.54897   3
  -3  -5   0 70.3788 4.25660   2
  -3  -5   0 72.3710 4.44712   5
  -4  -5   0 125.697 7.73270   3
  -4  -5   0 131.138 7.38941   5
  -4  -5   0 127.541 7.35842   2
  -5  -5   0 136.588 7.78532   2
  -5  -5   0 129.349 8.21127   3
   8   5   0 0.39940 0.31186   8
   9   5   0 342.355 18.1355   8
  10   5   0 5.05783 0.51383   8
  10   5   0 4.48716 0.70361   9
  11   5   0 0.36437 0.47669  11
  12   5   0 15.7847 0.94278   9
   7  -6   0 1.42707 0.37993  17
   7  -6   0 1.57444 0.61683  18
   6  -6   0 31.0026 1.86116  16
   6  -6   0 30.5655 2.12132  18
   6  -6   0 30.4506 1.84433  17
   6  -6   0 28.2689 1.95558  11
   5  -6   0 65.6695 4.32323  11
   5  -6   0 76.5176 4.36218  15
   5  -6   0 79.2396 4.46004  18
   5  -6   0 78.9583 4.30293  17
   5  -6   0 79.4931 4.23927  16
   4  -6   0 41.0221 2.58238  15
   4  -6   0 45.5967 2.73692  18
   4  -6   0 43.8550 2.49348  17
   4  -6   0 41.1839 2.44780  12
   4  -6   0 38.0287 2.40557  16
   4  -6   0 41.2238 2.48277  13
   4  -6   0 39.8892 2.57839  14
   4  -6   0 38.3283 2.57838  11
   3  -6   0 12.0635 1.13959  11
   3  -6   0 12.1352 1.02953  14
   3  -6   0 12.2060 0.99236  17
   3  -6   0 11.7583 1.11120  15
   3  -6   0 12.1141 0.97988  12
   3  -6   0 11.4535 1.23909  18
   3  -6   0 11.2942 0.93126  16
   3  -6   0 12.0192 1.07414  13
   2  -6   0 35.8005 2.38358  18
   2  -6   0 37.5671 2.21208  12
   2  -6   0 36.3311 2.12884  16
   2  -6   0 35.8919 2.24993  11
   2  -6   0 35.5059 3.00042   5
   2  -6   0 40.6820 2.28758  15
   2  -6   0 38.0054 2.26875  13
   2  -6   0 37.6450 2.29791  14
   2  -6   0 35.4359 2.17503  17
   1  -6   0 276.480 15.0562   5
   1  -6   0 269.472 14.1908  13
   1  -6   0 254.914 14.5854   6
   1  -6   0 266.091 14.2682  14
   1  -6   0 251.754 14.1655  15
   1  -6   0 267.647 14.2099  11
   1  -6   0 269.962 14.1465  12
   0  -6   0 295.996 16.0511   5
   0  -6   0 283.956 15.1924  12
   0  -6   0 278.848 15.3185  14
   0  -6   0 280.708 15.2274  13
   0  -6   0 288.707 15.6812   6
  -1  -6   0 8.94452 1.39965   5
  -1  -6   0 9.71847 1.29050   6
  -1  -6   0 8.56658 0.88502   2
  -1  -6   0 9.58208 1.02510   3
  -2  -6   0 104.582 6.09596   3
  -2  -6   0 106.943 6.40031   5
  -2  -6   0 98.8142 6.24828   6
  -2  -6   0 103.979 5.94375   2
  -3  -6   0 540.351 29.1625   5
  -3  -6   0 522.252 29.2013   6
  -3  -6   0 538.391 29.1187   3
  -3  -6   0 548.350 28.8825   2
  -4  -6   0 157.876 8.84097   5
  -4  -6   0 135.971 8.08249   8
  -4  -6   0 160.102 9.11019   3
  -4  -6   0 156.575 8.70500   2
  -5  -6   0 90.1329 5.45329   9
  -5  -6   0 104.550 6.63327   3
  -5  -6   0 103.068 6.09859   2
  -5  -6   0 96.3966 5.53112  14
  -5  -6   0 106.214 6.05570   5
  -5  -6   0 99.1217 5.37827   8
  -6  -6   0 304.850 17.7115   3
  -6  -6   0 303.826 16.1963   8
  -7  -6   0 76.8000 4.28973   8
   8   6   0 3.51558 0.46165   8
   9   6   0 11.3528 0.87296   8
  10   6   0 1.44462 0.34696   8
  11   6   0 55.1610 2.95223   8
   6  -7   0 174.819 9.08887  17
   6  -7   0 163.821 9.18970  18
   5  -7   0 22.2144 1.63989  15
   5  -7   0 25.9977 1.55073  16
   5  -7   0 25.3627 1.57414  17
   5  -7   0 25.2443 1.70774  18
   5  -7   0 22.4778 1.67164  11
   4  -7   0 1.16092 0.35612  12
   4  -7   0 1.05949 0.55778  11
   4  -7   0 1.43267 0.51809  17
   4  -7   0 1.24846 0.60609  15
   4  -7   0 1.63729 0.36342  16
   4  -7   0 0.59013 0.63733  18
   4  -7   0 1.04796 0.60535  14
   4  -7   0 0.74426 0.38599  13
   3  -7   0 399.117 21.1972  12
   3  -7   0 392.512 21.3043  11
   3  -7   0 397.796 21.2498  15
   3  -7   0 412.769 21.2475  13
   3  -7   0 392.043 21.1221  16
   3  -7   0 386.051 21.1622  17
   3  -7   0 395.281 21.3847  18
   3  -7   0 408.463 21.3070  14
   2  -7   0 0.26182 0.47450  11
   2  -7   0 0.25142 0.59730  18
   2  -7   0 -0.0669 0.39844  12
   2  -7   0 -0.2073 0.31939  16
   2  -7   0 0.53352 0.43897  14
   2  -7   0 0.01909 0.31470  15
   2  -7   0 -0.4734 0.90632   5
   2  -7   0 0.71442 0.50133  13
   1  -7   0 75.6764 4.34796  11
   1  -7   0 68.6981 5.10196   5
   1  -7   0 77.1057 4.43114  14
   1  -7   0 74.0023 4.28779  15
   1  -7   0 77.2232 4.29353  13
   1  -7   0 80.9532 4.27854  12
   0  -7   0 248.265 15.0305   6
   0  -7   0 257.229 14.3883  10
   0  -7   0 263.028 14.5836  15
   0  -7   0 290.569 14.5581  12
   0  -7   0 275.642 15.5810   5
   0  -7   0 281.727 14.5975  13
   0  -7   0 284.456 14.7158  14
   0  -7   0 275.426 14.6051  11
  -1  -7   0 133.454 7.14682  14
  -1  -7   0 132.385 6.95661  12
  -1  -7   0 123.461 7.56117   6
  -1  -7   0 134.764 8.01163   5
  -1  -7   0 127.901 6.99092  13
  -1  -7   0 119.415 6.99037  15
  -1  -7   0 126.298 6.84487  10
  -2  -7   0 3.16086 1.06764   6
  -2  -7   0 3.86475 1.04205   5
  -2  -7   0 4.61550 0.51381  10
  -2  -7   0 4.07786 0.88573   3
  -2  -7   0 4.54969 0.72466  14
  -2  -7   0 4.12274 0.50768  12
  -2  -7   0 4.17160 0.52643  13
  -2  -7   0 5.26680 0.83455   2
  -2  -7   0 4.31757 0.58671  15
  -2  -7   0 4.09709 0.45875   9
  -3  -7   0 39.8629 2.30172  12
  -3  -7   0 41.9905 2.26288  10
  -3  -7   0 35.4072 2.30230  13
  -3  -7   0 37.7412 2.52616  14
  -3  -7   0 37.9690 2.33180   9
  -3  -7   0 39.7553 3.20244   6
  -3  -7   0 42.1718 3.02029   3
  -3  -7   0 39.0313 2.44126  15
  -3  -7   0 44.1360 3.17464   5
  -3  -7   0 43.3030 2.95878   2
  -4  -7   0 626.826 32.0427   2
  -4  -7   0 565.447 31.3190  10
  -4  -7   0 573.656 31.2576   8
  -4  -7   0 582.231 31.5260  14
  -4  -7   0 575.002 31.3796   9
  -4  -7   0 605.189 32.2594   3
  -4  -7   0 611.477 32.2554   5
  -4  -7   0 603.742 32.4321   6
  -5  -7   0 0.27649 0.34972  14
  -5  -7   0 0.98511 0.35671  10
  -5  -7   0 1.19757 1.17660   3
  -5  -7   0 0.54173 0.80595   5
  -5  -7   0 0.73817 0.35757   8
  -5  -7   0 0.83957 1.15151   6
  -5  -7   0 0.68551 0.47634   9
  -5  -7   0 -0.5512 0.92029   2
  -6  -7   0 8.02695 0.98957  14
  -6  -7   0 8.49694 0.98442   9
  -6  -7   0 5.71618 1.79164   3
  -6  -7   0 8.59743 0.85229   8
  -6  -7   0 6.33289 1.51889   2
  -7  -7   0 117.843 6.43057   8
  -8  -7   0 24.2775 1.66288   8
  -9  -7   0 9.57051 0.84966   8
   9   7   0 8.42898 0.78994   8
 -10  -7   0 26.3577 1.67430   8
  10   7   0 27.9467 1.57561   8
 -11  -7   0 230.069 13.7099   8
  11   7   0 277.658 13.8206   9
  11   7   0 266.836 13.6451   8
   4  -8   0 0.23478 0.44636  13
   4  -8   0 0.47387 0.35166  11
   4  -8   0 0.49084 0.49855  15
   4  -8   0 0.95421 0.38687  12
   4  -8   0 0.79113 0.39681  14
   3  -8   0 0.07867 0.37303  15
   3  -8   0 1.03141 0.52740  18
   3  -8   0 0.16413 0.38207  11
   3  -8   0 -0.5316 0.61312  14
   3  -8   0 0.16049 0.32418  12
   3  -8   0 0.09015 0.56012  13
   2  -8   0 365.782 18.8149  13
   2  -8   0 362.585 18.8847  14
   2  -8   0 341.638 18.7420  12
   2  -8   0 338.717 18.7793  15
   2  -8   0 347.683 18.8459  11
   1  -8   0 158.189 8.65064  13
   1  -8   0 161.589 8.77769  14
   1  -8   0 161.142 8.65383  15
   1  -8   0 140.163 9.66330   5
   1  -8   0 161.875 8.62066  12
   1  -8   0 162.469 8.71219  11
   0  -8   0 1.87197 0.58483  13
   0  -8   0 2.24156 0.52285  15
   0  -8   0 2.38484 0.42271  12
   0  -8   0 0.79599 0.84151   5
   0  -8   0 2.05109 0.73778  14
  -1  -8   0 172.238 9.21135  12
  -1  -8   0 172.742 9.26104  13
  -1  -8   0 165.486 10.3837   5
  -1  -8   0 169.081 9.07247  10
  -1  -8   0 166.763 9.27383  15
  -1  -8   0 173.782 9.39418  14
  -2  -8   0 61.6463 3.53030  15
  -2  -8   0 62.0427 3.51029  13
  -2  -8   0 51.0788 4.07636   6
  -2  -8   0 62.9726 4.66123   5
  -2  -8   0 58.9344 3.40321   2
  -2  -8   0 60.2440 3.25521   9
  -2  -8   0 64.6083 3.36693  10
  -2  -8   0 65.8568 3.68833  14
  -2  -8   0 65.4164 3.47019  12
  -2  -8   0 53.3887 3.43108   3
  -3  -8   0 120.268 7.90842   6
  -3  -8   0 130.197 8.10805   5
  -3  -8   0 119.176 7.37784   2
  -3  -8   0 127.844 7.53254   3
  -3  -8   0 129.684 7.10479  15
  -3  -8   0 131.244 6.91996  10
  -3  -8   0 135.989 7.22692  14
  -3  -8   0 126.133 6.91635   9
  -3  -8   0 128.427 6.99448  13
  -4  -8   0 97.0825 5.19964  10
  -4  -8   0 99.8263 5.48459  14
  -4  -8   0 93.0458 6.24417   5
  -4  -8   0 95.8246 5.35550  15
  -4  -8   0 89.9596 6.03722   3
  -4  -8   0 92.6821 5.24224   9
  -4  -8   0 93.2227 5.89151   2
  -4  -8   0 93.6913 6.24834   6
  -5  -8   0 798.359 45.1159   6
  -5  -8   0 838.018 43.9432   9
  -5  -8   0 807.835 44.7051   2
  -5  -8   0 840.508 44.0889  14
  -5  -8   0 849.926 43.7636   8
  -5  -8   0 838.404 43.8794  10
  -6  -8   0 48.5945 2.82262   8
  -6  -8   0 50.6713 3.04005   9
  -6  -8   0 49.8101 2.93308  10
  -6  -8   0 51.8813 3.14995  14
  -7  -8   0 25.0318 1.61510   8
  -7  -8   0 24.9388 1.83203   9
  -8  -8   0 2.39876 0.53679   8
  -8  -8   0 1.32896 0.64546   9
 -10  -8   0 -0.4015 0.42322   8
  10   8   0 0.23594 0.25502   8
  11   8   0 15.1030 0.87421   8
   3  -9   0 3.62820 0.50110  13
   3  -9   0 3.77987 0.55420  14
   2  -9   0 25.5473 1.67793  13
   2  -9   0 23.5027 1.63739  14
   2  -9   0 20.9502 1.57027  15
   2  -9   0 23.7794 1.59157  12
   1  -9   0 118.182 6.44348  12
   1  -9   0 124.433 6.64185  14
   1  -9   0 101.710 6.42873  15
   1  -9   0 126.082 6.54219  13
   0  -9   0 55.8004 3.42177  15
   0  -9   0 60.2500 3.63352  14
   0  -9   0 58.0011 3.36802  12
   0  -9   0 60.6290 3.49791  13
  -1  -9   0 28.3952 1.68709  10
  -1  -9   0 33.1129 2.06990  13
  -1  -9   0 31.6140 1.91093  12
  -1  -9   0 30.0567 2.00685  15
  -1  -9   0 31.4165 2.27453  14
  -2  -9   0 6.48500 1.73729   5
  -2  -9   0 8.46126 1.10308  14
  -2  -9   0 7.97578 1.00028  15
  -2  -9   0 7.31297 0.71667  10
  -2  -9   0 8.52617 0.97505  13
  -3  -9   0 287.003 17.9574   5
  -3  -9   0 313.110 16.5893   9
  -3  -9   0 328.331 17.0321  14
  -3  -9   0 325.414 16.9127  15
  -3  -9   0 308.082 16.8042  13
  -3  -9   0 319.973 16.7295  10
  -4  -9   0 39.6778 2.58762  14
  -4  -9   0 34.8990 3.26048   5
  -4  -9   0 39.5478 2.52750  15
  -4  -9   0 38.4395 2.32677   9
  -4  -9   0 41.0721 2.33479  10
  -5  -9   0 14.6831 1.20207  10
  -5  -9   0 15.0267 1.39696  15
  -5  -9   0 15.7721 1.24989   9
  -5  -9   0 16.7475 1.53299  14
  -6  -9   0 134.082 7.42927   9
  -6  -9   0 133.654 7.35286  10
  -6  -9   0 135.635 7.55892  14
  -6  -9   0 136.422 7.53784  15
  -7  -9   0 77.6917 4.22402   8
  -7  -9   0 79.0689 4.49666   9
  -7  -9   0 77.1533 4.40234  10
  -8  -9   0 3.21262 0.41786   8
  -8  -9   0 3.07397 0.74206   9
  -9  -9   0 0.96415 0.34045   8
  -9  -9   0 1.04016 0.49248   9
 -10  -9   0 17.1366 0.97349   8
  10   9   0 14.9600 1.04238   8
   2 -10   0 85.9292 4.68687  13
   2 -10   0 83.9060 4.72838  14
   1 -10   0 0.67988 0.40803  13
   1 -10   0 0.78900 0.52473  14
   0 -10   0 344.721 19.4250  15
   0 -10   0 390.849 19.6021  14
   0 -10   0 358.460 19.4651  13
  -1 -10   0 16.6560 1.26809  15
  -1 -10   0 19.3396 1.48738  14
  -1 -10   0 19.1133 1.34083  13
  -2 -10   0 126.647 7.15166  15
  -2 -10   0 129.859 7.15427  13
  -2 -10   0 127.096 6.93644  10
  -2 -10   0 139.148 7.35155  14
  -3 -10   0 64.6601 3.89657  14
  -3 -10   0 65.2286 3.71923  13
  -3 -10   0 63.5310 3.73747  15
  -3 -10   0 65.4481 3.58117  10
  -4 -10   0 0.56605 0.56493  14
  -4 -10   0 0.29038 0.41976  10
  -4 -10   0 -0.0072 0.52548  15
  -5 -10   0 50.2308 2.79196  10
  -5 -10   0 45.8398 2.89537  15
  -5 -10   0 46.6867 2.66764   9
  -5 -10   0 46.4502 2.94644  14
  -6 -10   0 1.49281 0.69165  14
  -6 -10   0 1.05825 0.52496  10
  -6 -10   0 1.83437 0.58954  15
  -7 -10   0 41.9448 2.66709  15
  -7 -10   0 46.1771 2.64535  10
  -8 -10   0 92.1686 5.40805  15
  -8 -10   0 101.641 5.35162   9
  -9 -10   0 6.22036 0.67751   9
  -9 -10   0 3.61436 0.53395  15
   1 -11   0 8.71229 0.74289  14
   0 -11   0 7.36424 0.75940  14
  -1 -11   0 4.90808 0.64922  13
  -1 -11   0 4.38850 0.67636  14
  -2 -11   0 152.067 7.44194  14
  -2 -11   0 131.386 7.23191  13
  -2 -11   0 116.859 7.21793  15
  -3 -11   0 0.61844 0.42952  15
  -3 -11   0 0.88134 0.46613  13
  -3 -11   0 0.84659 0.54849  14
  -4 -11   0 1.90500 0.41576  15
  -4 -11   0 1.52332 0.75735  14
  -4 -11   0 1.46893 0.33192  10
  -5 -11   0 128.661 7.09619  15
  -5 -11   0 133.571 7.00793  10
  -5 -11   0 126.592 7.18551  14
  -6 -11   0 10.6704 0.95700  10
  -6 -11   0 10.2030 0.94082  14
  -6 -11   0 10.2756 0.85834  15
  -7 -11   0 9.97206 0.59835   9
  -7 -11   0 8.17130 0.77593  10
  -8 -11   0 142.030 7.68523   9
  -8 -11   0 147.177 7.77633  10
  -2 -12   0 0.78579 0.37330  14
  -3 -12   0 16.9899 1.20964  14
  -5 -12   0 1.59057 0.38205  14
  -6 -12   0 105.791 5.64291  10
  -4 -12   1 55.4046 3.16016  14
  -3 -12   1 -0.3539 0.32479  14
  -7 -11   1 11.1938 0.87019  14
  -6 -11   1 -0.0379 0.41919  10
  -6 -11   1 0.45841 0.27347  15
  -6 -11   1 0.19697 0.42009  14
  -5 -11   1 67.3373 3.80782  10
  -5 -11   1 71.5758 4.04110  14
  -4 -11   1 126.126 6.98390  10
  -4 -11   1 135.420 7.29480  14
  -3 -11   1 17.3521 1.18690  13
  -3 -11   1 18.3544 1.40242  14
  -2 -11   1 12.9236 0.97257  13
  -1 -11   1 5.28374 0.84057  14
  -1 -11   1 6.08183 0.66532  13
   0 -11   1 0.10082 0.33681  13
   0 -11   1 0.25364 0.40928  14
   1 -11   1 1.20443 0.30889  13
  -9 -10   1 53.5461 2.82848   9
  -9 -10   1 44.3369 2.77559  15
  -8 -10   1 13.9970 1.06939  15
  -8 -10   1 14.6437 1.08903   9
  -7 -10   1 0.95299 0.39729  10
  -7 -10   1 0.48876 0.37099  15
  -7 -10   1 1.39956 0.55722   9
  -7 -10   1 2.30581 0.64692  14
  -6 -10   1 4.47902 0.72752  14
  -6 -10   1 3.10578 0.60420  15
  -6 -10   1 3.13915 0.53203   9
  -6 -10   1 4.08862 0.52853  10
  -5 -10   1 37.4679 2.53645  15
  -5 -10   1 44.0225 2.50191  10
  -5 -10   1 43.8488 2.81227  14
  -5 -10   1 42.9545 2.36414   9
  -4 -10   1 40.1278 2.68960  15
  -4 -10   1 47.5206 2.88497  14
  -4 -10   1 48.0290 2.61998  10
  -3 -10   1 15.8123 1.04649  10
  -3 -10   1 14.8891 1.11823  13
  -3 -10   1 15.6081 1.23109  15
  -3 -10   1 15.1912 1.56949  14
  -2 -10   1 -0.1005 0.50680  13
  -2 -10   1 -0.0294 0.20276  10
  -2 -10   1 -0.3277 0.53434  14
  -1 -10   1 35.3330 2.30335  14
  -1 -10   1 33.8597 2.22389  13
   0 -10   1 414.052 23.0917  13
   0 -10   1 453.656 23.2202  14
   1 -10   1 13.6574 1.24103  14
   2 -10   1 1.69422 0.49406  13
   2 -10   1 1.66252 0.51795  14
 -10  -9   1 41.3100 2.59829   9
 -10  -9   1 45.1836 2.37130   8
  -9  -9   1 257.072 13.5424   8
  -9  -9   1 253.822 13.7134   9
  -8  -9   1 7.18712 0.70784   8
  -8  -9   1 6.69025 0.86483   9
  -7  -9   1 38.8479 2.07703   8
  -7  -9   1 35.4570 2.22647  10
  -7  -9   1 35.1051 2.36017  14
  -7  -9   1 38.8619 2.43081   9
  -6  -9   1 290.086 15.5626  14
  -6  -9   1 285.081 15.4023   9
  -6  -9   1 294.725 15.3528  10
  -6  -9   1 277.715 15.4533  15
  -5  -9   1 0.06873 0.42057  10
  -5  -9   1 -0.3782 0.49622  15
  -5  -9   1 0.31127 0.67966  14
  -5  -9   1 0.30990 0.49336   9
  -4  -9   1 3.20077 0.60173  15
  -4  -9   1 3.80910 0.56596   9
  -4  -9   1 2.51292 0.49375  10
  -4  -9   1 2.87450 0.82212  14
  -3  -9   1 24.8420 1.70386  13
  -3  -9   1 28.6039 2.05701  14
  -3  -9   1 22.2978 1.65745  15
  -3  -9   1 26.3453 1.57687  10
  -2  -9   1 221.798 12.6996  15
  -2  -9   1 245.288 12.8861  14
  -2  -9   1 239.359 12.7124  13
  -2  -9   1 239.734 12.6581  12
  -2  -9   1 232.298 12.5381  10
  -1  -9   1 114.055 6.17789  13
  -1  -9   1 105.439 6.13313  15
  -1  -9   1 117.510 6.12746  12
  -1  -9   1 105.209 5.91086  10
  -1  -9   1 114.282 6.33320  14
   0  -9   1 0.01891 0.73763  14
   0  -9   1 0.74579 0.43612  13
   0  -9   1 0.24918 0.43148  15
   0  -9   1 0.84578 0.38805  12
   1  -9   1 47.1626 2.83163  13
   1  -9   1 45.1327 2.91667  14
   1  -9   1 45.3251 2.70995  12
   2  -9   1 66.1135 3.91907  14
   2  -9   1 68.3674 3.86908  12
   2  -9   1 69.3730 3.87196  13
   3  -9   1 71.8928 3.85803  12
   3  -9   1 71.2418 3.90486  13
   3  -9   1 64.7414 3.91613  14
  11   8  -1 4.62577 0.37967   8
 -11  -8   1 4.06910 0.42015   8
  10   8  -1 2.97846 0.33845   8
 -10  -8   1 2.25329 0.47959   8
  -9  -8   1 5.29662 0.63282   8
  -8  -8   1 9.10109 0.99729   9
  -8  -8   1 10.0430 0.99067   8
  -7  -8   1 9.23136 0.89167   8
  -7  -8   1 7.61429 0.92021   9
  -7  -8   1 8.79112 1.11332  14
  -6  -8   1 2.75406 1.63233   6
  -6  -8   1 6.99406 0.91560  14
  -6  -8   1 5.96527 0.80208   9
  -6  -8   1 5.49981 0.66937  10
  -6  -8   1 6.36098 0.66312   8
  -5  -8   1 715.001 36.4398   9
  -5  -8   1 585.647 37.3780   5
  -5  -8   1 754.552 36.6506  14
  -5  -8   1 660.819 37.1954   2
  -5  -8   1 705.417 36.3627  10
  -5  -8   1 725.496 36.2488   8
  -5  -8   1 648.009 37.5094   6
  -4  -8   1 0.75579 0.36415  10
  -4  -8   1 0.33586 0.64354  14
  -4  -8   1 0.32318 1.00671   5
  -4  -8   1 0.26544 0.43340   9
  -4  -8   1 0.49709 0.46432  15
  -4  -8   1 0.80713 1.17317   6
  -4  -8   1 0.18280 1.18038   3
  -4  -8   1 0.55591 0.94665   2
  -3  -8   1 141.364 8.59209   2
  -3  -8   1 149.187 8.70887   3
  -3  -8   1 163.678 8.46197  14
  -3  -8   1 146.999 8.27169  15
  -3  -8   1 150.896 9.36120   5
  -3  -8   1 147.668 8.18224  13
  -3  -8   1 156.958 8.15859  12
  -3  -8   1 150.346 8.11251  10
  -3  -8   1 149.084 8.11983   9
  -2  -8   1 442.823 24.8276   5
  -2  -8   1 411.732 23.5206   3
  -2  -8   1 459.210 23.5763  12
  -2  -8   1 435.571 23.6465  15
  -2  -8   1 418.990 23.5254   2
  -2  -8   1 458.056 23.6290  13
  -2  -8   1 434.584 23.4846  10
  -2  -8   1 481.761 23.8381  14
  -2  -8   1 450.678 23.3956   9
  -1  -8   1 696.817 35.8055  12
  -1  -8   1 638.920 35.8292  15
  -1  -8   1 682.673 35.8526  13
  -1  -8   1 674.807 35.6619  10
  -1  -8   1 651.434 37.0347   5
  -1  -8   1 706.985 36.0080  14
   0  -8   1 50.7373 2.80417  12
   0  -8   1 51.3592 2.96082  14
   0  -8   1 47.0802 2.78895  15
   0  -8   1 50.6227 2.87722  13
   0  -8   1 39.5559 2.48484  10
   0  -8   1 44.4003 3.80861   5
   1  -8   1 2.28168 1.08795   5
   1  -8   1 3.24048 0.56058  15
   1  -8   1 2.88654 0.50342  12
   1  -8   1 3.09321 0.63145  14
   1  -8   1 3.22800 0.55530  13
   2  -8   1 88.6814 5.73003  15
   2  -8   1 109.063 5.75946  12
   2  -8   1 102.760 5.82425  11
   2  -8   1 107.662 5.87161  14
   2  -8   1 108.984 5.80597  13
   3  -8   1 107.713 5.71698  13
   3  -8   1 102.252 5.75565  14
   3  -8   1 97.6304 5.78525  18
   3  -8   1 107.908 5.69942  12
   3  -8   1 97.8360 5.78755  11
   4  -8   1 0.13041 0.38404  12
   4  -8   1 -0.3321 0.42867  13
   4  -8   1 -0.0566 0.38154  11
   5  -8   1 13.5821 0.99171  11
  11   7  -1 100.959 5.50246   9
  11   7  -1 100.142 5.34472   8
  10   7  -1 30.0995 1.69711   8
 -10  -7   1 27.8777 1.75703   8
   9   7  -1 4.73470 0.46809   8
  -9  -7   1 5.03665 0.67640   8
  -8  -7   1 18.2828 1.27895   8
  -7  -7   1 643.860 33.0000   8
  -7  -7   1 602.076 33.1564  14
  -6  -7   1 103.383 5.36627   8
  -6  -7   1 91.9548 6.27035   2
  -6  -7   1 100.372 5.58643  14
  -6  -7   1 92.8166 5.46881   9
  -5  -7   1 16.9435 1.20471  10
  -5  -7   1 18.5252 1.37957  14
  -5  -7   1 17.9083 1.32891   9
  -5  -7   1 15.0794 2.24633   6
  -5  -7   1 16.8475 1.79283   5
  -5  -7   1 17.4562 1.17917   8
  -5  -7   1 17.8962 2.48091   3
  -5  -7   1 18.7631 2.11014   2
  -4  -7   1 20.6627 2.23138   5
  -4  -7   1 21.1215 1.65784  14
  -4  -7   1 24.2927 2.46968   3
  -4  -7   1 22.4559 1.36220  10
  -4  -7   1 21.1459 2.08835   2
  -4  -7   1 20.7954 1.27211   8
  -4  -7   1 19.3020 2.38079   6
  -4  -7   1 20.9020 1.44942   9
  -3  -7   1 127.406 7.82499   6
  -3  -7   1 131.073 7.70487   3
  -3  -7   1 131.392 6.94372  10
  -3  -7   1 124.005 6.98334   9
  -3  -7   1 136.306 7.22163  14
  -3  -7   1 129.674 7.09635  15
  -3  -7   1 121.636 6.80714   8
  -3  -7   1 117.751 6.97855  13
  -3  -7   1 139.677 8.04534   5
  -3  -7   1 137.330 7.55053   2
  -3  -7   1 129.112 6.97534  12
  -2  -7   1 228.407 12.1321  12
  -2  -7   1 220.307 12.0696   9
  -2  -7   1 206.471 12.1881  15
  -2  -7   1 240.932 12.5626   3
  -2  -7   1 232.728 13.2035   5
  -2  -7   1 240.744 12.4723   2
  -2  -7   1 222.798 12.1639  13
  -2  -7   1 218.125 12.8082   6
  -2  -7   1 227.804 12.0629  10
  -2  -7   1 232.337 12.3372  14
  -1  -7   1 0.87427 0.42366  14
  -1  -7   1 0.35446 0.34437  12
  -1  -7   1 1.30157 0.23327  10
  -1  -7   1 1.60800 0.86506   5
  -1  -7   1 2.54422 0.46725  13
  -1  -7   1 0.79088 0.38274  15
   0  -7   1 334.603 17.8134  14
   0  -7   1 306.937 17.6795  15
   0  -7   1 337.093 17.7270  13
   0  -7   1 327.670 18.7667   5
   0  -7   1 342.611 17.7619  11
   0  -7   1 349.016 17.6872  12
   0  -7   1 322.311 17.5132  10
   1  -7   1 33.2071 2.13686  14
   1  -7   1 31.3727 1.95701  12
   1  -7   1 32.3734 2.02734  13
   1  -7   1 33.1347 2.08359  11
   1  -7   1 29.3471 2.95631   5
   1  -7   1 29.1629 1.93944  15
   1  -7   1 28.2296 2.09993  18
   2  -7   1 -0.4175 0.61029  18
   2  -7   1 0.90096 0.39531  13
   2  -7   1 0.53663 0.43217  14
   2  -7   1 0.15053 0.72309   5
   2  -7   1 0.23059 0.29368  15
   2  -7   1 0.02268 0.44810  12
   2  -7   1 0.45154 0.56434  11
   3  -7   1 70.3588 4.01771  13
   3  -7   1 69.3946 4.02944  15
   3  -7   1 70.7010 4.11381  11
   3  -7   1 69.4816 3.95232  17
   3  -7   1 69.9284 4.07013  14
   3  -7   1 73.6960 4.03962  12
   3  -7   1 70.2874 4.17062  18
   4  -7   1 2.37276 0.61842  14
   4  -7   1 1.79092 0.35701  16
   4  -7   1 2.58073 0.45720  12
   4  -7   1 2.31279 0.45836  13
   4  -7   1 4.23847 0.61002  11
   4  -7   1 2.03307 0.63169  15
   4  -7   1 1.97250 0.75706  18
   4  -7   1 2.33074 0.51935  17
   5  -7   1 2.17737 0.41964  17
   5  -7   1 2.91500 0.73316  18
   5  -7   1 1.75324 0.42853  12
   5  -7   1 2.33615 0.49488  11
   6  -7   1 45.9380 2.84428  11
   6  -7   1 53.4406 2.93753  18
  11   6  -1 6.98804 0.81714   9
  11   6  -1 6.65650 0.42981   8
  10   6  -1 9.10960 0.65282   8
   9   6  -1 2.87869 0.36764   8
   8   6  -1 54.0567 3.05376   8
  -8  -6   1 55.6153 3.18333   8
  -7  -6   1 138.513 7.51916   8
  -6  -6   1 887.394 46.8829   8
  -5  -6   1 62.4601 4.05968   5
  -5  -6   1 65.7825 4.62000   3
  -5  -6   1 58.7463 3.35709   8
  -5  -6   1 58.0303 3.44763   9
  -4  -6   1 20.3281 1.96136   5
  -4  -6   1 18.0284 1.28843   9
  -4  -6   1 18.3933 1.18801   8
  -4  -6   1 19.4770 2.20977   3
  -4  -6   1 21.2681 1.84813   2
  -3  -6   1 189.819 10.7766   3
  -3  -6   1 192.069 10.5345   2
  -3  -6   1 188.018 10.8696   6
  -3  -6   1 182.041 10.0301   8
  -3  -6   1 192.196 10.8748   5
  -2  -6   1 2.51003 0.82446   3
  -2  -6   1 2.28102 0.70759   2
  -2  -6   1 2.37305 0.80702   6
  -2  -6   1 2.38072 0.93952   5
  -1  -6   1 11.0165 1.04101   2
  -1  -6   1 12.2752 1.13739   3
  -1  -6   1 9.99184 1.30619   6
  -1  -6   1 12.7509 1.50426   5
  -1  -6   1 11.8233 1.08342  14
   0  -6   1 79.3568 4.48207  10
   0  -6   1 85.1509 4.61372  12
   0  -6   1 85.3040 4.76041  14
   0  -6   1 84.4911 4.64696  13
   0  -6   1 83.7660 4.68572  11
   0  -6   1 80.1728 4.98474   6
   0  -6   1 91.8347 5.60574   5
   1  -6   1 231.966 13.7012  15
   1  -6   1 268.683 13.7647  13
   1  -6   1 248.504 13.8359  18
   1  -6   1 267.171 14.6709   5
   1  -6   1 237.953 13.5346  10
   1  -6   1 262.918 13.7960  11
   1  -6   1 262.783 13.8337  14
   1  -6   1 276.605 13.7308  12
   2  -6   1 74.4084 4.22511  14
   2  -6   1 77.2959 4.23209  11
   2  -6   1 75.1588 4.13516  13
   2  -6   1 74.4909 4.99458   5
   2  -6   1 72.6416 4.12629  15
   2  -6   1 65.6173 4.05161  17
   2  -6   1 77.0433 4.10315  12
   2  -6   1 70.8354 4.25114  18
   3  -6   1 24.5889 1.57750  12
   3  -6   1 24.4790 1.62273  15
   3  -6   1 22.9836 1.47810  16
   3  -6   1 25.3420 1.76176  11
   3  -6   1 25.0646 1.83009  18
   3  -6   1 22.4328 1.60168  13
   3  -6   1 22.5424 1.66050  14
   3  -6   1 21.9168 1.53434  17
   4  -6   1 135.693 7.75102  14
   4  -6   1 133.675 7.67036  13
   4  -6   1 143.712 7.61249  16
   4  -6   1 153.781 7.94720  18
   4  -6   1 139.822 7.68857  12
   4  -6   1 136.552 7.82658  11
   4  -6   1 138.294 7.73250  15
   4  -6   1 147.756 7.69802  17
   5  -6   1 230.037 11.6014  17
   5  -6   1 199.939 11.6118  15
   5  -6   1 221.987 11.7435  11
   5  -6   1 208.848 11.5223  16
   5  -6   1 200.732 11.5598  12
   5  -6   1 232.952 11.8402  18
   6  -6   1 45.0320 2.94199  18
   6  -6   1 50.0865 2.94080  11
   6  -6   1 49.6870 2.78758  17
   7  -6   1 2.77653 0.52645  18
   7  -6   1 1.58014 0.36603  11
   7  -6   1 1.36308 0.40381  17
  11   5  -1 29.0606 1.75153  11
  10   5  -1 6.53523 0.55845   8
  10   5  -1 5.22906 0.74501   9
   9   5  -1 100.697 5.42967   8
   8   5  -1 30.8817 1.80283   8
  -5  -5   1 7.03114 1.13775   2
  -5  -5   1 7.44610 1.54018   3
  -4  -5   1 110.153 6.36088   2
  -4  -5   1 106.601 6.80159   3
  -4  -5   1 110.825 6.45008   5
  -3  -5   1 9.85577 1.09444   2
  -3  -5   1 8.97579 1.33684   3
  -3  -5   1 8.68745 1.07211   5
  -2  -5   1 15.0246 1.49386   3
  -2  -5   1 13.2653 1.49917   6
  -2  -5   1 15.7958 1.27355   2
  -2  -5   1 17.4486 1.65676   5
  -1  -5   1 94.0074 5.82681   6
  -1  -5   1 107.035 5.62767   2
  -1  -5   1 97.5050 5.69967   3
  -1  -5   1 103.760 6.09506   5
   0  -5   1 347.662 18.9814   3
   0  -5   1 384.300 19.7185   5
   0  -5   1 392.843 18.9798   3
   0  -5   1 311.078 18.9638   1
   0  -5   1 334.851 18.9311   2
   0  -5   1 360.305 19.3570   6
   0  -5   1 379.869 18.9726   2
   1  -5   1 619.780 32.3576   5
   1  -5   1 557.659 31.8844   6
   1  -5   1 615.863 32.4884   4
   2  -5   1 708.880 37.5460  11
   2  -5   1 716.993 37.4669  12
   2  -5   1 719.657 38.5049   4
   2  -5   1 714.442 37.4959  13
   2  -5   1 738.290 38.2302   5
   2  -5   1 652.828 37.7774   6
   3  -5   1 446.060 22.9524  12
   3  -5   1 430.655 22.9670  13
   3  -5   1 431.779 22.8871  16
   3  -5   1 420.086 23.2888   7
   3  -5   1 418.323 24.1060   4
   3  -5   1 443.492 23.0651  11
   3  -5   1 454.558 22.9518  17
   3  -5   1 429.588 22.9741  15
   3  -5   1 419.775 23.0108  14
   3  -5   1 453.026 23.1416  18
   3  -5   1 401.359 23.5518   5
   4  -5   1 96.9192 4.77186  17
   4  -5   1 82.0036 4.78699  14
   4  -5   1 87.6231 4.68118  16
   4  -5   1 81.2085 4.71931  13
   4  -5   1 68.0767 5.78867   4
   4  -5   1 86.6075 4.79382  15
   4  -5   1 91.6063 4.93805  18
   4  -5   1 83.8092 4.87212  11
   4  -5   1 83.0700 4.71568  12
   5  -5   1 28.0379 1.98359  15
   5  -5   1 30.1445 1.80091  16
   5  -5   1 31.4524 1.95298  17
   5  -5   1 30.8705 2.09234  11
   5  -5   1 26.9846 1.83575  12
   5  -5   1 31.4130 2.17529  18
   6  -5   1 1.39391 0.59475  17
   6  -5   1 0.65400 0.48381  16
   6  -5   1 0.79431 0.72757  18
   6  -5   1 0.54524 0.44080  11
   7  -5   1 0.32133 0.49552  18
   7  -5   1 -0.3858 0.51800  17
   7  -5   1 0.03729 0.36994  11
   8  -5   1 8.66199 0.85666  18
   8  -5   1 8.72450 0.71425  17
  11   4  -1 586.712 31.3547   9
  11   4  -1 599.961 31.4319  11
  10   4  -1 32.4857 1.79960   8
  10   4  -1 35.2042 2.06750   9
  10   4  -1 31.2587 2.09838  18
   9   4  -1 0.84442 0.28788   8
   9   4  -1 0.49012 0.53593  18
   9   4  -1 0.25683 0.51895   9
   8   4  -1 93.2802 4.98168   8
   8   4  -1 87.9006 5.10999   9
   8   4  -1 95.5916 5.24305  18
   7   4  -1 0.86854 0.27712   8
  -5  -4   1 41.9265 3.29835   3
  -5  -4   1 36.8467 2.69832   2
   4   4  -1 195.936 11.9504   1
  -4  -4   1 202.087 12.0774   1
  -4  -4   1 227.248 11.9466   2
  -4  -4   1 226.414 12.3899   3
  -4  -4   1 232.452 11.9500   5
   3   4  -1 9.00159 1.10350   1
  -3  -4   1 11.2854 1.15400   5
  -3  -4   1 9.82120 1.22502   1
  -3  -4   1 10.4380 1.15904   2
  -3  -4   1 11.5481 1.44229   3
  -3  -4   1 9.05124 1.06503   1
   2   4  -1 1.17444 0.52368   1
   2   4  -1 1.17510 0.42395   1
  -2  -4   1 1.42173 0.48047   5
  -2  -4   1 1.91931 0.52364   1
  -2  -4   1 0.60839 0.35827   1
  -2  -4   1 1.51060 0.48309   2
  -2  -4   1 1.12426 0.77408   3
   1   4  -1 16.6429 1.33798   1
   1   4  -1 17.6196 1.22887   1
  -1  -4   1 19.5757 1.26748   2
  -1  -4   1 19.8617 1.61872   5
  -1  -4   1 16.8093 1.31395   1
  -1  -4   1 16.8769 1.21024   1
  -1  -4   1 17.1453 1.36310   3
  -1  -4   1 18.7218 1.43964   3
  -1  -4   1 15.5060 1.11023   2
  -1  -4   1 17.0390 1.42642   6
   0   4  -1 1212.15 62.2105   1
   0   4  -1 1114.85 62.2329   1
   0  -4   1 1243.02 62.6266   3
   0  -4   1 1243.62 62.5339   2
   0  -4   1 1265.41 62.7927   4
   0  -4   1 1121.44 62.1789   2
   0  -4   1 1158.29 62.4234   6
   0  -4   1 1155.83 62.2508   1
   0  -4   1 1031.20 62.2395   3
   0  -4   1 1153.07 62.2035   1
   0  -4   1 1273.09 62.6980   5
   1  -4   1 227.383 13.1266   7
   1  -4   1 251.492 13.5161   5
   1  -4   1 241.808 13.2222   6
   1  -4   1 257.204 13.6776   4
   2  -4   1 -0.1331 0.55052   5
   2  -4   1 0.69308 0.71008   4
   2  -4   1 -0.5438 0.42796   7
   2  -4   1 0.31533 0.41050   6
   3  -4   1 730.459 39.6836   4
   3  -4   1 692.220 39.2064   5
   3  -4   1 757.599 39.0478   7
   3  -4   1 748.686 39.0762   6
   4  -4   1 14.8272 1.06861  12
   4  -4   1 14.7700 2.03677   4
   4  -4   1 17.0587 1.35680  18
   4  -4   1 15.7404 1.09022  16
   4  -4   1 17.8010 1.17642  17
   4  -4   1 14.5762 1.23378  11
   4  -4   1 15.0509 1.11831  15
   4  -4   1 14.2807 1.11675  13
   4  -4   1 15.5417 1.41783   7
   5  -4   1 64.3064 3.58712  18
   5  -4   1 49.9062 4.45549   4
   5  -4   1 64.3645 3.41190  17
   5  -4   1 58.8889 3.48483  11
   5  -4   1 52.9819 3.34028  12
   5  -4   1 60.8605 3.95491   7
   5  -4   1 62.3848 3.36914  16
   5  -4   1 59.5012 3.47810  15
   6  -4   1 185.440 9.87125  11
   6  -4   1 175.404 9.69474  16
   6  -4   1 185.473 9.77634  17
   6  -4   1 189.339 9.96772  18
   6  -4   1 163.664 10.3277   7
   7  -4   1 75.5651 4.41135  17
   7  -4   1 77.3755 4.63866  18
   7  -4   1 81.8537 4.52975  11
   8  -4   1 20.7846 1.36970  17
   8  -4   1 21.5374 1.56986  11
   8  -4   1 21.4053 1.58208  18
   9  -4   1 15.6617 0.96512  17
   9  -4   1 12.9750 1.20524  18
  11   3  -1 -0.4776 0.47061  18
  11   3  -1 0.24598 0.30750  10
  11   3  -1 -0.1659 0.25646   9
  11   3  -1 0.12466 0.27871  11
  10   3  -1 76.8223 4.00437   9
  10   3  -1 67.4485 4.20578  18
  10   3  -1 72.8838 4.08775  11
  10   3  -1 69.7523 4.01844  10
   9   3  -1 10.8289 1.20274  18
   9   3  -1 11.6430 1.03295   9
   9   3  -1 11.8808 0.74458   8
   9   3  -1 11.4499 1.03716  10
   8   3  -1 3.68711 0.64858  18
   8   3  -1 2.78243 0.33910   8
   8   3  -1 3.14364 0.44039   9
   8   3  -1 2.47203 1.65254   3
   8   3  -1 2.71302 1.04591   2
   8   3  -1 2.29645 1.38640   4
   7   3  -1 165.173 8.90133   2
   7   3  -1 159.884 8.26305   8
   7   3  -1 148.621 9.64166   3
   7   3  -1 147.295 8.35107   9
   6   3  -1 650.462 34.1022   2
   6   3  -1 612.075 33.9733   7
   6   3  -1 649.091 34.7201   3
   5   3  -1 64.4020 4.38635   1
   5   3  -1 75.3058 4.14015   2
   5   3  -1 67.3013 3.95526   7
   5   3  -1 78.6063 4.70131   3
  -5  -3   1 57.3664 4.23334   1
   4   3  -1 1422.30 78.8847   1
   4   3  -1 1481.41 78.6048   7
   4   3  -1 1509.26 79.1383   3
   4   3  -1 1488.93 79.0067   1
   4   3  -1 1500.68 78.7633   2
  -4  -3   1 1486.35 79.2140   3
  -4  -3   1 1417.75 78.9288   1
  -4  -3   1 1548.89 78.7474   5
  -4  -3   1 1519.28 79.0027   1
  -4  -3   1 1517.92 78.8367   2
   3   3  -1 1235.11 66.1057   3
   3   3  -1 1320.59 66.0238   1
   3   3  -1 1151.05 65.6407   7
   3   3  -1 1202.07 65.9167   1
   3   3  -1 1213.42 65.8088   2
  -3  -3   1 1299.46 65.8788   2
  -3  -3   1 1296.32 66.0052   1
  -3  -3   1 1266.88 66.1717   3
  -3  -3   1 1206.96 65.9481   1
  -3  -3   1 1259.97 65.8994   5
   2   3  -1 16.4749 1.18536   2
   2   3  -1 17.6324 1.49906   3
   2   3  -1 15.2241 0.97621   7
   2   3  -1 16.9631 1.27460   1
   2   3  -1 19.7793 1.39216   1
  -2  -3   1 17.7493 1.31951   1
  -2  -3   1 17.2886 1.25459   2
  -2  -3   1 17.3596 1.28928   1
  -2  -3   1 18.9987 1.40071   5
  -2  -3   1 19.3394 1.57863   3
   1   3  -1 85.9796 4.49542   1
   1   3  -1 82.7804 4.45634   1
  -1  -3   1 79.3662 4.55132   3
  -1  -3   1 81.2113 4.47228   1
  -1  -3   1 74.1127 4.53162   3
  -1  -3   1 84.7899 4.41279   2
  -1  -3   1 80.7565 4.46039   1
  -1  -3   1 80.1528 4.63528   5
  -1  -3   1 69.7222 4.35712   2
   0   3  -1 239.746 12.0522   1
   0   3  -1 235.846 12.0794   1
   0  -3   1 225.377 12.0669   1
   0  -3   1 216.600 12.1728   6
   0  -3   1 211.295 11.9958   2
   0  -3   1 231.551 12.4372   4
   0  -3   1 222.453 12.0210   2
   0  -3   1 236.486 12.0986   3
   0  -3   1 225.839 12.0541   1
   0  -3   1 225.801 12.3387   5
   0  -3   1 215.639 12.1003   3
   1  -3   1 33.3605 2.32082   4
   1  -3   1 32.6206 2.22270   5
   1  -3   1 30.4658 1.95851   7
   1  -3   1 31.9548 1.98204   6
   2  -3   1 13.1469 1.27756   5
   2  -3   1 13.2338 1.08207   6
   2  -3   1 13.0815 1.10672   7
   2  -3   1 13.5598 1.45905   4
   3  -3   1 140.293 7.80177   6
   3  -3   1 149.622 7.81731   7
   3  -3   1 141.388 8.28811   4
   3  -3   1 128.195 7.83954   5
   4  -3   1 145.793 7.86228   7
   4  -3   1 131.195 8.37064   4
   5  -3   1 18.9773 1.75914   7
   5  -3   1 13.9370 2.04783   4
   5  -3   1 16.3306 1.30454  15
   5  -3   1 14.7380 0.91471  10
   5  -3   1 17.9374 1.09802  16
   5  -3   1 15.7123 1.28430  11
   5  -3   1 17.0043 1.28781  18
   5  -3   1 16.7215 1.22542  17
   6  -3   1 1.02292 0.40094  17
   6  -3   1 1.15516 0.16926  10
   6  -3   1 1.85968 0.45231  11
   6  -3   1 1.82973 0.53551  18
   6  -3   1 1.34683 1.14848   4
   6  -3   1 2.20167 0.51261  16
   6  -3   1 0.09669 0.81653   7
   7  -3   1 62.7198 3.73606  17
   7  -3   1 67.5845 3.83272  11
   7  -3   1 67.5751 3.69303  16
   7  -3   1 61.7449 3.94733  18
   8  -3   1 75.2757 4.10696  17
   8  -3   1 71.1560 4.15358  11
   8  -3   1 70.6693 4.26489  18
   9  -3   1 5.44485 0.74790  18
   9  -3   1 4.83110 0.64760  11
  11   2  -1 2.24441 0.41769  10
  11   2  -1 1.47340 0.42569  18
  11   2  -1 1.48668 0.40423  11
  10   2  -1 3.98574 0.82685  18
  10   2  -1 5.54061 0.62383  11
  10   2  -1 5.57441 0.60996  10
  10   2  -1 6.14844 0.63389   9
   9   2  -1 4.04504 0.67335  18
   9   2  -1 2.90019 0.49280   9
   9   2  -1 3.18019 0.56317  10
   8   2  -1 60.5663 3.46542  18
   8   2  -1 58.2339 4.66551   4
   8   2  -1 51.2260 4.57926   3
   8   2  -1 54.8457 3.80976   2
   8   2  -1 57.3370 3.25587   9
   8   2  -1 55.5418 3.82887   7
   8   2  -1 59.4540 3.27357  10
   8   2  -1 58.7672 3.11569   8
   7   2  -1 0.64906 0.34553   9
   7   2  -1 0.79959 1.07474   4
   7   2  -1 0.17481 0.65063   7
   7   2  -1 1.06266 0.26698   8
   7   2  -1 0.63761 0.34171  10
   7   2  -1 -0.2357 0.63525   2
   7   2  -1 -0.2600 1.22331   3
   7   2  -1 1.09863 0.36510  18
   6   2  -1 381.837 20.6724   2
   6   2  -1 391.565 20.7180   7
   6   2  -1 375.985 21.2316   3
   5   2  -1 556.833 29.5197   2
   5   2  -1 574.100 29.9790   3
   5   2  -1 512.366 29.7632   1
   5   2  -1 567.883 29.4975   7
   4   2  -1 351.141 18.6103   3
   4   2  -1 317.742 18.3586   1
   4   2  -1 362.917 18.2680   2
   4   2  -1 363.498 18.2078   7
   4   2  -1 351.804 18.4770   1
  -4  -2   1 326.015 18.4158   1
  -4  -2   1 322.067 18.6495   3
  -4  -2   1 318.206 18.2938   2
  -4  -2   1 350.522 18.4658   1
   3   2  -1 251.805 14.3513   1
   3   2  -1 280.418 14.5590   3
   3   2  -1 257.424 14.1870   7
   3   2  -1 282.473 14.4345   1
   3   2  -1 268.181 14.2623   2
  -3  -2   1 268.992 14.6016   3
  -3  -2   1 274.138 14.4175   1
  -3  -2   1 272.059 14.4079   1
  -3  -2   1 256.995 14.2965   2
  -3  -2   1 251.670 14.2355   5
   2   2  -1 1152.42 60.1041   3
   2   2  -1 1074.06 59.8966   2
   2   2  -1 1063.87 59.9713   7
   2   2  -1 1207.52 60.0336   1
   2   2  -1 1138.63 60.1519   1
  -2  -2   1 1157.71 60.5871   1
  -2  -2   1 1101.53 60.2259   5
  -2  -2   1 1114.33 59.9253   2
  -2  -2   1 1189.54 60.1539   3
  -2  -2   1 1147.97 60.0052   1
   1   2  -1 2065.96 107.088   1
   1   2  -1 2101.99 107.168   1
   1   2  -1 1932.93 106.233   3
  -1  -2   1 2064.98 107.143   1
  -1  -2   1 1911.91 107.422   5
  -1  -2   1 1994.78 107.265   3
  -1  -2   1 2014.35 106.821   2
   0   2  -1 744.882 37.2455   1
   0   2  -1 740.699 37.2170   1
   0  -2   1 710.299 37.1977   1
   0  -2   1 700.388 37.1436   4
   0  -2   1 661.317 36.8697   2
   0  -2   1 688.151 36.9534   3
   0  -2   1 679.089 37.0764   5
   0  -2   1 639.905 36.9536   6
   0  -2   1 704.204 37.2841   1
   0  -2   1 713.969 37.2010   3
   0  -2   1 709.722 37.2057   2
  -1   2  -1 106.176 5.22539   1
  -1   2  -1 103.104 5.23693   1
   1  -2   1 97.2530 5.36484   7
   1  -2   1 99.4320 5.23993   3
   1  -2   1 92.3503 5.21645   2
   1  -2   1 96.5044 5.23638   1
   1  -2   1 98.3287 5.21733   1
   1  -2   1 94.9171 5.47605   5
   1  -2   1 94.3324 5.23282   3
   1  -2   1 101.310 5.20673   2
   1  -2   1 100.840 5.61526   4
   1  -2   1 93.3405 5.35536   6
   2  -2   1 64.5890 3.62620   7
   2  -2   1 65.2766 3.93969   4
   2  -2   1 65.9808 3.62853   6
   2  -2   1 58.0351 3.67216   5
   3  -2   1 51.7868 3.02661   7
   3  -2   1 50.4102 3.34679   4
   3  -2   1 46.2714 2.93976   5
   4  -2   1 2.06533 0.62452   7
   4  -2   1 -0.0609 0.63946   4
   5  -2   1 557.022 28.6962   7
   5  -2   1 494.843 28.1178  10
   5  -2   1 527.508 28.3822  18
   5  -2   1 531.497 28.2029  16
   5  -2   1 550.493 28.2616  17
   5  -2   1 518.833 28.2918  11
   5  -2   1 554.904 29.2243   4
   6  -2   1 2.72482 0.64007  18
   6  -2   1 2.12588 0.51434  17
   6  -2   1 4.68603 0.56119  16
   6  -2   1 4.33804 0.98591   7
   6  -2   1 2.25376 0.51942  11
   6  -2   1 2.68479 0.96717   4
   6  -2   1 2.40454 0.29865  10
   7  -2   1 186.001 11.4660   7
   7  -2   1 208.717 10.8386  16
   7  -2   1 198.372 10.8683  17
   7  -2   1 202.188 10.7092  10
   7  -2   1 206.371 11.0772  18
   7  -2   1 205.938 10.9613  11
   8  -2   1 14.8843 1.49121  18
   8  -2   1 14.5796 0.86326  10
   8  -2   1 12.7437 1.06679  17
   8  -2   1 14.4519 1.29875  11
   9  -2   1 51.5193 3.18998  18
   9  -2   1 48.8874 2.92032  17
   9  -2   1 51.8828 3.04968  11
  10  -2   1 1.17540 0.34023  11
  10  -2   1 1.19624 0.46820  18
  11   1  -1 2.71886 0.51483  18
  11   1  -1 4.31647 0.36482  10
  10   1  -1 94.3807 5.50628  11
  10   1  -1 101.474 5.71580  18
  10   1  -1 103.981 5.41257  10
   9   1  -1 3.66027 0.43689   9
   9   1  -1 3.04082 0.60313  11
   9   1  -1 3.06981 0.81258  18
   9   1  -1 5.12444 0.56811  10
   8   1  -1 1560.24 83.5052  10
   8   1  -1 1650.41 83.7732  18
   8   1  -1 1536.02 83.4834   9
   8   1  -1 1587.18 83.6054  11
   7   1  -1 0.57926 0.48887  18
   7   1  -1 1.09385 0.19312   8
   7   1  -1 0.61266 0.71521   7
   7   1  -1 -0.7849 0.94558   4
   7   1  -1 0.57090 0.30321   9
   7   1  -1 0.88334 1.19913   3
   7   1  -1 0.64594 0.61678   2
   7   1  -1 0.74327 0.31421  10
   6   1  -1 25.2553 1.99041   7
   6   1  -1 24.2894 2.34239   4
   6   1  -1 27.8229 2.47394   3
   6   1  -1 26.9162 1.85080   2
   6   1  -1 22.9268 1.37987   8
   5   1  -1 35.4972 2.29907   2
   5   1  -1 36.4853 2.71684   3
   5   1  -1 32.9260 2.31882   7
   4   1  -1 24.0294 1.59621   2
   4   1  -1 24.4217 1.68324   1
   4   1  -1 22.8427 1.76190   1
   4   1  -1 24.4561 1.98261   3
   4   1  -1 23.9745 1.62687   7
  -4  -1   1 27.1272 1.81112   1
  -4  -1   1 20.0581 1.69689   1
   3   1  -1 332.091 16.1661   1
   3   1  -1 297.477 16.1004   1
   3   1  -1 299.273 16.0140   7
   3   1  -1 319.541 16.0153   2
   3   1  -1 311.185 16.2565   3
  -3  -1   1 269.773 15.8999   5
  -3  -1   1 300.894 16.1353   1
  -3  -1   1 278.967 16.0292   2
  -3  -1   1 277.142 16.2735   3
  -3  -1   1 316.332 16.1474   1
   2   1  -1 399.145 22.0887   7
   2   1  -1 436.726 22.1845   1
   2   1  -1 444.591 22.2189   1
   2   1  -1 421.826 22.2770   3
   2   1  -1 412.227 22.1137   2
  -2  -1   1 401.846 22.1245   2
  -2  -1   1 444.991 22.2006   1
  -2  -1   1 385.555 22.0881   5
  -2  -1   1 437.110 22.2051   1
  -2  -1   1 388.535 22.2914   3
   1   1  -1 88.2216 4.90477   3
   1   1  -1 84.0257 4.78898   2
   1   1  -1 93.2296 4.85891   1
   1   1  -1 95.2786 4.84429   1
  -1  -1   1 90.9166 4.84272   1
  -1  -1   1 84.6077 4.83649   5
  -1  -1   1 86.7680 4.92214   3
  -1  -1   1 91.8417 4.85395   1
  -1  -1   1 86.2741 4.80151   2
   0   1  -1 12.7619 0.77128   1
   0   1  -1 14.6940 0.80051   1
   0  -1   1 11.4186 0.87902   5
   0  -1   1 11.7078 0.73696   2
   0  -1   1 11.8359 0.81891   3
   0  -1   1 12.5558 0.76940   1
   0  -1   1 13.1869 0.83787   3
   0  -1   1 13.8443 0.79514   1
   0  -1   1 11.6945 0.74135   2
   0  -1   1 12.0555 0.88406   4
  -1   1  -1 105.327 5.14026   1
  -1   1  -1 102.360 5.13189   1
   1  -1   1 90.1383 5.13032   3
   1  -1   1 91.7355 5.21321   5
   1  -1   1 95.8246 5.32412   4
   1  -1   1 99.4892 5.14063   1
   1  -1   1 89.8694 5.10460   2
   1  -1   1 89.1323 5.12991   6
   1  -1   1 95.6500 5.18117   7
  -2   1  -1 8.21009 0.73844   1
  -2   1  -1 8.42950 0.65830   1
   2  -1   1 6.93096 0.75796   3
   2  -1   1 7.79536 0.67379   5
   2  -1   1 8.31700 0.69658   3
   2  -1   1 7.31804 0.79903   7
   2  -1   1 8.25318 0.64031   1
   2  -1   1 7.40455 0.67544   1
   2  -1   1 8.25941 0.58505   2
   2  -1   1 7.75264 0.59436   2
  -3   1  -1 165.027 9.08670   1
  -3   1  -1 157.629 9.02397   1
   3  -1   1 170.034 9.18358   3
   3  -1   1 177.974 9.16141   7
   3  -1   1 157.404 8.96087   2
   3  -1   1 177.130 8.97135   2
   3  -1   1 147.150 9.00169   5
   3  -1   1 177.797 9.42153   4
   3  -1   1 176.607 9.08142   1
   3  -1   1 164.765 9.01367   1
   3  -1   1 174.140 9.09548   3
  -4   1  -1 0.80372 0.47344   1
   4  -1   1 1.35037 0.34730   2
   4  -1   1 0.62370 0.26942   2
   4  -1   1 1.13321 0.31094   1
   4  -1   1 1.55030 0.45504   7
   4  -1   1 1.32486 0.53645   3
   4  -1   1 2.21183 0.75464   4
   4  -1   1 1.03026 0.51142   3
   4  -1   1 1.21068 0.42947   1
   5  -1   1 15.1788 1.49803   3
   5  -1   1 16.2254 1.17042   2
   5  -1   1 15.6911 1.71274   4
   5  -1   1 19.2859 1.58018   7
   6  -1   1 121.473 6.33799  10
   6  -1   1 115.507 7.34481   4
   6  -1   1 112.369 6.29981   9
   6  -1   1 117.687 6.39715  16
   6  -1   1 122.832 6.62070  18
   6  -1   1 127.254 6.98090   7
   6  -1   1 120.576 6.51064   2
   6  -1   1 120.981 6.49311  11
   6  -1   1 116.347 6.45506  17
   6  -1   1 110.125 6.79322   3
   7  -1   1 33.0461 2.00588   2
   7  -1   1 33.9209 2.61018   7
   7  -1   1 30.0993 2.24492   3
   7  -1   1 34.9099 1.95266  10
   7  -1   1 36.5102 2.18266  11
   7  -1   1 36.8168 2.03848  16
   7  -1   1 33.1446 1.85654   9
   7  -1   1 34.9902 2.34596  18
   7  -1   1 32.1609 3.11584   4
   7  -1   1 34.5240 2.11375  17
   8  -1   1 8.60054 1.02521  11
   8  -1   1 7.89902 0.78197  17
   8  -1   1 8.35942 0.66691  10
   8  -1   1 8.18699 1.00506  18
   8  -1   1 6.41460 1.33147   7
   9  -1   1 3.33691 0.68679  18
   9  -1   1 2.93513 0.37784  10
   9  -1   1 2.17538 0.63034  11
   9  -1   1 1.88288 0.56206  17
  10  -1   1 4.93227 0.51973  17
  10  -1   1 5.85504 0.75527  18
  10  -1   1 4.74753 0.58480  11
  11  -1   1 31.4308 1.92438  18
  11   0  -1 12.2539 0.98387  18
  10   0  -1 63.8728 3.62123  18
  10   0  -1 54.7256 3.36307  11
  10   0  -1 60.6226 3.26266  10
   9   0  -1 27.9008 1.85449  11
   9   0  -1 31.5428 2.13773  18
   9   0  -1 25.6557 1.65633  10
   9   0  -1 26.9808 1.74599  17
   8   0  -1 0.08508 0.33955  10
   8   0  -1 0.13455 0.46542  17
   8   0  -1 -0.2621 0.29417   9
   8   0  -1 -0.0961 0.45004  11
   8   0  -1 -1.3102 0.84241   7
   8   0  -1 -0.0090 0.45276  18
   7   0  -1 30.8805 2.60525   7
   7   0  -1 32.0168 2.02570  11
   7   0  -1 32.9473 1.96992  16
   7   0  -1 30.6053 2.85451   4
   7   0  -1 31.8825 2.24009   2
   7   0  -1 34.0718 2.96460   3
   7   0  -1 32.8105 1.86179   9
   7   0  -1 33.4135 1.88034  10
   7   0  -1 30.6350 1.93899  17
   7   0  -1 34.6049 2.22995  18
   6   0  -1 218.793 11.5748   7
   6   0  -1 194.766 11.0123  16
   6   0  -1 216.063 11.2885   2
   6   0  -1 192.293 10.8967   8
   6   0  -1 220.232 10.9875  10
   6   0  -1 204.797 10.9754   9
   6   0  -1 202.645 11.1952  18
   6   0  -1 201.014 11.7793   3
   6   0  -1 211.668 11.9648   4
   5   0  -1 4.54316 0.64114   2
   5   0  -1 4.13842 1.04707   3
   5   0  -1 7.35576 1.17590   4
   5   0  -1 3.61867 0.74049   7
   4   0  -1 11.0021 1.02522   1
   4   0  -1 15.0189 1.39228   3
   4   0  -1 13.6556 1.01573   2
   4   0  -1 13.8040 1.44817   4
   4   0  -1 12.9160 1.13989   1
   4   0  -1 13.9830 1.16887   7
  -4   0   1 12.0207 1.10657   1
  -4   0   1 11.9493 1.11015   1
   3   0  -1 224.773 12.5237   1
   3   0  -1 201.723 12.4414   2
   3   0  -1 245.906 12.5360   7
   3   0  -1 213.217 12.7040   3
   3   0  -1 253.043 12.6850   3
   3   0  -1 246.248 12.4470   2
   3   0  -1 244.701 12.5612   1
  -3   0   1 238.301 12.5564   1
  -3   0   1 229.281 12.5546   1
   2   0  -1 101.194 5.32378   3
   2   0  -1 100.433 5.16007   2
   2   0  -1 101.994 5.23889   1
   2   0  -1 81.8502 5.14639   2
   2   0  -1 94.0442 5.20407   7
   2   0  -1 91.8205 5.20404   1
  -2   0   1 99.8378 5.24231   1
  -2   0   1 88.5314 5.32111   3
  -2   0   1 98.7656 5.21774   1
   1   0  -1 166.367 9.30620   6
   1   0  -1 177.989 9.34043   3
   1   0  -1 184.696 9.29609   1
   1   0  -1 168.566 9.26330   7
   1   0  -1 170.797 9.24707   2
   1   0  -1 160.956 9.33684   3
  -1   0   1 169.085 9.25087   2
  -1   0   1 184.711 9.29647   1
  -1   0   1 191.266 9.28918   1
  -1   0   1 167.478 9.33200   3
   0   0  -1 3041.22 167.692   2
   0   0  -1 3287.34 168.038   3
   0   0   1 3207.62 167.956   3
  -1   0  -1 479.137 24.8639   3
  -1   0  -1 478.380 24.8990   1
  -1   0  -1 509.575 24.9278   1
   1   0   1 446.678 24.7787   1
   1   0   1 508.381 24.7931   1
   1   0   1 489.424 24.8748   3
   1   0   1 403.645 24.7390   2
   1   0   1 439.146 24.8440   4
   1   0   1 447.928 24.7442   7
   1   0   1 482.457 24.7308   2
  -2   0  -1 1263.66 64.5374   1
  -2   0  -1 1338.88 65.2247   1
   2   0   1 1170.64 65.1152   4
   2   0   1 1295.39 64.8389   1
   2   0   1 1214.79 64.6546   7
   2   0   1 1197.54 64.3350   3
   2   0   1 1250.62 64.2111   1
   2   0   1 1136.68 64.1493   2
   2   0   1 1220.22 64.5993   3
   2   0   1 1026.68 64.2335   5
   2   0   1 1275.67 64.6516   2
  -3   0  -1 34.8323 2.09790   1
  -3   0  -1 34.0312 2.14581   1
   3   0   1 32.5907 2.32257   4
   3   0   1 33.3804 2.16262   3
   3   0   1 33.7312 2.09470   7
   3   0   1 32.9753 2.06111   1
   3   0   1 32.4886 2.14173   1
   3   0   1 33.8172 2.32720   3
   3   0   1 33.0893 1.99459   2
  -4   0  -1 1.55927 0.50688   1
  -4   0  -1 1.78238 0.53671   1
   4   0   1 2.16514 0.49094   2
   4   0   1 2.11916 0.78127   4
   4   0   1 1.52364 0.42963   1
   4   0   1 1.43306 0.57708   1
   4   0   1 1.32782 0.39922   2
   4   0   1 2.66521 0.77869   3
   4   0   1 2.11383 0.71883   3
   5   0   1 45.1270 3.20593   3
   5   0   1 47.3232 3.36238   4
   5   0   1 47.9269 2.82472   2
   5   0   1 47.4516 3.02489   7
   6   0   1 84.4915 4.69965   9
   6   0   1 93.7798 5.27441   7
   6   0   1 83.8062 4.79806  11
   6   0   1 83.1688 4.91938  18
   6   0   1 88.3112 5.43177   3
   6   0   1 89.4004 5.69967   4
   6   0   1 83.0784 4.71311  10
   6   0   1 87.6864 4.74284  16
   6   0   1 96.4225 5.04534   2
   7   0   1 36.0947 2.14349   9
   7   0   1 38.6907 2.53109   2
   7   0   1 38.3723 2.16391  10
   7   0   1 37.3450 2.26400  17
   7   0   1 39.7063 2.34189  11
   7   0   1 34.6669 2.97211   3
   7   0   1 40.7942 3.32655   4
   7   0   1 38.0353 2.48034  18
   7   0   1 39.0294 2.74812   7
   8   0   1 142.964 8.62759   2
   8   0   1 166.416 8.58016  11
   8   0   1 158.844 8.34925   9
   8   0   1 153.788 8.48169  17
   8   0   1 149.743 9.11598   7
   8   0   1 162.548 8.70780  18
   8   0   1 158.970 8.39544  10
   9   0   1 11.1175 0.86617  10
   9   0   1 12.4017 1.15741  18
   9   0   1 10.8761 0.96881  17
   9   0   1 11.2772 1.02506  11
  10   0   1 54.4071 2.94855  10
  10   0   1 50.4056 3.19712  18
  10   0   1 56.0376 3.13935  11
  11   0   1 170.061 9.18848  18
  10  -1  -1 21.7753 1.19998  10
  10  -1  -1 22.5051 1.67803  18
   9  -1  -1 15.2365 1.25048  11
   9  -1  -1 14.7530 0.97089  10
   9  -1  -1 16.5698 1.54362  18
   9  -1  -1 15.5321 1.16882  17
   8  -1  -1 27.4303 1.61925  10
   8  -1  -1 25.9748 1.79978  17
   8  -1  -1 29.3347 2.14678  18
   8  -1  -1 27.5982 1.84818  11
   7  -1  -1 39.3462 2.43878   2
   7  -1  -1 38.2704 2.15849   9
   7  -1  -1 40.4858 2.93893   7
   7  -1  -1 39.9830 2.29514  16
   7  -1  -1 35.9856 2.71872   3
   7  -1  -1 41.2445 2.38758  17
   7  -1  -1 39.4565 2.22262  10
   7  -1  -1 40.7582 2.63694  18
   7  -1  -1 39.2119 2.39973  11
   6  -1  -1 19.0757 1.33952   2
   6  -1  -1 16.9535 1.03518   9
   6  -1  -1 18.0616 1.20047  16
   6  -1  -1 17.4346 1.21903  17
   6  -1  -1 17.3128 1.24104  11
   6  -1  -1 16.2014 1.84996   4
   6  -1  -1 17.0071 1.84948   3
   6  -1  -1 16.4200 1.04417  10
   6  -1  -1 18.5476 1.77841   7
   6  -1  -1 18.1087 1.40387  18
   5  -1  -1 9.97786 1.30463   4
   5  -1  -1 9.46531 1.14827   7
   5  -1  -1 9.25894 1.29456   3
   5  -1  -1 9.46729 0.87396   2
   4  -1  -1 3.22968 0.74113   3
   4  -1  -1 4.01470 0.48866   2
   4  -1  -1 3.65544 0.51901   1
   4  -1  -1 4.05657 0.81083   4
   4  -1  -1 5.03270 0.82270   3
   4  -1  -1 4.29199 0.71668   7
   4  -1  -1 5.01868 0.54788   2
   3  -1  -1 62.0426 3.78706   2
   3  -1  -1 61.8320 4.09634   4
   3  -1  -1 72.3311 3.79916   2
   3  -1  -1 70.7305 3.89904   1
   3  -1  -1 67.0861 4.03365   3
   3  -1  -1 68.3577 3.86809   1
   3  -1  -1 71.8263 4.00901   3
   3  -1  -1 74.2623 3.96120   7
  -3   1   1 69.6989 3.89213   1
  -3   1   1 73.2229 3.90417   1
   2  -1  -1 7551.42 394.694   3
   2  -1  -1 7804.53 394.698   7
   2  -1  -1 7697.69 395.182   6
   2  -1  -1 7468.30 394.135   1
   2  -1  -1 6825.44 395.146   4
   1  -1  -1 195.942 11.0412   5
   1  -1  -1 190.902 11.0176   4
   1  -1  -1 219.566 11.0214   3
   1  -1  -1 210.881 10.9718   1
   1  -1  -1 195.259 10.9421   2
   1  -1  -1 212.850 10.9750   1
   1  -1  -1 201.587 11.0047   3
   1  -1  -1 194.655 11.0148   7
   1  -1  -1 201.270 11.0708   6
   1  -1  -1 207.456 10.9421   2
  -1   1   1 227.775 10.9746   1
  -1   1   1 223.020 10.9899   1
   0  -1  -1 233.517 13.6783   2
   0  -1  -1 249.380 13.7202   3
   0  -1  -1 252.985 13.7575   6
   0  -1  -1 256.717 13.7534   5
   0  -1  -1 267.458 13.6951   2
   0  -1  -1 284.859 13.7323   1
   0  -1  -1 251.667 13.7685   3
   0  -1  -1 247.473 13.7200   1
   0   1   1 288.474 13.7184   1
   0   1   1 254.934 13.7351   1
  -1  -1  -1 92.6681 5.28322   5
  -1  -1  -1 98.9254 5.46338   3
  -1  -1  -1 96.6025 5.31184   2
  -1  -1  -1 104.447 5.36786   1
  -1  -1  -1 103.243 5.34915   1
   1   1   1 90.5919 5.35893   3
   1   1   1 92.2041 5.27834   2
   1   1   1 104.108 5.36815   1
   1   1   1 102.151 5.35827   1
  -2  -1  -1 645.595 36.5692   1
  -2  -1  -1 739.946 36.6072   1
  -2  -1  -1 645.814 36.5146   2
  -2  -1  -1 676.842 36.7297   3
   2   1   1 694.736 36.4846   2
   2   1   1 678.319 36.5730   1
   2   1   1 759.121 36.6063   1
   2   1   1 672.570 36.4723   7
   2   1   1 701.415 36.6178   3
  -3  -1  -1 434.477 22.1822   1
  -3  -1  -1 431.957 22.1570   1
  -3  -1  -1 387.123 22.3398   3
  -3  -1  -1 375.059 22.0541   2
   3   1   1 408.924 22.2283   3
   3   1   1 420.143 22.0410   7
   3   1   1 422.906 22.0179   2
   3   1   1 410.955 22.1314   1
   3   1   1 438.222 22.1724   1
  -4  -1  -1 1.71941 0.57071   1
  -4  -1  -1 1.66257 0.54359   1
   4   1   1 1.43298 0.59514   1
   4   1   1 1.09574 0.44889   2
   4   1   1 1.93800 0.72583   3
   4   1   1 1.66631 0.48433   7
   4   1   1 1.10781 0.40429   1
   5   1   1 227.905 12.9959   3
   5   1   1 229.699 13.0886   4
   5   1   1 233.467 12.7046   7
   5   1   1 240.684 12.6426   2
   6   1   1 15.7997 1.47171   7
   6   1   1 14.7267 1.33947   2
   6   1   1 13.5227 1.83186   3
   6   1   1 14.2788 1.87425   4
   7   1   1 1.15586 1.11344   4
   7   1   1 1.02328 0.18382   8
   7   1   1 0.75194 0.34019  10
   7   1   1 0.81212 0.66379   2
   7   1   1 0.96348 0.49167  18
   7   1   1 0.85317 0.72530   7
   7   1   1 0.50589 0.30667   9
   7   1   1 2.97870 1.32747   3
   8   1   1 4.22809 1.06324   7
   8   1   1 3.14627 0.44432   9
   8   1   1 3.28904 0.72449  18
   8   1   1 5.18461 1.49803   4
   8   1   1 4.09898 0.55286  11
   8   1   1 2.34373 0.47055  10
   8   1   1 3.79990 1.52870   3
   8   1   1 3.25166 1.04283   2
   9   1   1 1.01262 0.67629  18
   9   1   1 0.89883 0.30563   9
   9   1   1 0.86327 0.38949  10
   9   1   1 0.76689 0.55177  11
  10   1   1 2.73100 0.70771  18
  10   1   1 3.45073 0.47590  10
  10   1   1 4.62678 0.68381  11
  11   1   1 13.9194 1.12172  11
  11   1   1 18.5065 1.02440  10
  11   1   1 17.1565 1.18606  18
  10  -2  -1 10.7107 0.73098  17
  10  -2  -1 10.1867 0.94355  18
   9  -2  -1 16.2713 1.17131  17
   9  -2  -1 18.7799 1.44617  18
   8  -2  -1 5.71903 0.83834  18
   8  -2  -1 5.18050 0.44514  10
   8  -2  -1 4.89886 0.74350  17
   8  -2  -1 5.20787 0.69871  16
   8  -2  -1 4.49902 0.67667  11
   7  -2  -1 56.6811 3.14770  10
   7  -2  -1 58.2683 3.32645  17
   7  -2  -1 54.3842 3.36627  11
   7  -2  -1 57.9519 4.05124   7
   7  -2  -1 59.8496 3.55271  18
   7  -2  -1 59.7312 3.31071  16
   6  -2  -1 13.9906 0.88062  10
   6  -2  -1 13.4656 1.10977  11
   6  -2  -1 14.7400 1.10879  17
   6  -2  -1 11.9620 1.52969   7
   6  -2  -1 13.1186 1.06891  16
   6  -2  -1 15.5134 1.35362  18
   5  -2  -1 170.821 8.89214  17
   5  -2  -1 156.596 9.01082  18
   5  -2  -1 166.006 8.75451  10
   5  -2  -1 165.199 8.93621  15
   5  -2  -1 171.549 8.79779   2
   5  -2  -1 160.592 8.92923   3
   5  -2  -1 168.921 8.83538  16
   5  -2  -1 175.375 9.39547   7
   5  -2  -1 149.398 9.55134   4
   4  -2  -1 9.02665 1.04461   7
   4  -2  -1 8.44287 0.86392   3
   4  -2  -1 8.95034 1.17533   4
   4  -2  -1 8.66181 0.63685   2
   3  -2  -1 219.856 10.9834   7
   3  -2  -1 189.156 11.1246   4
   3  -2  -1 215.460 11.0760   6
   3  -2  -1 196.770 10.7297   1
   3  -2  -1 212.173 10.6736   2
   3  -2  -1 207.154 10.8157   3
  -3   2   1 174.713 10.7250   1
  -3   2   1 195.897 10.7299   1
   2  -2  -1 52.9192 2.79980   3
   2  -2  -1 51.5907 2.74199   1
   2  -2  -1 46.6515 2.71432   2
   2  -2  -1 46.3191 2.74560   1
   2  -2  -1 51.5889 2.70882   2
   2  -2  -1 46.7942 2.79033   3
   2  -2  -1 52.8763 3.05006   6
   2  -2  -1 49.2246 2.98389   5
   2  -2  -1 53.9796 3.08690   4
   2  -2  -1 53.1932 2.95130   7
  -2   2   1 53.9119 2.74229   1
  -2   2   1 48.6539 2.75847   1
   1  -2  -1 56.6823 2.92924   2
   1  -2  -1 51.7277 3.16660   4
   1  -2  -1 57.1083 2.97193   1
   1  -2  -1 56.8041 3.01599   3
   1  -2  -1 52.3496 3.07738   7
   1  -2  -1 56.2677 3.19402   6
   1  -2  -1 49.4190 3.17681   5
   1  -2  -1 51.8774 2.93602   2
   1  -2  -1 56.7272 2.97592   3
   1  -2  -1 56.2868 2.94609   1
  -1   2   1 54.8425 2.97080   1
  -1   2   1 58.1229 2.94569   1
   0  -2  -1 126.610 6.74638   3
   0  -2  -1 112.258 6.62578   7
   0  -2  -1 120.492 6.63849   2
   0  -2  -1 138.999 6.67165   1
   0  -2  -1 119.311 6.78513   6
   0  -2  -1 125.738 6.68243   1
   0  -2  -1 122.774 6.79564   5
   0  -2  -1 122.485 6.67187   3
   0  -2  -1 118.035 6.60549   2
   0   2   1 135.941 6.67789   1
   0   2   1 122.974 6.67406   1
  -1  -2  -1 144.658 7.98933   3
  -1  -2  -1 145.278 7.84388   2
  -1  -2  -1 142.205 7.88269   5
  -1  -2  -1 151.122 7.91168   1
   1   2   1 150.273 7.87076   1
   1   2   1 149.437 7.91625   1
   1   2   1 136.067 7.88094   3
  -2  -2  -1 720.612 36.9072   1
  -2  -2  -1 718.865 36.9301   1
  -2  -2  -1 658.022 36.8126   5
  -2  -2  -1 669.070 37.0594   3
  -2  -2  -1 689.452 36.8403   2
   2   2   1 672.774 36.7916   2
   2   2   1 653.429 36.9464   3
   2   2   1 766.914 36.9411   1
   2   2   1 713.458 36.9023   1
  -3  -2  -1 175.872 9.74867   5
  -3  -2  -1 183.728 9.96403   1
  -3  -2  -1 169.934 9.86432   2
  -3  -2  -1 185.921 10.2382   3
  -3  -2  -1 181.662 9.98384   1
   3   2   1 196.394 10.0019   1
   3   2   1 189.416 10.0937   3
   3   2   1 182.442 9.81535   2
   3   2   1 179.893 9.74759   7
   3   2   1 174.728 9.93802   1
  -4  -2  -1 271.625 15.7816   1
  -4  -2  -1 294.123 15.8405   1
  -4  -2  -1 266.286 15.6674   2
  -4  -2  -1 278.795 16.0890   3
   4   2   1 306.102 15.9464   3
   4   2   1 302.018 15.5768   7
   4   2   1 302.801 15.8354   1
   4   2   1 307.152 15.6207   2
   4   2   1 285.749 15.7601   1
   5   2   1 383.124 19.9959   2
   5   2   1 388.584 19.9778   7
   5   2   1 376.696 20.3996   3
   5   2   1 339.302 20.2267   1
   6   2   1 1056.82 54.6852   7
   6   2   1 1000.77 55.1906   3
   6   2   1 1030.68 54.6998   2
   7   2   1 43.0460 2.83296  18
   7   2   1 47.4992 2.68722  10
   7   2   1 48.3656 3.85463   3
   7   2   1 46.0004 2.56627   8
   7   2   1 48.3797 3.90244   4
   7   2   1 47.6265 2.67941   9
   7   2   1 49.3964 3.17256   7
   7   2   1 51.1674 3.21514   2
   8   2   1 6.84499 1.61723   3
   8   2   1 7.11683 0.76994  10
   8   2   1 8.08112 1.68333   4
   8   2   1 6.51518 1.01554   7
   8   2   1 7.15384 0.98001  18
   8   2   1 6.92404 0.51805   8
   8   2   1 7.66968 1.22488   2
   8   2   1 7.10779 0.75145   9
   9   2   1 80.8892 4.60541   9
   9   2   1 75.7700 5.86084   4
   9   2   1 84.8011 4.87699  18
   9   2   1 87.1853 4.64716  10
   9   2   1 88.1993 4.77032  11
  10   2   1 34.8753 2.39441  18
  10   2   1 39.9502 2.18660   9
  10   2   1 40.3048 2.35917  11
  10   2   1 37.7233 2.25394  10
  11   2   1 19.1976 1.36427  18
  11   2   1 20.8449 1.28753  10
  11   2   1 21.3683 1.44458  11
   9  -3  -1 1.80264 0.56713  18
   8  -3  -1 1.55377 0.60854  17
   8  -3  -1 2.37499 0.63995  18
   7  -3  -1 197.836 12.2445   7
   7  -3  -1 212.690 11.3513  10
   7  -3  -1 234.522 11.8230  18
   7  -3  -1 220.704 11.5382  16
   7  -3  -1 206.074 11.6198  11
   7  -3  -1 214.848 11.5918  17
   6  -3  -1 26.1743 2.28325   7
   6  -3  -1 27.0933 1.54311  10
   6  -3  -1 24.7137 1.76052  11
   6  -3  -1 29.7370 1.85365  17
   6  -3  -1 28.9317 1.95497  18
   6  -3  -1 29.8583 1.79173  16
   6  -3  -1 29.0139 1.89727  15
   5  -3  -1 7.36099 0.79348  17
   5  -3  -1 6.98170 0.75249  16
   5  -3  -1 8.59017 1.00056  15
   5  -3  -1 6.69429 0.97280  18
   5  -3  -1 6.92005 0.48424  10
   5  -3  -1 6.25292 1.14283   7
   5  -3  -1 8.06782 0.77382  14
   5  -3  -1 6.31370 0.80441  11
   4  -3  -1 1.77179 0.76575   4
   4  -3  -1 1.25760 0.70929   7
   3  -3  -1 98.6636 5.47481   6
   3  -3  -1 83.4854 5.52196   4
   3  -3  -1 97.4170 5.37556   7
   2  -3  -1 17.3627 1.44282   4
   2  -3  -1 16.3218 1.41645   5
   2  -3  -1 17.6021 1.43760   6
   2  -3  -1 18.2679 1.30689   7
   1  -3  -1 53.6942 3.22336   5
   1  -3  -1 53.9358 3.15572   6
   1  -3  -1 52.1897 3.19566   4
   1  -3  -1 49.8355 2.97694   7
   0  -3  -1 1451.54 83.5821   7
   0  -3  -1 1500.26 83.7131   3
   0  -3  -1 1552.99 84.0970   5
   0  -3  -1 1527.52 83.4208   1
   0  -3  -1 1576.15 83.3868   2
   0  -3  -1 1668.85 83.6520   1
   0  -3  -1 1619.14 83.9857   6
   0  -3  -1 1553.95 83.4890   2
   0  -3  -1 1634.55 84.1057   3
   0   3   1 1659.60 83.7946   1
   0   3   1 1607.05 83.8565   1
  -1  -3  -1 253.133 14.6564   3
  -1  -3  -1 285.566 14.6076   1
  -1  -3  -1 243.764 14.4995   2
  -1  -3  -1 281.734 14.6809   1
  -1  -3  -1 280.319 14.7467   3
  -1  -3  -1 259.325 14.7289   6
  -1  -3  -1 273.537 14.5949   2
  -1  -3  -1 287.443 14.7576   5
   1   3   1 289.567 14.6141   1
   1   3   1 277.559 14.6810   1
  -2  -3  -1 5.13903 0.65384   1
  -2  -3  -1 5.35632 0.93267   3
  -2  -3  -1 7.09140 0.79485   5
  -2  -3  -1 4.38248 0.69483   1
  -2  -3  -1 5.33757 0.69024   2
   2   3   1 4.75071 0.64394   1
   2   3   1 4.20291 0.56810   2
   2   3   1 4.55710 0.72402   1
   2   3   1 5.16319 0.78497   3
  -3  -3  -1 463.597 25.6246   1
  -3  -3  -1 480.424 25.9016   3
  -3  -3  -1 489.688 25.6923   1
  -3  -3  -1 490.642 25.5649   2
  -3  -3  -1 466.931 25.5117   5
   3   3   1 482.274 25.6266   1
   3   3   1 460.419 25.4764   2
   3   3   1 469.299 25.7507   3
   3   3   1 507.684 25.6948   1
  -4  -3  -1 328.233 17.5995   1
  -4  -3  -1 291.860 17.4978   1
  -4  -3  -1 332.206 17.4405   2
  -4  -3  -1 313.521 17.2454   5
  -4  -3  -1 331.353 17.9039   3
   4   3   1 307.372 17.1723   7
   4   3   1 302.278 17.4748   1
   4   3   1 347.267 17.7269   3
   4   3   1 337.449 17.5957   1
   4   3   1 336.688 17.3469   2
   5   3   1 319.638 18.0072   1
   5   3   1 317.824 17.5453   7
   5   3   1 330.613 18.1642   3
   5   3   1 343.268 17.7180   2
   6   3   1 91.7707 5.28105   7
   6   3   1 91.7223 5.42676   2
   6   3   1 91.7645 6.11312   3
   7   3   1 82.2840 4.24896   8
   7   3   1 75.1668 4.34549   9
   7   3   1 71.3818 4.43679  18
   7   3   1 84.7971 5.67337   3
   7   3   1 86.0077 4.94713   2
   7   3   1 78.6802 4.72077   7
   8   3   1 29.0974 3.60987   3
   8   3   1 31.6707 2.64684   2
   8   3   1 31.0065 3.10753   4
   8   3   1 33.7473 1.81403   8
   8   3   1 32.4233 1.96997   9
   8   3   1 32.5490 2.11006  18
   8   3   1 30.7017 1.96563  10
   9   3   1 52.7987 2.79553   8
   9   3   1 51.8061 4.60934   4
   9   3   1 48.7209 3.13882  18
   9   3   1 51.3457 2.98263  10
   9   3   1 52.7751 2.97722   9
  10   3   1 59.8901 3.29031  11
  10   3   1 56.7017 3.17099  10
  10   3   1 49.1921 3.29365  18
  10   3   1 56.0474 3.13414   9
  11   3   1 101.776 5.46710  10
  11   3   1 99.1850 5.52540  11
  12   3   1 13.9753 0.93391  11
   9  -4  -1 2.29992 0.47364  18
   8  -4  -1 110.562 6.13950  17
   8  -4  -1 114.214 6.32721  18
   7  -4  -1 110.359 6.19911  18
   7  -4  -1 108.466 5.98476  17
   7  -4  -1 105.205 5.91790  16
   6  -4  -1 326.462 19.7118   7
   6  -4  -1 319.150 19.2093  11
   6  -4  -1 380.216 19.2869  15
   6  -4  -1 372.537 19.4029  18
   6  -4  -1 375.347 19.2216  17
   6  -4  -1 379.459 19.1357  16
   5  -4  -1 3.01563 0.57831  11
   5  -4  -1 4.57616 0.63067  14
   5  -4  -1 4.53959 0.65718  18
   5  -4  -1 3.56939 0.53629  16
   5  -4  -1 4.03259 0.61168  17
   5  -4  -1 4.17140 0.73095  15
   5  -4  -1 3.15076 0.96517   7
   4  -4  -1 28.1007 1.71833  17
   4  -4  -1 27.8871 2.20826   7
   4  -4  -1 29.7381 1.86907  18
   4  -4  -1 29.0925 1.69702  16
   4  -4  -1 24.3025 1.73113  11
   4  -4  -1 27.7330 1.83832  14
   4  -4  -1 29.6626 1.86252  15
   3  -4  -1 306.961 15.9642   6
   3  -4  -1 267.889 16.0782   4
   3  -4  -1 297.557 15.8433   7
   2  -4  -1 156.790 9.16069   4
   2  -4  -1 159.156 8.89256   7
   2  -4  -1 163.387 9.14656   5
   2  -4  -1 166.359 9.05806   6
   1  -4  -1 23.6621 1.64987   7
   1  -4  -1 23.7836 1.89095   4
   1  -4  -1 26.9895 1.87118   6
   1  -4  -1 26.5369 2.00701   5
   0  -4  -1 486.910 24.4930   3
   0  -4  -1 468.049 24.7615   6
   0  -4  -1 471.952 24.8481   5
   0  -4  -1 407.137 24.4538   7
   0  -4  -1 446.545 24.4589   1
   0  -4  -1 467.841 24.3766   2
   0  -4  -1 469.012 24.4250   1
   0  -4  -1 438.864 24.4465   3
   0  -4  -1 471.858 24.4136   2
   0   4   1 488.127 24.4273   1
   0   4   1 460.646 24.4431   1
  -1  -4  -1 99.4088 5.61045   1
  -1  -4  -1 86.9612 5.67625   3
  -1  -4  -1 105.404 5.77819   3
  -1  -4  -1 93.8355 5.51009   2
  -1  -4  -1 110.197 5.91574   5
  -1  -4  -1 102.108 5.72686   1
  -1  -4  -1 103.067 5.85550   6
  -1  -4  -1 109.221 5.64738   2
   1   4   1 99.9278 5.72404   1
   1   4   1 107.271 5.61713   1
  -2  -4  -1 218.379 12.3944   1
  -2  -4  -1 235.522 12.6250   3
  -2  -4  -1 245.906 12.5524   5
  -2  -4  -1 208.165 12.5989   3
  -2  -4  -1 234.482 12.5291   1
  -2  -4  -1 221.733 12.6022   6
  -2  -4  -1 239.056 12.4001   2
   2   4   1 221.580 12.3843   1
   2   4   1 234.152 12.5343   1
  -3  -4  -1 42.7735 2.72809   5
  -3  -4  -1 45.1425 2.72647   2
  -3  -4  -1 44.8889 3.09104   3
  -3  -4  -1 41.0443 2.81611   1
  -3  -4  -1 39.1642 2.69921   1
   3   4   1 42.8905 2.84420   1
   3   4   1 42.1653 2.72253   1
  -4  -4  -1 534.450 29.3459   1
  -4  -4  -1 602.458 29.6835   3
  -4  -4  -1 585.882 29.1958   2
  -4  -4  -1 558.551 29.0856   5
  -4  -4  -1 499.306 29.2244   1
   4   4   1 486.869 29.1770   1
  -5  -4  -1 357.426 19.8393   3
  -5  -4  -1 354.686 19.2845   2
   5   4   1 350.070 19.6611   3
   5   4   1 354.392 19.1625   2
   6   4   1 -0.8819 0.97969   3
   6   4   1 -0.0995 0.67195   2
   7   4   1 32.6713 2.56339   2
   7   4   1 24.8723 3.08275   3
   7   4   1 27.8390 1.62803   8
   8   4   1 463.631 26.6396   3
   8   4   1 466.514 25.1869   9
   8   4   1 491.081 25.0753   8
   9   4   1 6.74202 0.57778   8
   9   4   1 5.74829 0.73797   9
   9   4   1 7.13594 1.85492   4
  10   4   1 12.2001 0.74888   8
  10   4   1 12.7972 1.09803   9
  11   4   1 1.49899 0.50934  10
  11   4   1 1.62664 0.41269   9
  12   4   1 125.878 6.77898  11
   8  -5  -1 205.623 10.8656  18
   8  -5  -1 195.473 10.7251  17
   7  -5  -1 5.90374 0.69207  16
   7  -5  -1 7.14549 0.86235  17
   7  -5  -1 6.46272 0.87165  18
   6  -5  -1 45.2788 2.83190  18
   6  -5  -1 45.0576 2.65841  17
   6  -5  -1 44.2682 2.82104  15
   6  -5  -1 44.3717 2.63768  16
   5  -5  -1 424.409 26.2549  11
   5  -5  -1 483.919 26.2923  14
   5  -5  -1 518.264 26.1803  16
   5  -5  -1 514.133 26.3185  15
   5  -5  -1 449.683 26.7103   7
   5  -5  -1 540.638 26.4459  18
   5  -5  -1 520.175 26.2648  17
   4  -5  -1 202.191 10.3187  15
   4  -5  -1 190.825 10.3098  14
   4  -5  -1 208.248 10.2605  17
   4  -5  -1 182.113 10.6520   7
   4  -5  -1 171.820 10.2700  11
   4  -5  -1 195.743 10.3914  18
   4  -5  -1 170.037 10.1927  13
   4  -5  -1 195.392 10.1627  16
   3  -5  -1 12.3118 1.06576  11
   3  -5  -1 14.9211 1.57331   6
   3  -5  -1 13.9817 1.21657  18
   3  -5  -1 12.6897 0.94397  12
   3  -5  -1 13.5689 1.15687  14
   3  -5  -1 11.8119 1.32699   7
   3  -5  -1 13.5633 0.89565  16
   3  -5  -1 12.9914 1.11325  15
   3  -5  -1 12.6568 1.03159  13
   3  -5  -1 13.1757 1.01097  17
   2  -5  -1 43.0931 2.75149   7
   2  -5  -1 46.0926 2.99754   6
   2  -5  -1 41.8146 3.09633   4
   2  -5  -1 42.5050 3.12065   5
   1  -5  -1 505.853 28.9183   7
   1  -5  -1 562.855 29.4382   5
   1  -5  -1 563.400 29.2203   6
   0  -5  -1 362.175 19.9731   2
   0  -5  -1 402.504 20.5669   6
   0  -5  -1 418.448 20.7672   5
   0  -5  -1 327.157 19.9863   1
   0  -5  -1 404.028 19.9852   2
   0  -5  -1 365.506 19.9838   3
  -1  -5  -1 97.3977 5.49678   1
  -1  -5  -1 105.714 5.67125   3
  -1  -5  -1 85.2016 5.58148   3
  -1  -5  -1 104.515 5.87868   6
  -1  -5  -1 104.958 5.54260   2
  -1  -5  -1 106.220 5.96882   5
  -1  -5  -1 91.7504 5.38556   2
  -2  -5  -1 95.9123 5.57051   2
  -2  -5  -1 98.6561 5.78794   5
  -2  -5  -1 97.9725 5.76359   3
  -2  -5  -1 97.6702 5.85342   6
  -3  -5  -1 176.328 9.81491   2
  -3  -5  -1 174.280 10.1024   3
  -3  -5  -1 179.407 9.93393   5
  -4  -5  -1 759.583 41.2967   3
  -4  -5  -1 775.713 40.8973   2
  -4  -5  -1 761.279 40.8909   5
  -5  -5  -1 144.328 9.03346   3
  -5  -5  -1 151.194 8.53480   2
   7   5   1 0.10508 0.29964   8
   8   5   1 14.1942 0.97494   8
   9   5   1 376.628 19.3044   9
   9   5   1 344.363 19.0667   8
  10   5   1 291.002 15.8938   9
  10   5   1 303.960 15.7512   8
  11   5   1 2.81862 0.58656  11
  12   5   1 30.7478 1.79911  11
   7  -6  -1 8.87762 0.73896  17
   7  -6  -1 8.65473 1.01266  18
   6  -6  -1 0.00235 0.53067  17
   6  -6  -1 0.07867 0.43915  18
   6  -6  -1 0.07500 0.33162  16
   5  -6  -1 3.73484 0.55109  17
   5  -6  -1 1.95300 0.53147  16
   5  -6  -1 3.06743 0.77546  18
   5  -6  -1 3.92946 0.63439  14
   5  -6  -1 2.05127 0.73178  15
   4  -6  -1 211.957 11.0408  18
   4  -6  -1 196.745 10.8257  13
   4  -6  -1 208.907 10.9232  15
   4  -6  -1 207.426 10.7629  16
   4  -6  -1 185.441 10.7713  12
   4  -6  -1 211.541 10.8338  17
   4  -6  -1 179.579 10.8702  11
   4  -6  -1 204.658 10.9341  14
   3  -6  -1 7.89622 1.07968  18
   3  -6  -1 8.07413 1.04966  14
   3  -6  -1 8.06279 0.80291  12
   3  -6  -1 9.19723 0.94978  11
   3  -6  -1 6.81205 1.29915   6
   3  -6  -1 8.14853 0.92287  13
   3  -6  -1 10.3859 1.02568  15
   3  -6  -1 8.13364 0.78694  16
   3  -6  -1 8.52640 0.86259  17
   2  -6  -1 9.37911 0.88495  11
   2  -6  -1 8.84560 0.80346  17
   2  -6  -1 8.88675 0.75558  16
   2  -6  -1 9.05095 0.99808  18
   2  -6  -1 10.0616 0.83317  12
   2  -6  -1 8.97363 1.28048   6
   2  -6  -1 7.75104 1.39612   5
   2  -6  -1 9.89987 0.93088  13
   2  -6  -1 10.5897 0.96633  15
   2  -6  -1 9.25646 0.91094  14
   1  -6  -1 37.4030 2.29677  11
   1  -6  -1 39.4118 2.27091  16
   1  -6  -1 41.9543 2.35347  13
   1  -6  -1 41.7278 2.47334  14
   1  -6  -1 40.6723 2.83543   6
   1  -6  -1 34.1421 2.08079  10
   1  -6  -1 43.0770 3.16760   5
   1  -6  -1 39.9885 2.28485  12
   1  -6  -1 39.6067 2.31407  15
   0  -6  -1 23.5222 1.64858  14
   0  -6  -1 24.1650 1.48430  13
   0  -6  -1 22.3883 1.50268  12
   0  -6  -1 22.7037 1.97732   6
   0  -6  -1 27.2497 2.31121   5
  -1  -6  -1 21.4236 1.53445   3
  -1  -6  -1 20.7062 1.94911   6
  -1  -6  -1 19.7728 1.41173   2
  -1  -6  -1 21.3618 1.92924   5
  -2  -6  -1 221.875 12.0067   3
  -2  -6  -1 221.312 12.2366   5
  -2  -6  -1 210.990 12.1738   6
  -2  -6  -1 207.800 11.8234   2
  -3  -6  -1 729.662 38.3553   2
  -3  -6  -1 717.511 38.5686   5
  -3  -6  -1 701.291 38.6750   6
  -3  -6  -1 719.255 38.6066   3
  -4  -6  -1 2.09000 0.83530   2
  -4  -6  -1 2.35479 0.80661   5
  -4  -6  -1 2.37070 1.08786   3
  -4  -6  -1 2.07425 1.03972   6
  -5  -6  -1 70.2954 3.99959   8
  -5  -6  -1 76.3586 4.74750   2
  -5  -6  -1 74.8699 4.59622   5
  -5  -6  -1 71.0884 5.19573   3
  -6  -6  -1 2.58883 0.47192   8
  -6  -6  -1 2.47306 1.44970   3
  -7  -6  -1 19.6221 1.38466   8
   8   6   1 21.8616 1.38070   8
   9   6   1 8.32435 0.73066   8
  10   6   1 21.2784 1.30049   8
   6  -7  -1 104.657 5.54390  17
   6  -7  -1 94.8965 5.62776  18
   6  -7  -1 105.979 5.50944  16
   5  -7  -1 11.8964 1.14226  15
   5  -7  -1 12.2397 1.05400  18
   5  -7  -1 10.9067 0.98611  16
   5  -7  -1 11.4789 0.89626  17
   4  -7  -1 19.2525 1.49573  15
   4  -7  -1 17.9437 1.19689  17
   4  -7  -1 16.7722 1.21940  12
   4  -7  -1 17.5397 1.25699  16
   4  -7  -1 15.9506 1.29314  13
   4  -7  -1 18.0779 1.50866  18
   4  -7  -1 18.7841 1.46485  14
   4  -7  -1 15.1403 1.34887  11
   3  -7  -1 86.3491 4.46292  16
   3  -7  -1 83.4032 4.70304  14
   3  -7  -1 73.3290 4.69666  18
   3  -7  -1 88.6033 4.66972  15
   3  -7  -1 73.9785 4.59881  11
   3  -7  -1 78.6316 4.51536  12
   3  -7  -1 78.9920 4.50760  17
   3  -7  -1 83.9292 4.60708  13
   2  -7  -1 1.04301 0.41391  12
   2  -7  -1 0.08339 0.46199  15
   2  -7  -1 0.50132 0.60524  14
   2  -7  -1 0.27203 0.31784  11
   2  -7  -1 0.81448 0.35325  16
   2  -7  -1 0.19951 0.48020  13
   1  -7  -1 34.5762 2.16394  15
   1  -7  -1 36.6042 2.31364  14
   1  -7  -1 36.0483 2.10846  12
   1  -7  -1 35.1150 3.06877   5
   1  -7  -1 34.0666 2.16481  11
   1  -7  -1 32.3166 2.00048  16
   1  -7  -1 36.8510 2.19644  13
   1  -7  -1 30.3546 2.64205   6
   0  -7  -1 66.6330 3.74142  15
   0  -7  -1 70.2691 4.73571   5
   0  -7  -1 67.0512 3.88522  14
   0  -7  -1 63.2985 3.52960  10
   0  -7  -1 69.1824 3.75649  13
   0  -7  -1 58.9284 4.24261   6
   0  -7  -1 66.1848 3.67206  12
   0  -7  -1 63.8369 3.71829  11
  -1  -7  -1 235.234 12.5541  12
  -1  -7  -1 236.085 12.7080  14
  -1  -7  -1 232.116 12.4622  10
  -1  -7  -1 230.726 12.6296  15
  -1  -7  -1 235.476 12.5892  13
  -1  -7  -1 243.971 13.5594   5
  -1  -7  -1 230.402 13.2422   6
  -2  -7  -1 1.86977 0.35679   9
  -2  -7  -1 1.65125 0.98358   6
  -2  -7  -1 2.02994 0.47770  15
  -2  -7  -1 1.37399 0.94352   5
  -2  -7  -1 1.64873 0.30199  10
  -2  -7  -1 1.16813 0.62134   2
  -2  -7  -1 2.16530 0.84094   3
  -2  -7  -1 1.07786 0.53484  14
  -2  -7  -1 1.56285 0.38051  12
  -2  -7  -1 1.60305 0.39914  13
  -3  -7  -1 86.6681 5.50977   6
  -3  -7  -1 79.1779 4.53868   9
  -3  -7  -1 75.9222 4.53720  13
  -3  -7  -1 80.9385 4.49923  10
  -3  -7  -1 84.0080 4.70348  14
  -3  -7  -1 85.2907 5.32858   3
  -3  -7  -1 85.8998 5.37374   5
  -3  -7  -1 86.3335 5.07916   2
  -3  -7  -1 83.3806 4.67641  15
  -4  -7  -1 11.4055 1.65621   2
  -4  -7  -1 11.2748 0.87303  10
  -4  -7  -1 9.75287 1.69896   3
  -4  -7  -1 12.2494 1.08639   9
  -4  -7  -1 11.2945 1.44136   5
  -4  -7  -1 9.92824 0.77996   8
  -4  -7  -1 10.6333 1.81827   6
  -4  -7  -1 10.9488 1.12521  14
  -5  -7  -1 1005.58 54.7434   9
  -5  -7  -1 1058.09 55.4837   2
  -5  -7  -1 999.279 54.6762  10
  -5  -7  -1 1030.99 55.8776   3
  -5  -7  -1 1057.08 55.4712   5
  -5  -7  -1 1062.21 55.9963   6
  -5  -7  -1 1042.75 54.6283   8
  -5  -7  -1 1030.03 54.8287  14
  -6  -7  -1 7.47467 0.86077   9
  -6  -7  -1 6.06284 1.47409   2
  -6  -7  -1 8.81740 2.05905   3
  -6  -7  -1 9.10600 0.83719   8
  -7  -7  -1 54.7028 3.13561   8
  -8  -7  -1 1.92048 0.55784   8
  -9  -7  -1 2.59919 0.58005   8
   9   7   1 2.74193 0.44442   8
 -10  -7  -1 29.7083 1.83086   8
  10   7   1 28.3979 1.70202   8
   5  -8  -1 3.17308 0.44992  17
   5  -8  -1 1.82103 0.29911  16
   4  -8  -1 1.73613 0.53786  13
   4  -8  -1 4.49932 0.57731  15
   4  -8  -1 3.56375 0.72138  14
   4  -8  -1 2.35041 0.45921  16
   4  -8  -1 3.16821 0.43483  17
   3  -8  -1 133.725 7.07833  13
   3  -8  -1 133.135 7.08081  15
   3  -8  -1 111.971 7.08640  11
   3  -8  -1 127.109 6.98514  12
   3  -8  -1 127.536 6.94118  16
   3  -8  -1 136.960 7.17035  14
   2  -8  -1 570.118 29.9458  15
   2  -8  -1 532.827 29.7916  16
   2  -8  -1 586.508 30.0300  14
   2  -8  -1 560.914 29.8820  12
   2  -8  -1 534.933 29.9423  11
   2  -8  -1 593.278 29.9584  13
   1  -8  -1 84.4962 4.64620  15
   1  -8  -1 82.1455 4.74352  14
   1  -8  -1 82.6638 4.64194  13
   1  -8  -1 79.1814 4.65643  11
   1  -8  -1 80.9448 4.59265  12
   0  -8  -1 9.89528 0.87061  12
   0  -8  -1 7.66388 0.98633  13
   0  -8  -1 8.38366 0.97630  14
   0  -8  -1 7.31799 1.44571   5
   0  -8  -1 6.23647 0.39972  10
   0  -8  -1 8.31710 0.78748  15
  -1  -8  -1 -0.1633 0.62765  14
  -1  -8  -1 0.64873 1.09426   5
  -1  -8  -1 0.06263 0.88686   6
  -1  -8  -1 0.99127 0.31654  12
  -1  -8  -1 0.79972 0.35689  13
  -1  -8  -1 0.74236 0.46818  15
  -1  -8  -1 0.31101 0.26511  10
  -2  -8  -1 128.964 6.83744  15
  -2  -8  -1 118.015 7.71925   5
  -2  -8  -1 129.119 6.71960  12
  -2  -8  -1 117.928 6.67393   2
  -2  -8  -1 125.550 6.75541  13
  -2  -8  -1 122.495 6.52874   9
  -2  -8  -1 117.556 7.58757   6
  -2  -8  -1 127.405 6.94071  14
  -2  -8  -1 118.115 6.75003   3
  -2  -8  -1 121.883 6.63515  10
  -3  -8  -1 2.50166 0.69544  14
  -3  -8  -1 3.61951 0.62502  15
  -3  -8  -1 3.81265 0.46395  10
  -3  -8  -1 2.65292 1.26119   6
  -3  -8  -1 2.34764 0.87789   2
  -3  -8  -1 3.64841 0.45320   9
  -3  -8  -1 2.30210 0.94258   5
  -3  -8  -1 2.55592 0.51527  13
  -3  -8  -1 2.51587 0.98413   3
  -4  -8  -1 13.8117 1.01851  10
  -4  -8  -1 13.5157 1.14363  15
  -4  -8  -1 11.9370 1.61341   2
  -4  -8  -1 11.7341 1.98515   6
  -4  -8  -1 13.3359 1.32790  14
  -4  -8  -1 13.1161 1.72341   5
  -4  -8  -1 13.9909 1.11760   9
  -4  -8  -1 13.9993 1.91929   3
  -5  -8  -1 145.448 7.53505   8
  -5  -8  -1 128.496 8.50115   5
  -5  -8  -1 141.731 7.72778   9
  -5  -8  -1 142.928 8.93245   6
  -5  -8  -1 140.621 8.52777   2
  -5  -8  -1 143.044 7.65858  10
  -5  -8  -1 142.399 7.82454  14
  -6  -8  -1 5.92796 1.71445   2
  -6  -8  -1 7.38164 0.76978  10
  -6  -8  -1 8.18959 1.02296  14
  -6  -8  -1 7.53007 0.73914   8
  -6  -8  -1 8.07367 0.90103   9
  -6  -8  -1 7.03493 1.96824   6
  -7  -8  -1 24.6214 1.59539   8
  -7  -8  -1 24.7914 1.82539   9
  -8  -8  -1 14.3148 1.40486   9
  -8  -8  -1 15.5761 1.19891   8
  10   8   1 1.41531 0.38807   8
   4  -9  -1 69.3552 3.83949  15
   3  -9  -1 2.20886 0.58540  15
   3  -9  -1 1.47584 0.41076  13
   3  -9  -1 1.66441 0.64499  14
   2  -9  -1 7.59714 0.80289  15
   2  -9  -1 6.43599 0.83520  13
   2  -9  -1 7.31956 0.87726  14
   1  -9  -1 16.9349 1.29425  13
   1  -9  -1 17.0177 1.56717  14
   1  -9  -1 16.2617 1.36390  15
   1  -9  -1 16.4237 1.30749  12
   0  -9  -1 389.816 21.4267  15
   0  -9  -1 412.367 21.4406  13
   0  -9  -1 404.855 21.5447  14
   0  -9  -1 397.389 21.3705  12
  -1  -9  -1 6.22336 0.79511  13
  -1  -9  -1 6.32130 0.87628  14
  -1  -9  -1 6.48585 0.46930  10
  -1  -9  -1 5.90496 0.77583  15
  -2  -9  -1 -0.3634 1.21611   5
  -2  -9  -1 0.64961 0.54523  15
  -2  -9  -1 1.34324 0.58625  14
  -2  -9  -1 0.74090 0.50823  13
  -2  -9  -1 1.10156 0.37795  10
  -3  -9  -1 507.804 26.8055  13
  -3  -9  -1 525.163 26.7377  10
  -3  -9  -1 522.788 26.9168  15
  -3  -9  -1 536.991 27.0271  14
  -3  -9  -1 466.480 27.9444   5
  -3  -9  -1 447.173 27.7095   6
  -3  -9  -1 513.812 26.6014   9
  -4  -9  -1 58.6945 3.27574   9
  -4  -9  -1 59.5939 3.54226  14
  -4  -9  -1 49.5905 4.23200   5
  -4  -9  -1 58.8772 3.31979  10
  -4  -9  -1 61.8566 3.54702  15
  -4  -9  -1 55.2728 4.39209   6
  -5  -9  -1 9.29723 0.92048  10
  -5  -9  -1 8.52047 1.14840  15
  -5  -9  -1 8.25631 1.02094  14
  -5  -9  -1 8.58674 0.97538   9
  -5  -9  -1 7.58468 1.98663   6
  -6  -9  -1 142.292 7.93024  10
  -6  -9  -1 152.067 7.99560   9
  -6  -9  -1 143.370 8.07208  14
  -6  -9  -1 144.374 8.08344  15
  -7  -9  -1 -0.3111 0.59778   9
  -7  -9  -1 0.11245 0.36290   8
  -8  -9  -1 7.85059 0.92128   9
 -10  -9  -1 0.64151 0.32626   8
  10   9   1 0.66177 0.24327   8
   3 -10  -1 40.7487 2.35562  14
   2 -10  -1 6.45582 0.76840  15
   2 -10  -1 8.06911 0.94656  14
   1 -10  -1 3.93766 0.63793  15
   1 -10  -1 4.38304 0.72231  13
   1 -10  -1 4.97686 0.69817  14
   0 -10  -1 68.5760 4.03087  13
   0 -10  -1 73.2279 4.21347  14
   0 -10  -1 70.8879 4.06268  15
  -1 -10  -1 2.14647 0.47774  15
  -1 -10  -1 2.81883 0.53159  13
  -1 -10  -1 2.67120 0.66980  14
  -2 -10  -1 4.04509 0.41722  10
  -2 -10  -1 4.55250 0.94661  14
  -2 -10  -1 3.23127 0.69880  13
  -2 -10  -1 4.18743 0.58996  15
  -3 -10  -1 27.2969 2.13690  14
  -3 -10  -1 29.1359 1.93941  15
  -3 -10  -1 26.9601 1.64972  10
  -3 -10  -1 26.2259 1.74010  13
  -4 -10  -1 246.970 13.3182  15
  -4 -10  -1 239.830 13.1610  10
  -4 -10  -1 251.913 13.4289  14
  -5 -10  -1 0.75374 0.71907  14
  -5 -10  -1 1.03128 0.59566  15
  -5 -10  -1 0.00470 0.49290  10
  -6 -10  -1 0.88771 0.46513  14
  -6 -10  -1 0.65188 0.43365  15
  -6 -10  -1 1.31524 0.54177  10
  -7 -10  -1 2.76148 0.49352  10
  -7 -10  -1 1.13501 0.64082  15
  -8 -10  -1 401.403 20.9667   9
  -8 -10  -1 386.112 21.0817  15
  -9 -10  -1 1.61935 0.47224  15
  -9 -10  -1 2.02507 0.44690   9
 -10 -10  -1 4.11896 0.55385  15
   1 -11  -1 23.4816 1.49524  14
   0 -11  -1 33.9186 2.06128  14
   0 -11  -1 28.8008 1.83438  15
  -1 -11  -1 168.579 9.28674  15
  -1 -11  -1 150.212 9.26622  13
  -1 -11  -1 198.698 9.44269  14
  -2 -11  -1 10.8806 0.89796  15
  -2 -11  -1 11.0928 1.26219  14
  -3 -11  -1 5.58377 0.38550  10
  -3 -11  -1 7.44812 0.91091  14
  -3 -11  -1 6.79669 0.65724  13
  -3 -11  -1 7.40347 0.86105  15
  -4 -11  -1 31.6998 1.96100  10
  -4 -11  -1 35.2435 2.13146  15
  -4 -11  -1 36.5552 2.33568  14
  -5 -11  -1 87.1770 5.44419  14
  -5 -11  -1 99.3465 5.31098  10
  -5 -11  -1 105.961 5.47987  15
  -6 -11  -1 36.3387 2.20238  15
  -6 -11  -1 33.9917 2.23365  14
  -6 -11  -1 36.5100 2.10627  10
  -7 -11  -1 55.0631 3.06734  10
  -7 -11  -1 53.3422 2.94415   9
  -8 -11  -1 0.99314 0.36294  15
  -8 -11  -1 1.39877 0.37011  10
  -8 -11  -1 0.99131 0.29384   9
  -2 -12  -1 15.8360 1.15358  14
  -3 -12  -1 300.468 16.0654  14
  -4 -12  -1 2.67434 0.42827  15
  -4 -12  -1 1.13572 0.40867  14
  -5 -12  -1 0.24890 0.34184  14
  -5 -12  -1 0.28232 0.24015  15
  -5 -12  -1 0.19107 0.12914  10
  -6 -12  -1 82.1145 4.41510  10
  -7 -11   2 4.58782 0.55963  14
  -7 -11   2 5.62884 0.55993  10
  -6 -11   2 4.25894 0.55190  10
  -6 -11   2 5.00615 0.65299  14
  -5 -11   2 146.881 7.99192  10
  -5 -11   2 151.854 8.22187  14
  -4 -11   2 18.7808 1.42670  14
  -4 -11   2 18.4507 1.12942  10
  -3 -11   2 3.14918 0.59885  14
  -3 -11   2 2.19434 0.36620  13
  -2 -11   2 94.3637 4.90207  14
  -2 -11   2 79.1703 4.75141  13
  -1 -11   2 18.8792 1.23159  13
  -1 -11   2 17.2922 1.29178  14
   0 -11   2 16.1338 1.06658  13
  -9 -10   2 63.8052 3.52887   9
  -8 -10   2 3.89689 0.60967   9
  -7 -10   2 63.5387 3.62716  14
  -7 -10   2 64.5228 3.47104   9
  -7 -10   2 53.0974 3.44579  15
  -7 -10   2 63.0757 3.44125  10
  -6 -10   2 44.6054 2.90574  15
  -6 -10   2 54.6353 3.14639  14
  -6 -10   2 53.9390 2.89935   9
  -6 -10   2 51.1558 2.91346  10
  -5 -10   2 69.3726 4.16062  14
  -5 -10   2 71.2238 3.94334  10
  -5 -10   2 70.0578 3.79945   9
  -4 -10   2 1.27852 0.57600  14
  -4 -10   2 0.91396 0.40599  10
  -3 -10   2 257.648 14.1584  13
  -3 -10   2 275.135 14.3607  14
  -3 -10   2 260.092 14.0398  10
  -2 -10   2 10.0232 0.89848  13
  -2 -10   2 9.34602 0.60097  10
  -2 -10   2 9.25773 1.30869  14
  -1 -10   2 34.0621 2.23732  13
  -1 -10   2 35.9624 2.42544  14
   0 -10   2 72.2571 4.11335  13
   0 -10   2 71.6572 4.15516  14
   1 -10   2 0.20087 0.41054  14
   1 -10   2 0.31119 0.51565  13
   2 -10   2 2.96559 0.50906  13
   2 -10   2 3.26302 0.45552  14
  10   9  -2 146.418 7.80518   8
  -9  -9   2 97.5661 5.21582   8
  -8  -9   2 4.95521 0.53532   8
  -8  -9   2 3.80066 0.73422   9
  -8  -9   2 4.81040 0.64551  14
  -7  -9   2 14.2862 1.30424   9
  -7  -9   2 12.3176 0.78046   8
  -7  -9   2 12.9017 1.33881  14
  -7  -9   2 12.4119 1.15895  15
  -7  -9   2 11.4596 1.08077  10
  -6  -9   2 32.1679 2.13535  15
  -6  -9   2 33.6161 2.20805   9
  -6  -9   2 34.7894 2.44220  14
  -6  -9   2 35.9326 2.07421  10
  -5  -9   2 12.4307 1.41013  14
  -5  -9   2 10.8199 0.98111  10
  -5  -9   2 9.61671 1.03325  15
  -5  -9   2 10.4014 1.07685   9
  -4  -9   2 67.7416 3.97301  14
  -4  -9   2 62.6525 3.56782   9
  -4  -9   2 57.5988 3.67030  15
  -4  -9   2 68.6076 3.61646  10
  -3  -9   2 0.77315 0.37058  10
  -3  -9   2 0.21564 0.71823  14
  -3  -9   2 -0.2161 0.43924  13
  -2  -9   2 103.261 5.86391  14
  -2  -9   2 99.2988 5.67066  13
  -2  -9   2 102.679 5.51931  10
  -2  -9   2 102.576 5.62292  12
  -1  -9   2 37.4637 2.32911  12
  -1  -9   2 38.7042 2.41008  13
  -1  -9   2 37.8757 2.61150  14
  -1  -9   2 36.6276 2.05374  10
   0  -9   2 2.02431 0.63008  14
   0  -9   2 1.44578 0.61696  13
   0  -9   2 1.64954 0.56699  12
   1  -9   2 37.7126 2.36954  13
   1  -9   2 40.0427 2.34629  12
   1  -9   2 37.6145 2.43111  14
   2  -9   2 58.4414 3.62577  14
   2  -9   2 62.1034 3.60095  13
   2  -9   2 70.0970 3.65111  12
   3  -9   2 9.91973 0.77598  12
   3  -9   2 8.63754 0.77045  13
  10   8  -2 51.3093 2.76847   8
 -10  -8   2 49.2061 2.78725   8
  -9  -8   2 43.1681 2.50810   8
  -8  -8   2 174.536 9.87416   9
  -8  -8   2 173.201 9.91751  14
  -8  -8   2 195.375 9.73862   8
  -7  -8   2 0.85649 0.45218   8
  -7  -8   2 0.24071 0.57879   9
  -7  -8   2 0.87928 0.66673  14
  -6  -8   2 12.3235 1.25799   9
  -6  -8   2 13.2654 1.07568  10
  -6  -8   2 13.8664 1.05276   8
  -6  -8   2 12.3297 1.41005  14
  -5  -8   2 125.137 6.61829   8
  -5  -8   2 124.938 7.01813  14
  -5  -8   2 123.863 6.75393  10
  -5  -8   2 121.387 6.82736   9
  -4  -8   2 102.238 5.98108  15
  -4  -8   2 108.317 5.86078  10
  -4  -8   2 115.232 6.21633  14
  -4  -8   2 99.0287 6.61016   2
  -4  -8   2 109.274 5.93583   9
  -3  -8   2 1.86118 0.45386   9
  -3  -8   2 2.59336 0.76007  14
  -3  -8   2 2.37410 0.39803  10
  -3  -8   2 1.49726 0.35803  13
  -3  -8   2 2.06355 0.99993   2
  -3  -8   2 1.35781 0.41723  12
  -3  -8   2 1.13901 0.44456  15
  -3  -8   2 0.40484 1.23084   5
  -2  -8   2 141.878 8.89014   3
  -2  -8   2 175.226 9.03760  13
  -2  -8   2 152.812 8.91119   2
  -2  -8   2 169.608 10.3312   5
  -2  -8   2 169.092 8.77448   9
  -2  -8   2 188.372 9.26946  14
  -2  -8   2 173.303 8.97245  12
  -2  -8   2 175.003 8.88144  10
  -2  -8   2 149.667 9.00283  15
  -1  -8   2 13.6924 2.15977   5
  -1  -8   2 13.6648 1.23322  13
  -1  -8   2 12.6828 1.00933  12
  -1  -8   2 13.3329 1.44121  14
  -1  -8   2 13.0753 0.88383  10
   0  -8   2 0.70209 0.48317  12
   0  -8   2 0.60681 0.50440  14
   0  -8   2 0.73073 0.54618  13
   0  -8   2 0.57922 0.14093  10
   0  -8   2 0.96442 0.90135   5
   1  -8   2 181.957 9.88942  12
   1  -8   2 181.279 9.99240  11
   1  -8   2 180.996 10.0278  14
   1  -8   2 185.530 9.94739  13
   2  -8   2 163.999 9.04683  11
   2  -8   2 171.454 8.96273  12
   2  -8   2 155.987 8.99024  14
   2  -8   2 165.977 8.98661  13
   3  -8   2 6.20399 0.70297  13
   3  -8   2 4.45487 0.71168  14
   3  -8   2 6.31377 0.71158  12
   3  -8   2 5.73938 0.83513  11
   4  -8   2 9.59400 0.80017  12
   4  -8   2 8.84407 0.75897  13
   4  -8   2 10.6485 0.96560  11
   5  -8   2 13.0804 0.88492  12
   5  -8   2 12.0604 0.94193  11
  11   7  -2 94.6064 4.74508   8
 -11  -7   2 83.6373 4.81343   8
  10   7  -2 0.94479 0.32846   8
 -10  -7   2 0.26930 0.34747   8
   9   7  -2 14.7424 1.00618   8
  -9  -7   2 13.2147 1.19953   8
  -8  -7   2 142.135 7.72087   8
  -7  -7   2 322.144 17.2386   8
  -7  -7   2 324.886 17.4428  14
  -6  -7   2 -0.3241 0.41372   8
  -6  -7   2 0.08817 1.27441   2
  -6  -7   2 0.67373 0.52849   9
  -6  -7   2 0.32069 0.42242  14
  -6  -7   2 0.39018 1.39606   3
  -5  -7   2 25.9594 1.60989   8
  -5  -7   2 27.1547 1.96405  14
  -5  -7   2 27.3625 1.76723   9
  -5  -7   2 22.5598 2.78065   3
  -5  -7   2 25.0377 2.74606   6
  -5  -7   2 26.6007 1.66052  10
  -5  -7   2 28.1529 2.60461   2
  -4  -7   2 344.184 18.9071   5
  -4  -7   2 329.765 17.9043   9
  -4  -7   2 333.892 17.8519  10
  -4  -7   2 342.901 18.1065  14
  -4  -7   2 329.538 18.8520   6
  -4  -7   2 330.650 17.7783   8
  -4  -7   2 340.684 18.8609   3
  -4  -7   2 335.744 18.5500   2
  -3  -7   2 230.836 12.0448  10
  -3  -7   2 213.976 12.0995  13
  -3  -7   2 239.784 12.3291  14
  -3  -7   2 219.512 12.0622  12
  -3  -7   2 225.303 12.6071   2
  -3  -7   2 218.868 12.0783   9
  -3  -7   2 241.026 12.8412   3
  -3  -7   2 211.623 12.1536  15
  -3  -7   2 235.747 13.2047   5
  -2  -7   2 28.2220 1.55568  10
  -2  -7   2 27.1538 2.09804   2
  -2  -7   2 24.0188 1.66696  15
  -2  -7   2 27.0336 1.93387  14
  -2  -7   2 28.0914 2.75616   5
  -2  -7   2 24.9629 1.63924  13
  -2  -7   2 25.9725 1.62723  12
  -2  -7   2 27.9024 2.16196   3
  -2  -7   2 25.1307 1.55495   9
  -1  -7   2 21.1181 1.34799  12
  -1  -7   2 23.7020 2.37962   5
  -1  -7   2 20.4505 1.24016  10
  -1  -7   2 20.3537 1.47107  13
  -1  -7   2 21.0975 1.64732  14
   0  -7   2 1158.91 62.8156   5
   0  -7   2 1196.89 61.7314  11
   0  -7   2 1181.69 61.6911  13
   0  -7   2 1172.06 61.6387  12
   0  -7   2 1176.88 61.7866  14
   0  -7   2 1113.48 61.5125  10
   1  -7   2 1.31237 0.58987  11
   1  -7   2 2.14367 0.52158  14
   1  -7   2 1.67640 0.41881  13
   1  -7   2 1.59218 0.47992  12
   1  -7   2 0.18164 1.12285   5
   1  -7   2 1.70241 0.56806  18
   2  -7   2 180.647 9.38600  13
   2  -7   2 159.964 9.48862  18
   2  -7   2 178.529 9.35225  12
   2  -7   2 166.626 9.39478  14
   2  -7   2 174.368 9.45001  11
   3  -7   2 21.7113 1.58805  14
   3  -7   2 21.9364 1.56039  13
   3  -7   2 20.6171 1.42577  17
   3  -7   2 20.6927 1.58682  11
   3  -7   2 22.2898 1.78741  18
   3  -7   2 21.3223 1.45530  12
   4  -7   2 150.524 8.14460  18
   4  -7   2 140.863 7.89518  17
   4  -7   2 152.568 7.96906  12
   4  -7   2 140.146 7.93502  13
   4  -7   2 145.946 8.06278  11
   5  -7   2 1.04987 0.44551  11
   5  -7   2 0.58330 0.30288  12
   5  -7   2 1.46766 0.52883  18
   6  -7   2 3.02588 0.54081  18
   6  -7   2 5.19990 0.62490  11
  11   6  -2 8.09007 0.79044   9
  11   6  -2 5.62173 0.55393  11
  11   6  -2 6.82276 0.40439   8
  10   6  -2 12.1282 0.78337   8
   9   6  -2 3.70536 0.46898   8
   8   6  -2 55.1998 3.07143   8
  -8  -6   2 54.8512 3.19656   8
  -7  -6   2 211.977 11.3767   8
  -6  -6   2 586.706 31.0607   8
  -5  -6   2 83.5497 5.54916   5
  -5  -6   2 88.8963 4.75400   8
  -5  -6   2 89.7194 5.50122   2
  -5  -6   2 93.4927 6.16464   3
  -5  -6   2 82.0009 4.82482   9
  -4  -6   2 36.5026 3.04613   3
  -4  -6   2 36.1548 2.59193   2
  -4  -6   2 35.8249 2.75899   5
  -4  -6   2 33.4783 2.03231   9
  -4  -6   2 32.3826 1.96386  10
  -4  -6   2 32.1554 1.93653   8
  -3  -6   2 75.7311 4.25159   8
  -3  -6   2 87.7344 4.84345   2
  -3  -6   2 78.1642 4.48623  14
  -3  -6   2 85.6800 5.20286   5
  -3  -6   2 75.9942 4.29193  10
  -3  -6   2 74.9659 4.32840   9
  -3  -6   2 80.8772 5.08639   3
  -3  -6   2 77.4422 5.07096   6
  -2  -6   2 372.676 18.8964   3
  -2  -6   2 354.509 19.2345   5
  -2  -6   2 376.809 18.7385   2
  -2  -6   2 324.537 18.3218   9
  -2  -6   2 331.211 18.4989  14
  -2  -6   2 324.151 18.8813   6
  -2  -6   2 339.447 18.3046  10
  -1  -6   2 48.3868 2.79250  11
  -1  -6   2 46.1765 2.74488  13
  -1  -6   2 48.1774 2.84956  14
  -1  -6   2 53.2246 2.93511   2
  -1  -6   2 44.9679 2.61148  10
  -1  -6   2 46.0085 2.61368   9
  -1  -6   2 49.1710 2.97683   3
  -1  -6   2 47.9154 3.58158   5
  -1  -6   2 46.5436 2.69589  12
   0  -6   2 0.60307 0.48008  14
   0  -6   2 0.85029 0.91051   5
   0  -6   2 0.77541 0.36592  13
   0  -6   2 1.12308 0.42892  18
   0  -6   2 0.53572 0.18637  10
   0  -6   2 0.95591 0.41551  11
   0  -6   2 1.06828 0.27217  12
   1  -6   2 22.8695 1.47753  11
   1  -6   2 19.6549 1.16665  10
   1  -6   2 19.6837 2.12697   5
   1  -6   2 20.6339 1.46845  14
   1  -6   2 22.3527 1.64470  18
   1  -6   2 21.1019 1.47216  13
   1  -6   2 22.2893 1.42380  12
   2  -6   2 327.445 18.4359  17
   2  -6   2 355.847 18.6030  11
   2  -6   2 331.555 19.3690   5
   2  -6   2 357.184 18.5034  12
   2  -6   2 340.531 18.5694  14
   2  -6   2 359.905 18.5353  13
   2  -6   2 353.924 18.6627  18
   3  -6   2 54.5019 3.28952  11
   3  -6   2 51.9861 3.09676  13
   3  -6   2 58.2102 3.38139  18
   3  -6   2 50.0874 4.47417   4
   3  -6   2 55.4875 3.08295  17
   3  -6   2 50.0096 3.16804  14
   3  -6   2 53.0649 3.08632  12
   4  -6   2 153.168 9.11010  16
   4  -6   2 172.220 9.20415  17
   4  -6   2 176.079 9.39345  11
   4  -6   2 176.529 9.43469  18
   4  -6   2 172.960 9.22388  12
   4  -6   2 171.000 9.22422  13
   5  -6   2 315.165 17.5241  16
   5  -6   2 333.892 17.6060  17
   5  -6   2 334.585 17.7477  11
   5  -6   2 326.651 17.6073  12
   5  -6   2 339.918 17.8349  18
   6  -6   2 -0.1919 0.67780  18
   6  -6   2 -0.1983 0.40591  11
   6  -6   2 0.45225 0.55833  17
   7  -6   2 9.17319 0.78837  11
   7  -6   2 8.43002 0.98954  18
  11   5  -2 -0.3028 0.45046   9
  11   5  -2 0.08924 0.26533  11
  10   5  -2 18.3827 1.06906   8
  10   5  -2 16.0077 1.35003   9
   9   5  -2 31.9872 1.82299   8
   9   5  -2 30.7251 2.08746  18
   8   5  -2 168.357 8.99451   8
  -6  -5   2 4.84526 0.53720   8
  -5  -5   2 761.202 41.4365   2
  -5  -5   2 785.592 41.9631   3
  -4  -5   2 34.8440 2.55896   5
  -4  -5   2 34.2255 2.91222   3
  -4  -5   2 34.7550 2.47741   2
  -3  -5   2 9.38406 1.17852   5
  -3  -5   2 11.2016 1.54437   3
  -3  -5   2 10.7822 1.13216   2
  -2  -5   2 0.04064 0.56185   6
  -2  -5   2 1.10997 0.69712   3
  -2  -5   2 0.86139 0.48657   2
  -2  -5   2 3.45492 0.89571   5
  -1  -5   2 1.78328 0.62769   3
  -1  -5   2 1.95918 0.50279   2
  -1  -5   2 1.49234 0.79126   5
  -1  -5   2 0.91737 0.60369   6
   0  -5   2 0.30090 0.35969   3
   0  -5   2 0.46049 0.32596   2
   0  -5   2 0.97900 0.40426   6
   0  -5   2 0.19826 0.49304   5
   0  -5   2 0.33951 0.25069   2
   0  -5   2 0.23709 0.32086   3
   1  -5   2 0.12451 0.79099   4
   1  -5   2 0.77333 0.75481   5
   2  -5   2 3.02443 0.49099  11
   2  -5   2 3.31797 1.24962   4
   2  -5   2 2.58975 0.46844  13
   2  -5   2 4.39678 0.69359  18
   2  -5   2 2.91479 0.96994   5
   2  -5   2 2.87871 0.45285  14
   2  -5   2 3.05282 0.46534  12
   3  -5   2 114.221 6.19213  17
   3  -5   2 113.584 7.53402   4
   3  -5   2 122.824 6.42370  18
   3  -5   2 115.213 6.22146  13
   3  -5   2 105.527 6.11719  16
   3  -5   2 109.752 6.88860   5
   3  -5   2 115.286 6.21137  12
   3  -5   2 119.710 6.35222  11
   3  -5   2 105.194 6.22590  14
   4  -5   2 94.4546 5.02961  17
   4  -5   2 75.1653 6.24088   4
   4  -5   2 89.2244 5.00201  12
   4  -5   2 87.5802 5.00369  13
   4  -5   2 92.8773 5.18832  11
   4  -5   2 99.3336 5.22939  18
   4  -5   2 89.4010 4.94786  16
   5  -5   2 129.772 7.22213  16
   5  -5   2 136.062 7.42854  11
   5  -5   2 142.256 7.31519  17
   5  -5   2 141.558 7.53257  18
   5  -5   2 118.644 7.24009  12
   6  -5   2 65.2747 3.72804  11
   6  -5   2 53.5799 3.51128  12
   6  -5   2 68.9040 3.64217  17
   6  -5   2 65.4909 3.78993  18
   7  -5   2 7.16899 0.88656  18
   7  -5   2 7.38988 0.84738  11
   7  -5   2 6.79444 0.69381  17
   8  -5   2 0.02552 0.31813  11
   8  -5   2 -0.1218 0.43772  18
  11   4  -2 212.912 11.7657  11
  11   4  -2 220.997 11.7193   9
  11   4  -2 205.154 11.8626  18
  11   4  -2 242.492 11.7787  10
  10   4  -2 2.61145 0.46424   9
  10   4  -2 2.53426 0.27403   8
  10   4  -2 1.61998 0.59197  18
   9   4  -2 69.5066 3.69488   8
   9   4  -2 65.5273 3.86660   9
   9   4  -2 68.7063 4.01770  18
   8   4  -2 113.348 5.99124   8
   8   4  -2 109.534 6.13428   9
   7   4  -2 28.9792 1.67414   8
  -5  -4   2 119.588 6.75526   2
  -5  -4   2 110.298 7.16148   3
  -4  -4   2 223.979 13.7729   1
  -4  -4   2 254.423 13.6459   2
  -4  -4   2 255.530 13.6725   5
  -4  -4   2 261.089 14.0470   3
   3   4  -2 0.76708 0.51124   1
  -3  -4   2 0.95470 0.54504   1
  -3  -4   2 1.30801 0.56498   2
  -3  -4   2 1.70871 0.62004   5
  -3  -4   2 1.28184 0.80525   3
   2   4  -2 0.27451 0.39201   1
  -2  -4   2 1.23789 0.54940   1
  -2  -4   2 0.18699 0.42810   2
  -2  -4   2 0.20890 0.33452   1
  -2  -4   2 0.04181 0.52447   5
  -2  -4   2 0.38075 0.61936   3
   1   4  -2 529.695 28.4762   1
  -1  -4   2 592.859 28.5728   3
  -1  -4   2 521.240 28.7260   3
  -1  -4   2 484.765 28.3317   2
  -1  -4   2 526.689 28.4767   1
  -1  -4   2 525.933 28.5147   6
  -1  -4   2 490.459 28.4208   1
  -1  -4   2 566.446 28.3894   2
  -1  -4   2 568.527 28.7754   5
   0   4  -2 739.735 41.2264   1
   0  -4   2 823.344 41.2595   3
   0  -4   2 845.538 41.8309   4
   0  -4   2 727.019 41.1252   2
   0  -4   2 778.509 41.2403   1
   0  -4   2 860.188 41.1851   2
   0  -4   2 825.856 41.6781   5
   0  -4   2 753.465 41.3032   6
   0  -4   2 727.171 41.2045   1
   0  -4   2 707.239 41.2640   3
   1  -4   2 7.92074 1.16178   5
   1  -4   2 8.67465 1.33437   4
   1  -4   2 7.52389 0.77928   6
   2  -4   2 50.8426 3.45949   5
   2  -4   2 51.9573 3.75134   4
   3  -4   2 960.848 53.5287   5
   3  -4   2 981.927 53.0528  11
   3  -4   2 1008.25 54.0877   4
   3  -4   2 1058.45 53.0419  12
   3  -4   2 1004.71 53.1224  18
   4  -4   2 1.49454 0.56062  18
   4  -4   2 1.17037 0.38932  16
   4  -4   2 0.79648 0.36774  12
   4  -4   2 0.81826 0.48753  11
   4  -4   2 0.22555 0.96699   4
   4  -4   2 0.69208 0.43729  15
   4  -4   2 0.73428 0.31665  13
   4  -4   2 2.34585 0.47957  17
   5  -4   2 1.35036 0.55856  11
   5  -4   2 0.14387 0.35067  12
   5  -4   2 1.27357 0.44284  16
   5  -4   2 0.37798 0.61382  18
   5  -4   2 1.04958 0.38774  17
   5  -4   2 0.08280 1.13979   4
   5  -4   2 3.18619 0.65444  15
   6  -4   2 1.48533 0.41301  12
   6  -4   2 1.87229 0.76123  18
   6  -4   2 0.05334 0.57327  17
   6  -4   2 0.64120 0.49440  16
   6  -4   2 1.68700 0.62379  11
   7  -4   2 82.8924 4.72198  17
   7  -4   2 83.5689 4.96918  18
   7  -4   2 88.0001 4.84144  11
   8  -4   2 36.3338 2.27249  18
   8  -4   2 36.3577 2.26642  11
   8  -4   2 32.4472 2.06466  17
   9  -4   2 77.0822 4.76465  18
   9  -4   2 94.0771 4.72847  11
  11   3  -2 47.4593 2.70506  10
  11   3  -2 48.0931 2.61587   9
  10   3  -2 390.754 20.5980  10
  10   3  -2 367.677 20.6165  11
  10   3  -2 412.707 20.5787   9
  10   3  -2 378.842 20.7676  18
   9   3  -2 62.8391 3.41385   8
   9   3  -2 58.1884 3.59691  10
   9   3  -2 67.7140 3.60472   9
   9   3  -2 64.3526 3.81294  18
   8   3  -2 0.72399 1.29708   4
   8   3  -2 -0.2989 0.94059   2
   8   3  -2 1.04927 0.34686   9
   8   3  -2 0.37786 1.64064   3
   8   3  -2 1.20667 0.27907   8
   8   3  -2 0.93736 0.53058  18
   7   3  -2 57.1443 3.07568   8
   7   3  -2 54.8318 3.18544   9
   7   3  -2 60.5251 3.77521   2
   7   3  -2 52.6235 4.64931   3
   6   3  -2 667.694 36.2101   3
   6   3  -2 658.776 35.5082   2
   5   3  -2 10.2138 1.19411   2
   5   3  -2 12.1230 1.71538   3
   5   3  -2 10.8709 0.98691   7
   4   3  -2 22.3921 1.80464   1
   4   3  -2 24.4155 1.94504   1
   4   3  -2 24.1057 2.20043   3
   4   3  -2 26.0196 1.74747   2
   4   3  -2 22.3305 1.52794   7
  -4  -3   2 23.9923 1.89931   1
  -4  -3   2 23.5321 1.68850   5
  -4  -3   2 25.4828 1.79548   2
  -4  -3   2 20.1643 1.78857   1
  -4  -3   2 24.8811 2.20855   3
   3   3  -2 99.0978 5.68380   2
   3   3  -2 100.897 6.02980   3
   3   3  -2 97.0754 5.53183   7
   3   3  -2 94.5899 5.79222   1
   3   3  -2 108.079 5.90988   1
  -3  -3   2 108.992 6.07943   3
  -3  -3   2 103.789 5.80928   5
  -3  -3   2 96.9840 5.82011   1
  -3  -3   2 103.661 5.86831   1
  -3  -3   2 105.624 5.74430   2
   2   3  -2 0.71087 0.48031   1
   2   3  -2 0.77156 0.39626   2
   2   3  -2 -0.0893 0.57136   3
   2   3  -2 0.87473 0.44326   1
  -2  -3   2 1.19389 0.41797   1
  -2  -3   2 0.81175 0.53292   5
  -2  -3   2 0.98364 0.65846   3
  -2  -3   2 2.27731 0.51802   1
  -2  -3   2 2.30379 0.49505   2
   1   3  -2 272.155 14.0340   1
   1   3  -2 274.068 14.0852   1
  -1  -3   2 235.362 14.1077   3
  -1  -3   2 261.960 14.0411   1
  -1  -3   2 270.513 14.2432   5
  -1  -3   2 280.842 13.9804   2
  -1  -3   2 221.780 13.9168   2
  -1  -3   2 271.939 14.1456   3
  -1  -3   2 262.325 14.0410   1
   0   3  -2 8.26625 0.76991   1
   0   3  -2 7.79790 0.70101   1
   0  -3   2 8.57877 0.68134   2
   0  -3   2 8.76392 0.72399   1
   0  -3   2 7.15122 0.69239   1
   0  -3   2 8.29888 0.86601   3
   0  -3   2 8.85869 0.95178   5
   0  -3   2 6.65231 0.72521   6
   0  -3   2 7.63357 0.82235   3
   0  -3   2 6.98535 0.62528   2
   0  -3   2 8.16254 1.00653   4
  -1   3  -2 674.224 36.9692   1
  -1   3  -2 696.308 36.9893   1
   1  -3   2 710.048 37.3686   5
   1  -3   2 738.446 36.9851   3
   1  -3   2 682.666 36.9892   1
   1  -3   2 750.786 37.5577   4
   1  -3   2 673.098 36.9597   1
   1  -3   2 675.302 36.9431   2
   1  -3   2 691.471 36.9994   3
   1  -3   2 735.873 37.1277   2
   1  -3   2 672.815 37.0523   6
   2  -3   2 0.66418 0.33528   6
   2  -3   2 0.09934 0.50256   5
   2  -3   2 0.12018 0.69032   4
   2  -3   2 0.21236 0.39719   7
   3  -3   2 8.25872 0.99013   7
   3  -3   2 7.62075 1.05040   5
   3  -3   2 8.08138 1.38944   4
   4  -3   2 312.232 17.0889  18
   4  -3   2 324.891 17.3296   7
   4  -3   2 324.306 18.0417   4
   4  -3   2 301.768 17.0126  11
   4  -3   2 330.253 16.9580  17
   5  -3   2 702.477 41.1535  12
   5  -3   2 821.295 41.2065  17
   5  -3   2 811.977 41.7096   7
   5  -3   2 786.950 41.1454  16
   5  -3   2 725.533 41.2043  15
   5  -3   2 783.296 41.2774  11
   5  -3   2 791.483 41.3647  18
   5  -3   2 784.548 41.0282  10
   5  -3   2 803.595 42.5003   4
   6  -3   2 48.6388 3.15897  12
   6  -3   2 54.8966 3.83484   7
   6  -3   2 55.7726 3.45298  18
   6  -3   2 58.0962 3.26018  17
   6  -3   2 54.5778 2.99336  10
   6  -3   2 59.9127 3.36123  11
   6  -3   2 60.2467 3.20296  16
   7  -3   2 129.676 7.16690  17
   7  -3   2 131.822 7.25474  11
   7  -3   2 131.915 7.36598  18
   8  -3   2 103.240 5.83441  17
   8  -3   2 103.803 6.03923  18
   8  -3   2 112.543 6.00070  11
   9  -3   2 10.4400 0.97425  18
   9  -3   2 9.48956 0.87690  11
  10  -3   2 5.91646 0.62319  18
  11   2  -2 2.83970 0.49622  18
  11   2  -2 2.38092 0.34374  10
  10   2  -2 48.1830 2.84466  18
  10   2  -2 43.4785 2.67078  11
  10   2  -2 45.1564 2.56626   9
  10   2  -2 45.9255 2.63988  10
   9   2  -2 7.57952 1.14393  18
   9   2  -2 8.28184 0.87114  10
   9   2  -2 6.51611 0.78263   9
   9   2  -2 6.90622 0.87454  11
   8   2  -2 124.290 6.59037  10
   8   2  -2 118.210 7.11855   2
   8   2  -2 126.008 6.58062   9
   8   2  -2 99.0132 7.14332   7
   8   2  -2 130.436 6.84562  18
   8   2  -2 122.424 6.45394   8
   7   2  -2 0.46127 0.33476  10
   7   2  -2 0.59402 0.68207   7
   7   2  -2 0.89764 1.39790   3
   7   2  -2 0.10654 0.24841   8
   7   2  -2 0.51497 0.34799   9
   7   2  -2 0.14974 0.70227   2
   6   2  -2 29.0047 2.08192   2
   6   2  -2 24.9505 1.51934   8
   6   2  -2 30.0470 3.02498   3
   6   2  -2 29.6067 2.05634   7
   5   2  -2 118.004 6.64797   2
   5   2  -2 120.778 6.61604   7
   5   2  -2 113.897 7.13000   3
   4   2  -2 154.575 8.10133   3
   4   2  -2 143.342 7.86677   1
   4   2  -2 145.145 7.59983   7
   4   2  -2 124.080 7.74772   1
   4   2  -2 146.763 7.65115   2
  -4  -2   2 123.021 7.78123   1
  -4  -2   2 139.917 8.06400   3
  -4  -2   2 132.743 7.54856   5
  -4  -2   2 143.019 7.86055   1
  -4  -2   2 131.983 7.68193   2
   3   2  -2 16.3184 1.09833   7
   3   2  -2 15.6246 1.28290   1
   3   2  -2 16.1797 1.38117   1
   3   2  -2 16.0592 1.20630   2
   3   2  -2 16.3149 1.61070   3
  -3  -2   2 14.8347 1.21335   2
  -3  -2   2 16.8456 1.32716   1
  -3  -2   2 14.6127 1.55788   3
  -3  -2   2 14.8814 1.31075   1
  -3  -2   2 15.2335 1.19668   5
   2   2  -2 206.434 11.8866   1
   2   2  -2 213.903 12.0432   3
   2   2  -2 233.360 11.9620   1
   2   2  -2 211.499 11.8075   2
  -2  -2   2 223.709 11.8358   2
  -2  -2   2 220.340 11.9195   1
  -2  -2   2 213.794 11.9005   5
  -2  -2   2 225.879 12.0582   3
  -2  -2   2 232.556 11.9277   1
   1   2  -2 127.227 6.82369   1
   1   2  -2 117.296 6.74165   2
   1   2  -2 121.395 6.94851   3
   1   2  -2 141.169 6.87520   1
  -1  -2   2 122.458 6.90217   5
  -1  -2   2 130.496 6.82809   1
  -1  -2   2 118.251 6.82246   1
  -1  -2   2 132.464 6.77272   2
  -1  -2   2 113.091 6.91871   3
  -1  -2   2 124.912 6.92879   3
   0   2  -2 197.708 10.4126   1
   0   2  -2 204.020 10.4070   1
   0  -2   2 205.623 10.4526   3
   0  -2   2 186.275 10.5464   5
   0  -2   2 195.652 10.6335   4
   0  -2   2 178.275 10.3297   2
   0  -2   2 174.416 10.3386   6
   0  -2   2 207.052 10.4197   1
   0  -2   2 194.035 10.4747   3
   0  -2   2 189.179 10.3798   1
   0  -2   2 200.364 10.3432   2
  -1   2  -2 2.80024 0.41796   1
  -1   2  -2 3.97500 0.47905   1
   1  -2   2 3.57831 0.64093   5
   1  -2   2 4.38251 0.51321   3
   1  -2   2 3.40191 0.45520   1
   1  -2   2 3.28826 0.42920   1
   1  -2   2 3.10572 0.40267   2
   1  -2   2 3.75193 0.40331   2
   1  -2   2 3.38239 0.75225   4
   1  -2   2 3.07960 0.39203   6
   1  -2   2 2.93426 0.46635   3
  -2   2  -2 5.99805 0.56885   1
  -2   2  -2 6.36160 0.56659   1
   2  -2   2 7.05373 0.69197   3
   2  -2   2 6.51511 0.60095   6
   2  -2   2 6.29242 0.47701   2
   2  -2   2 6.01430 0.51676   2
   2  -2   2 6.09538 0.83367   5
   2  -2   2 6.45030 0.51078   1
   2  -2   2 5.87240 0.61942   3
   2  -2   2 6.73013 0.79337   7
   2  -2   2 8.38506 1.18187   4
   2  -2   2 6.17837 0.55567   1
  -3   2  -2 303.988 17.4048   1
  -3   2  -2 276.995 17.3794   1
   3  -2   2 301.945 17.4464   3
   3  -2   2 326.851 17.3993   1
   3  -2   2 349.178 17.4367   3
   3  -2   2 324.797 17.3853   1
   3  -2   2 374.720 17.7004   7
   3  -2   2 350.024 18.1408   4
   3  -2   2 338.137 17.3580   2
   3  -2   2 327.569 17.6785   5
   3  -2   2 340.019 17.3568   2
   4  -2   2 275.233 13.6533   7
   4  -2   2 256.121 14.1199   4
   4  -2   2 229.500 13.2606   3
   4  -2   2 240.153 13.1758   2
   4  -2   2 236.398 13.2472   3
   4  -2   2 261.870 13.1838   2
   5  -2   2 18.6046 1.36516  11
   5  -2   2 18.8379 1.27441  16
   5  -2   2 20.4566 1.76734   7
   5  -2   2 20.8451 2.21122   4
   5  -2   2 20.1625 1.39490  18
   5  -2   2 19.7798 1.32189  17
   5  -2   2 18.8800 1.11545  10
   6  -2   2 7.37114 0.85145  16
   6  -2   2 6.67982 1.15319   7
   6  -2   2 7.48686 0.88551  18
   6  -2   2 7.39256 1.55600   4
   6  -2   2 7.55522 0.57346  10
   6  -2   2 7.43692 0.85821  17
   6  -2   2 10.4173 0.96100  11
   7  -2   2 0.56372 1.20391   4
   7  -2   2 2.91090 0.65330  11
   7  -2   2 2.76675 0.75081  18
   7  -2   2 1.67887 0.96891   7
   7  -2   2 2.32175 0.59724  17
   7  -2   2 3.76871 0.39797  10
   8  -2   2 1.09004 0.74884  18
   8  -2   2 0.55276 0.56934  11
   8  -2   2 1.19676 0.57526  17
   8  -2   2 1.91941 0.26082  10
   9  -2   2 267.476 13.8136  11
   9  -2   2 260.464 13.9095  18
   9  -2   2 241.234 13.6864  17
  10  -2   2 13.8722 1.01221  11
  10  -2   2 13.8110 1.08094  18
  11   1  -2 115.756 6.18080  10
  10   1  -2 0.77616 0.39825  10
  10   1  -2 0.88325 0.68936  18
   9   1  -2 -0.6990 0.44417  18
   9   1  -2 0.38720 0.41741  10
   9   1  -2 0.17847 0.30582  11
   9   1  -2 0.32351 0.38659   9
   8   1  -2 183.542 10.8804   7
   8   1  -2 185.652 10.2631  11
   8   1  -2 172.471 10.6024   2
   8   1  -2 200.443 10.4618  18
   8   1  -2 193.458 10.1635   9
   8   1  -2 199.701 10.1850  10
   7   1  -2 15.7614 1.08046  10
   7   1  -2 19.4694 2.69003   3
   7   1  -2 16.0054 1.50860   2
   7   1  -2 17.4072 1.40169  18
   7   1  -2 13.9297 2.09379   4
   7   1  -2 15.6695 1.07775   9
   7   1  -2 16.7343 1.61774   7
   7   1  -2 16.7689 0.95251   8
   6   1  -2 173.211 10.1801   3
   6   1  -2 175.907 10.1158   4
   6   1  -2 178.015 9.55118   2
   6   1  -2 160.417 9.10740   8
   6   1  -2 187.618 9.70235   7
   6   1  -2 162.043 9.17346   9
   5   1  -2 42.2643 2.67877   2
   5   1  -2 44.5012 2.75773   7
   5   1  -2 41.6042 3.30561   3
   4   1  -2 232.813 14.0282   1
   4   1  -2 271.929 14.3031   3
   4   1  -2 262.114 13.9461   7
   4   1  -2 265.305 14.1080   1
   4   1  -2 280.889 13.9271   2
  -4  -1   2 261.383 14.1056   1
  -4  -1   2 234.627 14.0595   1
   3   1  -2 7.11050 0.85207   1
   3   1  -2 6.73788 0.74082   7
   3   1  -2 6.90869 0.87278   1
   3   1  -2 8.76218 1.21006   3
   3   1  -2 7.29505 0.75649   2
  -3  -1   2 7.61597 0.85480   1
  -3  -1   2 7.10998 0.88490   1
  -3  -1   2 6.68891 0.60897   5
  -3  -1   2 6.19488 0.72348   2
  -3  -1   2 6.71198 0.98334   3
   2   1  -2 9.30745 1.16144   3
   2   1  -2 8.75830 0.75901   7
   2   1  -2 10.7122 0.96401   1
   2   1  -2 9.73211 0.82478   2
   2   1  -2 11.0871 0.92185   1
  -2  -1   2 9.89297 0.92455   1
  -2  -1   2 11.4465 0.90844   1
  -2  -1   2 10.0452 0.84012   2
  -2  -1   2 8.77077 1.10468   3
   1   1  -2 30.4843 1.85760   2
   1   1  -2 30.5061 2.06207   3
   1   1  -2 34.0194 1.96266   1
   1   1  -2 31.3420 1.91416   1
  -1  -1   2 32.0704 1.86170   2
  -1  -1   2 32.1720 1.91295   1
  -1  -1   2 34.4924 1.96113   1
  -1  -1   2 30.3057 2.03465   3
   0   1  -2 3115.09 158.898   1
   0   1  -2 2735.72 158.566   3
   0   1  -2 3196.19 159.075   1
   0  -1   2 2956.40 159.000   3
   0  -1   2 3097.78 158.895   1
   0  -1   2 2913.05 158.538   2
   0  -1   2 2973.06 159.602   4
  -1   1  -2 1576.01 80.2981   1
  -1   1  -2 1625.31 80.6283   1
   1  -1   2 1548.43 80.6905   1
   1  -1   2 1380.61 80.3764   5
   1  -1   2 1498.26 81.2678   4
   1  -1   2 1451.26 79.9198   3
   1  -1   2 1517.45 80.2125   2
   1  -1   2 1393.69 80.0397   2
   1  -1   2 1563.94 80.6252   3
   1  -1   2 1580.32 80.5351   1
  -2   1  -2 20.4964 1.40428   1
  -2   1  -2 22.0572 1.44074   1
   2  -1   2 23.1240 1.41532   1
   2  -1   2 21.3697 1.33685   2
   2  -1   2 21.5306 1.45027   7
   2  -1   2 22.3698 1.30667   2
   2  -1   2 20.5931 1.41904   5
   2  -1   2 20.8374 1.43391   3
   2  -1   2 17.7550 1.46498   3
   2  -1   2 22.7765 1.72059   4
   2  -1   2 22.9155 1.41168   1
  -3   1  -2 259.322 14.1065   1
  -3   1  -2 249.415 14.0476   1
   3  -1   2 284.908 13.9763   2
   3  -1   2 255.885 14.0407   1
   3  -1   2 234.126 14.0328   5
   3  -1   2 281.424 14.1462   7
   3  -1   2 274.579 14.0747   1
   3  -1   2 257.074 14.1671   3
   3  -1   2 276.162 14.4480   4
   3  -1   2 239.858 13.9678   2
   3  -1   2 272.220 14.1069   3
   4  -1   2 54.9913 2.96452   2
   4  -1   2 46.6328 3.00090   1
   4  -1   2 49.3288 3.18583   3
   4  -1   2 44.8475 2.93193   2
   4  -1   2 56.9646 3.56551   4
   4  -1   2 54.8123 3.18663   3
   4  -1   2 57.2138 3.21921   7
   5  -1   2 1.47930 0.76730   4
   5  -1   2 0.42530 0.57133   3
   5  -1   2 0.83541 0.56806   7
   5  -1   2 -0.0682 0.36274   2
   6  -1   2 68.1637 3.81561  11
   6  -1   2 67.4590 4.73252   4
   6  -1   2 63.0465 4.10689   3
   6  -1   2 68.8419 3.81179   2
   6  -1   2 69.3516 3.77981  17
   6  -1   2 71.0187 3.75001  16
   6  -1   2 71.3363 4.29498   7
   6  -1   2 65.9153 3.93535  18
   6  -1   2 64.6443 3.63941  10
   6  -1   2 63.6077 3.60905   9
   7  -1   2 128.331 6.88436  10
   7  -1   2 132.241 7.08852  11
   7  -1   2 132.449 7.02145  17
   7  -1   2 120.512 7.08444   3
   7  -1   2 123.539 8.16621   4
   7  -1   2 134.998 7.22708  18
   7  -1   2 125.216 7.61612   7
   8  -1   2 12.2063 1.06275  17
   8  -1   2 12.1174 1.03337  11
   8  -1   2 11.7071 1.33753  18
   8  -1   2 11.3559 0.80310  10
   8  -1   2 7.71580 1.93575   4
   9  -1   2 11.3481 1.03321  11
   9  -1   2 10.6841 0.75941  10
   9  -1   2 10.0749 0.94825  17
   9  -1   2 10.8076 1.25752  18
  10  -1   2 19.0756 1.36444  11
  10  -1   2 20.2636 1.42608  18
  11   0  -2 1.04907 0.40556  18
  10   0  -2 104.495 5.52593  10
  10   0  -2 100.841 5.80647  18
   9   0  -2 2.32737 0.41308  10
   9   0  -2 2.18059 0.55833  17
   9   0  -2 2.08246 0.65470  18
   9   0  -2 2.04079 0.20754   9
   8   0  -2 41.8282 2.53151  17
   8   0  -2 43.6194 2.44099  10
   8   0  -2 44.7783 2.84310  18
   8   0  -2 42.4776 2.38735   9
   8   0  -2 40.5573 2.55356  11
   7   0  -2 253.579 12.9009  18
   7   0  -2 230.085 12.5742   9
   7   0  -2 229.315 13.4901   3
   7   0  -2 241.983 12.9713   2
   7   0  -2 228.683 12.6847  11
   7   0  -2 239.464 12.5880  10
   7   0  -2 229.195 12.6668  17
   7   0  -2 235.834 12.6118  16
   7   0  -2 241.082 13.3092   7
   6   0  -2 42.3243 2.55514   2
   6   0  -2 37.7051 3.07394   4
   6   0  -2 40.4372 2.22383   9
   6   0  -2 37.6976 2.27718  16
   6   0  -2 36.8892 2.12909   8
   6   0  -2 44.1351 2.85873   7
   6   0  -2 41.3788 2.48731  18
   6   0  -2 38.4624 2.30358  17
   6   0  -2 44.3361 3.33162   3
   6   0  -2 39.5944 2.22498  10
   5   0  -2 3.60744 0.64324   2
   5   0  -2 2.70534 0.56545   7
   5   0  -2 2.17432 0.91390   3
   5   0  -2 1.87141 0.74766   4
   4   0  -2 29.0213 1.98881   1
   4   0  -2 25.7324 1.94767   1
   4   0  -2 30.2981 1.97959   7
   4   0  -2 30.5890 2.35035   3
   4   0  -2 30.4806 1.84249   2
   3   0  -2 311.440 15.4836   3
   3   0  -2 287.792 15.3129   1
   3   0  -2 299.535 15.1959   2
   3   0  -2 294.300 15.2693   7
   3   0  -2 247.102 15.2512   1
  -3   0   2 244.173 15.3946   3
  -3   0   2 294.420 15.3262   1
  -3   0   2 297.221 15.3058   1
   2   0  -2 1241.63 65.1235   1
   2   0  -2 1281.33 65.3997   2
   2   0  -2 1141.36 65.2344   3
   2   0  -2 1192.78 65.3755   7
   2   0  -2 1291.44 65.6803   1
   2   0  -2 1277.64 65.2409   3
  -2   0   2 1152.36 65.0468   2
  -2   0   2 1309.31 65.6483   1
  -2   0   2 1183.13 65.2169   3
  -2   0   2 1261.47 65.7763   1
   1   0  -2 3.78273 0.48915   1
   1   0  -2 3.49540 0.45302   1
   1   0  -2 4.01225 0.49373   6
   1   0  -2 4.06355 0.42820   2
   1   0  -2 4.08134 0.61453   3
  -1   0   2 3.67264 0.45801   1
  -1   0   2 3.67941 0.50804   1
  -1   0   2 3.09973 0.54319   3
  -1   0   2 3.51734 0.40048   2
   0   0  -2 842.798 46.0842   6
   0   0  -2 838.773 45.9401   2
   0   0  -2 902.047 46.2615   1
   0   0   2 834.966 45.9312   2
   0   0   2 871.174 46.4302   4
   0   0   2 891.476 46.4780   3
   0   0   2 854.055 46.2950   1
   0   0   2 936.286 46.7938   1
  -1   0  -2 2424.50 120.418   1
  -1   0  -2 2330.42 120.437   1
  -1   0  -2 2098.64 119.618   2
  -1   0  -2 2275.64 120.000   3
   1   0   2 2072.44 119.329   3
   1   0   2 2367.30 120.193   1
   1   0   2 2189.02 120.611   4
   1   0   2 2083.31 120.292   1
   1   0   2 2322.22 119.784   2
   1   0   2 2469.65 120.391   3
  -2   0  -2 785.331 40.5502   1
  -2   0  -2 817.090 40.5888   1
  -2   0  -2 695.408 40.6809   3
   2   0   2 787.600 40.5530   1
   2   0   2 739.843 40.6541   3
   2   0   2 769.057 40.4407   2
   2   0   2 762.857 40.5500   3
   2   0   2 759.519 40.6745   4
   2   0   2 704.790 40.4594   2
   2   0   2 792.928 40.5511   1
   2   0   2 802.552 40.4878   7
  -3   0  -2 27.4373 1.80123   1
  -3   0  -2 23.0160 1.68672   1
   3   0   2 26.1198 1.94941   4
   3   0   2 27.3084 1.72458   1
   3   0   2 25.4638 1.73054   3
   3   0   2 22.9940 1.82987   3
   3   0   2 21.1866 1.54791   2
   3   0   2 25.3934 1.67663   1
   3   0   2 26.1978 1.54673   2
   3   0   2 25.6657 1.65615   7
   3   0   2 21.0772 1.43239   5
  -4   0  -2 112.665 6.60620   1
  -4   0  -2 104.612 6.49462   1
   4   0   2 122.043 6.85461   4
   4   0   2 105.920 6.47712   1
   4   0   2 115.384 6.58673   1
   4   0   2 118.743 6.65008   3
   4   0   2 127.897 6.54064   7
   4   0   2 124.164 6.41376   2
   5   0   2 7.43923 1.15630   3
   5   0   2 8.21460 0.91314   2
   5   0   2 7.91108 1.29738   4
   5   0   2 8.97065 1.08493   7
   6   0   2 4.18001 0.44995   9
   6   0   2 4.02918 0.73399   2
   6   0   2 4.23764 0.44425  10
   6   0   2 4.17988 0.76572   7
   6   0   2 5.12428 1.20318   4
   6   0   2 3.68043 1.06843   3
   6   0   2 4.25006 0.63210  18
   6   0   2 4.09998 0.54029  11
   7   0   2 1.25276 0.44449  17
   7   0   2 1.25829 0.30691  10
   7   0   2 1.28231 0.63415   2
   7   0   2 2.93197 1.14915   4
   7   0   2 0.32384 0.95424   3
   7   0   2 1.96112 0.60649  18
   7   0   2 1.32158 0.46888  11
   7   0   2 1.24577 0.31988   9
   7   0   2 1.39744 0.64324   7
   8   0   2 43.3215 3.83510   4
   8   0   2 41.8794 2.46801  10
   8   0   2 47.0645 2.69517  11
   8   0   2 45.1189 2.41358   9
   8   0   2 41.6316 2.71941   2
   8   0   2 43.7705 2.58126  17
   8   0   2 38.0991 3.20314   7
   8   0   2 43.8438 2.82008  18
   9   0   2 7.10126 0.70846  10
   9   0   2 8.47273 1.15397  18
   9   0   2 7.45479 0.80721  17
   9   0   2 8.96021 1.08088  11
  10   0   2 0.40357 0.27407  10
  10   0   2 -0.1018 0.43589  18
  10   0   2 -0.0223 0.56495  11
  10  -1  -2 8.50670 1.10918  18
  10  -1  -2 8.96192 0.53941  10
   9  -1  -2 0.61495 0.26289  10
   9  -1  -2 0.54121 0.76352  18
   9  -1  -2 0.15579 0.36190  17
   8  -1  -2 3.27603 0.60156  17
   8  -1  -2 4.22283 0.90072  18
   8  -1  -2 4.04173 0.52091  16
   8  -1  -2 3.65269 0.43574  10
   7  -1  -2 3.41324 0.56390  17
   7  -1  -2 5.26796 1.17012   7
   7  -1  -2 3.08479 0.53299  11
   7  -1  -2 3.97093 0.67564   2
   7  -1  -2 4.12601 0.41295   9
   7  -1  -2 3.80128 0.44097  10
   7  -1  -2 3.90527 0.77687  18
   7  -1  -2 3.13106 0.56615  16
   6  -1  -2 57.6092 3.14217  17
   6  -1  -2 59.7652 3.30205   2
   6  -1  -2 56.8468 3.01308  10
   6  -1  -2 52.6766 2.99531   9
   6  -1  -2 53.0360 3.73779   3
   6  -1  -2 53.1604 3.09233  16
   6  -1  -2 56.6645 3.69199   7
   6  -1  -2 49.6467 3.12882  11
   6  -1  -2 57.3556 3.33494  18
   5  -1  -2 190.086 11.6131   4
   5  -1  -2 216.073 11.1916   2
   5  -1  -2 214.413 11.4779   7
   5  -1  -2 207.023 11.5640   3
   4  -1  -2 41.4398 2.58934   7
   4  -1  -2 40.1533 2.36911   2
   4  -1  -2 35.2605 2.66701   4
   4  -1  -2 44.7826 2.78770   3
   3  -1  -2 1.47288 0.56353   3
   3  -1  -2 0.53477 0.26476   2
   3  -1  -2 1.70999 0.37955   2
   3  -1  -2 0.62400 0.58502   3
   3  -1  -2 1.84573 0.43936   1
   3  -1  -2 0.40938 0.40842   4
   3  -1  -2 0.28707 0.43795   7
   3  -1  -2 0.54270 0.33096   1
  -3   1   2 0.56486 0.39710   1
  -3   1   2 1.11872 0.39339   1
   2  -1  -2 9999.99 475.598   1
   2  -1  -2 9085.32 475.911   3
   2  -1  -2 7705.15 475.575   4
   2  -1  -2 9547.97 476.224   6
   2  -1  -2 8245.67 474.860   2
   2  -1  -2 9104.10 475.491   1
  -2   1   2 9359.41 475.693   1
   1  -1  -2 1050.60 55.1118   1
   1  -1  -2 1092.62 55.0686   1
   1  -1  -2 931.625 54.5423   2
   1  -1  -2 999.503 54.6080   3
   1  -1  -2 1061.53 54.7924   2
   1  -1  -2 1034.19 55.3637   3
   1  -1  -2 1030.30 55.1543   6
   1  -1  -2 935.652 54.8799   7
  -1   1   2 1113.52 54.8588   1
  -1   1   2 1090.44 55.2681   1
   0  -1  -2 64.8411 3.66858   1
   0  -1  -2 69.6671 3.71156   1
   0  -1  -2 64.3120 3.68920   6
   0  -1  -2 65.0824 3.63597   2
   0  -1  -2 69.0433 3.78175   3
   0  -1  -2 65.3908 3.70777   3
   0   1   2 70.9507 3.73107   1
   0   1   2 61.1136 3.70492   3
   0   1   2 73.4739 3.69583   1
   0   1   2 61.2411 3.60922   2
  -1  -1  -2 2.76850 0.72085   3
  -1  -1  -2 3.00323 0.52619   2
  -1  -1  -2 3.67957 0.59408   1
  -1  -1  -2 2.53360 0.51498   1
   1   1   2 2.19305 0.50931   1
   1   1   2 2.16069 0.53972   3
   1   1   2 3.44257 0.58995   1
   1   1   2 2.35806 0.41270   2
  -2  -1  -2 608.302 31.8798   1
  -2  -1  -2 564.896 31.7797   2
  -2  -1  -2 583.558 31.8318   1
  -2  -1  -2 614.348 32.0498   3
   2   1   2 597.703 31.7244   2
   2   1   2 582.019 31.8421   1
   2   1   2 600.878 31.8814   3
   2   1   2 642.439 31.8707   1
  -3  -1  -2 154.325 9.17301   1
  -3  -1  -2 152.563 9.10781   2
  -3  -1  -2 164.097 9.46973   3
  -3  -1  -2 177.494 9.25714   1
   3   1   2 176.445 9.23859   1
   3   1   2 177.930 9.27579   3
   3   1   2 159.996 9.16881   1
   3   1   2 170.041 9.05521   2
   3   1   2 172.417 9.05377   7
  -4  -1  -2 8.67309 1.09168   1
  -4  -1  -2 9.02063 1.09555   1
   4   1   2 9.78107 1.24956   4
   4   1   2 7.49036 0.92772   1
   4   1   2 10.5358 1.15229   1
   4   1   2 9.68316 1.25676   3
   4   1   2 9.74986 0.94732   7
   4   1   2 8.83557 0.92068   2
   5   1   2 767.885 39.7818   7
   5   1   2 751.341 39.7257   2
   5   1   2 750.490 40.0415   3
   5   1   2 720.589 40.2041   4
   6   1   2 83.7232 4.85793   2
   6   1   2 83.2706 4.94795   7
   6   1   2 82.0731 5.29011   3
   6   1   2 82.9553 5.50638   4
   7   1   2 186.409 10.1962  18
   7   1   2 187.816 10.8767   3
   7   1   2 198.092 11.2742   4
   7   1   2 187.289 9.87370   8
   7   1   2 196.715 10.5736   7
   7   1   2 179.019 9.97952  10
   7   1   2 195.413 10.4068   2
   7   1   2 191.220 10.0905  11
   7   1   2 167.430 10.0101  17
   7   1   2 185.035 9.97963   9
   8   1   2 106.727 6.03840  18
   8   1   2 110.498 5.78873   9
   8   1   2 99.1986 6.39644   7
   8   1   2 97.0140 6.19440   2
   8   1   2 113.081 5.94652  11
   8   1   2 106.067 6.80237   3
   8   1   2 105.882 7.14582   4
   8   1   2 111.688 5.81452  10
   9   1   2 116.213 6.24669  10
   9   1   2 119.594 6.18939   9
   9   1   2 106.954 6.44797  18
   9   1   2 117.177 6.41807  11
  10   1   2 54.2952 3.00958  10
  10   1   2 56.8892 3.17095  11
  10   1   2 50.0558 3.23585  18
  11   1   2 20.3198 1.29368  11
  11   1   2 17.9871 1.27377  18
  11   1   2 18.4243 1.09233  10
  10  -2  -2 17.0526 1.00665  17
  10  -2  -2 14.9860 1.19505  18
   9  -2  -2 4.17496 0.62119  17
   9  -2  -2 6.40169 0.83500  18
   8  -2  -2 301.655 17.3792  17
   8  -2  -2 340.831 17.6696  18
   8  -2  -2 337.690 17.3480  16
   8  -2  -2 322.653 17.2280  10
   7  -2  -2 34.0421 2.10610  10
   7  -2  -2 39.0981 2.28995  16
   7  -2  -2 41.7219 2.63775  18
   7  -2  -2 38.4486 2.28442  17
   7  -2  -2 36.1880 3.03215   7
   6  -2  -2 11.1905 0.99669  16
   6  -2  -2 12.5900 0.80802  10
   6  -2  -2 12.5322 1.27765  18
   6  -2  -2 12.7447 1.57707   7
   6  -2  -2 12.6352 1.04299  17
   5  -2  -2 4.30514 0.53661  17
   5  -2  -2 5.51236 0.70493  15
   5  -2  -2 4.62904 0.93552   7
   5  -2  -2 4.10828 0.34148   9
   5  -2  -2 4.74344 0.68156  18
   5  -2  -2 4.55768 0.52914   2
   5  -2  -2 4.75131 0.51171  16
   5  -2  -2 4.28824 0.40006  10
   4  -2  -2 86.4286 4.62058   7
   4  -2  -2 84.2428 4.23002   2
   4  -2  -2 74.0851 4.50156   3
   4  -2  -2 63.4369 4.60434   4
   3  -2  -2 132.716 7.27440   1
   3  -2  -2 141.222 7.19675   2
   3  -2  -2 140.523 7.60290   6
   3  -2  -2 135.252 7.41529   3
   3  -2  -2 112.944 7.45941   4
   3  -2  -2 142.967 7.46575   7
  -3   2   2 134.513 7.28374   1
   2  -2  -2 106.639 5.88201   7
   2  -2  -2 107.908 5.88358   3
   2  -2  -2 108.731 5.84464   3
   2  -2  -2 102.473 5.78687   1
   2  -2  -2 97.7374 5.70577   2
   2  -2  -2 96.9603 5.86043   4
   2  -2  -2 107.229 5.74558   1
   2  -2  -2 110.092 5.68779   2
   2  -2  -2 110.329 6.00042   6
  -2   2   2 115.239 5.75488   1
  -2   2   2 103.001 5.81053   1
   1  -2  -2 100.742 5.20956   1
   1  -2  -2 100.140 5.15749   2
   1  -2  -2 99.0298 5.35020   3
   1  -2  -2 89.8618 5.25131   7
   1  -2  -2 84.0652 5.16125   2
   1  -2  -2 100.999 5.39271   6
   1  -2  -2 92.9034 5.23949   1
   1  -2  -2 97.3020 5.25427   3
   1  -2  -2 90.9584 5.22574   4
  -1   2   2 108.530 5.20786   1
  -1   2   2 91.3920 5.27669   1
   0  -2  -2 625.978 32.1458   2
   0  -2  -2 643.249 32.2160   1
   0  -2  -2 613.873 32.2312   1
   0  -2  -2 591.932 32.3335   3
   0  -2  -2 634.504 32.2917   5
   0  -2  -2 540.036 32.1914   3
   0  -2  -2 543.048 32.1293   2
   0  -2  -2 615.608 32.2921   6
   0   2   2 617.257 32.2609   1
   0   2   2 657.020 32.2063   1
  -1  -2  -2 17.8356 1.27413   2
  -1  -2  -2 20.4583 1.38003   1
  -1  -2  -2 15.4121 1.30775   3
  -1  -2  -2 18.2261 1.35063   6
  -1  -2  -2 18.1021 1.58056   3
  -1  -2  -2 17.1222 1.29510   1
  -1  -2  -2 17.8910 1.26695   5
   1   2   2 18.4141 1.35566   1
   1   2   2 17.0635 1.33302   3
   1   2   2 17.5699 1.17899   2
   1   2   2 17.6799 1.32451   1
  -2  -2  -2 46.6131 2.90683   1
  -2  -2  -2 48.9083 3.21432   3
  -2  -2  -2 51.5688 2.98650   1
  -2  -2  -2 49.1250 2.88026   2
   2   2   2 44.7462 2.78630   2
   2   2   2 50.1184 2.97935   1
   2   2   2 44.6146 2.96907   3
   2   2   2 50.6163 2.96365   1
  -3  -2  -2 241.363 13.5077   2
  -3  -2  -2 258.038 13.6455   1
  -3  -2  -2 228.822 13.5718   1
  -3  -2  -2 258.846 13.9025   3
   3   2   2 232.264 13.5681   1
   3   2   2 262.385 13.6532   1
   3   2   2 257.513 13.4526   2
   3   2   2 262.256 13.6879   3
  -4  -2  -2 468.085 25.9861   1
  -4  -2  -2 478.985 26.3484   3
  -4  -2  -2 463.540 25.8970   2
  -4  -2  -2 502.582 26.0800   1
   4   2   2 509.767 25.7606   7
   4   2   2 441.639 25.9420   1
   4   2   2 495.118 26.1406   3
   4   2   2 493.108 26.0630   1
   4   2   2 501.603 25.8214   2
   5   2   2 190.229 11.7655   1
   5   2   2 211.563 11.5137   2
   5   2   2 220.457 11.9081   3
   5   2   2 217.966 11.4597   7
   6   2   2 411.130 21.3251   2
   6   2   2 395.462 21.2732   7
   6   2   2 377.901 21.7279   3
   6   2   2 394.413 21.8818   4
   7   2   2 914.172 47.0687   3
   7   2   2 906.378 46.4380   2
   7   2   2 821.837 45.9535  10
   7   2   2 923.641 46.4648   7
   7   2   2 864.967 45.8748   8
   7   2   2 931.964 47.3194   4
   7   2   2 821.420 45.9555   9
   7   2   2 788.272 46.0871  18
   8   2   2 77.7349 4.08711   8
   8   2   2 76.6845 4.43403  18
   8   2   2 80.7158 5.53448   3
   8   2   2 71.2383 4.72976   2
   8   2   2 73.0470 4.21598   9
   8   2   2 77.6040 5.69819   4
   8   2   2 78.0728 4.23237  10
   9   2   2 33.7421 1.96280   9
   9   2   2 32.8705 1.99882  10
   9   2   2 29.3226 2.18840  18
   9   2   2 36.7940 3.35535   4
   9   2   2 33.6355 2.17090  11
  10   2   2 4.56602 0.73589  11
  10   2   2 3.68386 0.69669  18
  10   2   2 5.46504 0.65387   9
  10   2   2 4.44546 0.57492  10
  11   2   2 6.91082 0.75310  11
  11   2   2 8.05235 0.68712  10
   9  -3  -2 0.55432 0.34465  17
   9  -3  -2 1.15576 0.51649  18
   8  -3  -2 53.8942 3.14300  16
   8  -3  -2 57.8010 3.45522  18
   8  -3  -2 52.4144 3.12977  17
   7  -3  -2 63.0032 3.69334  17
   7  -3  -2 68.4221 3.98723  18
   7  -3  -2 63.2814 3.45987  10
   7  -3  -2 64.2503 3.67222  16
   6  -3  -2 225.064 12.0596  17
   6  -3  -2 235.699 12.2687  18
   6  -3  -2 223.735 11.9920  16
   6  -3  -2 228.289 12.1278  15
   6  -3  -2 220.861 12.6921   7
   6  -3  -2 209.998 11.8535  10
   5  -3  -2 1.15889 0.43337  17
   5  -3  -2 1.46104 0.32163  16
   5  -3  -2 1.25894 0.19738  10
   5  -3  -2 1.60853 0.82778   7
   5  -3  -2 1.43563 0.56021  18
   5  -3  -2 1.60144 0.58408  15
   4  -3  -2 65.1995 3.62215  15
   4  -3  -2 68.3662 3.99732   7
   4  -3  -2 61.6917 3.55737  17
   4  -3  -2 60.1074 3.52850  16
   3  -3  -2 50.3518 3.51723   4
   3  -3  -2 61.6202 3.66646   6
   3  -3  -2 61.3431 3.51704   7
   2  -3  -2 32.7328 2.00582   7
   2  -3  -2 33.1655 2.18785   6
   2  -3  -2 27.5118 2.00250   4
   1  -3  -2 53.9010 3.07806   3
   1  -3  -2 53.4217 3.00106   2
   1  -3  -2 53.2813 3.16684   7
   1  -3  -2 55.5197 3.03366   1
   1  -3  -2 55.0813 3.38464   5
   1  -3  -2 57.1363 3.16334   3
   1  -3  -2 55.0467 3.06479   1
   1  -3  -2 58.1073 3.36795   6
   1  -3  -2 52.7314 3.23608   4
   1  -3  -2 58.6397 2.99695   2
  -1   3   2 53.8261 3.06515   1
  -1   3   2 57.8310 3.03815   1
   0  -3  -2 800.920 42.9937   3
   0  -3  -2 839.221 43.1797   5
   0  -3  -2 745.666 42.8890   2
   0  -3  -2 812.359 43.1619   6
   0  -3  -2 811.029 42.9176   2
   0  -3  -2 817.829 43.1099   3
   0  -3  -2 836.110 42.9940   1
   0  -3  -2 851.334 42.9914   1
   0  -3  -2 768.112 42.9299   7
   0   3   2 827.016 43.0024   1
   0   3   2 830.886 42.9784   1
  -1  -3  -2 22.6743 1.49413   1
  -1  -3  -2 17.9534 1.31305   2
  -1  -3  -2 23.3091 1.81592   3
  -1  -3  -2 21.4360 1.55627   5
  -1  -3  -2 21.9454 1.53978   1
  -1  -3  -2 19.4264 1.21023   7
  -1  -3  -2 19.5612 1.50378   3
  -1  -3  -2 21.3804 1.45531   2
  -1  -3  -2 22.0191 1.54010   6
   1   3   2 21.7197 1.45765   1
   1   3   2 20.9839 1.53906   1
  -2  -3  -2 236.304 12.3424   3
  -2  -3  -2 224.929 12.0373   2
  -2  -3  -2 220.460 12.1422   1
  -2  -3  -2 221.191 12.0786   1
  -2  -3  -2 230.376 12.0517   5
   2   3   2 189.188 11.9322   2
   2   3   2 228.293 12.1523   1
   2   3   2 218.977 12.1356   3
   2   3   2 230.952 12.0963   1
  -3  -3  -2 180.667 10.2065   3
  -3  -3  -2 188.764 9.83375   2
  -3  -3  -2 182.038 9.73671   5
  -3  -3  -2 175.133 9.93458   1
  -3  -3  -2 179.067 9.88327   1
   3   3   2 172.635 9.99850   3
   3   3   2 166.505 9.71661   2
   3   3   2 180.886 9.89507   1
   3   3   2 183.071 9.96446   1
  -4  -3  -2 128.207 7.62731   1
  -4  -3  -2 125.705 7.54973   1
  -4  -3  -2 132.832 7.48577   2
  -4  -3  -2 142.535 8.04292   3
   4   3   2 134.344 7.66171   1
   4   3   2 141.955 7.80314   3
   4   3   2 133.115 7.38853   2
   4   3   2 123.888 7.53535   1
  -5  -3  -2 142.908 9.62859   1
   5   3   2 184.649 9.50533   2
   5   3   2 164.047 9.78508   1
   5   3   2 191.772 9.99031   3
   6   3   2 109.902 6.32211   7
   6   3   2 114.981 6.51911   2
   6   3   2 110.834 7.00971   3
   7   3   2 100.176 6.10656   9
   7   3   2 125.631 7.43635   4
   7   3   2 114.165 6.66886   2
   7   3   2 111.649 6.01854   8
   7   3   2 118.286 7.39844   3
   8   3   2 80.5182 5.81628   4
   8   3   2 71.5258 4.26355  10
   8   3   2 71.1752 5.55605   3
   8   3   2 80.2482 4.15308   8
   8   3   2 76.2284 4.25806   9
   8   3   2 82.6513 4.94843   2
   9   3   2 69.5996 3.81846  10
   9   3   2 68.8011 3.63448   8
   9   3   2 62.8022 5.36107   4
   9   3   2 66.7924 3.80425   9
  10   3   2 11.4957 0.96045   9
  10   3   2 11.5320 1.01951  11
  10   3   2 11.2624 1.01167  10
  11   3   2 94.4817 5.29425  10
  11   3   2 100.224 5.40244  11
  12   3   2 22.3508 1.36857  11
   9  -4  -2 4.73374 0.64444  18
   9  -4  -2 4.48148 0.49247  17
   8  -4  -2 29.7879 1.97357  18
   8  -4  -2 28.2318 1.85606  17
   7  -4  -2 0.81867 0.55410  18
   7  -4  -2 1.44051 0.62687  17
   7  -4  -2 1.26482 0.40940  16
   6  -4  -2 33.9996 2.05865  16
   6  -4  -2 36.3542 2.42591  18
   6  -4  -2 34.4064 2.14376  17
   6  -4  -2 34.5304 2.38440  15
   6  -4  -2 30.6921 2.82898   7
   5  -4  -2 2.49079 0.95228   7
   5  -4  -2 1.86827 0.14207  10
   5  -4  -2 2.32934 0.53935  15
   5  -4  -2 2.08165 0.47235  16
   5  -4  -2 1.39224 0.65438  14
   5  -4  -2 2.10565 0.43320  17
   5  -4  -2 1.95000 0.63885  18
   4  -4  -2 16.7963 1.34954  14
   4  -4  -2 16.5636 1.29210  18
   4  -4  -2 15.7301 0.93356  10
   4  -4  -2 17.6424 1.36093  15
   4  -4  -2 18.3460 1.16324  16
   4  -4  -2 18.8099 1.24195  17
   4  -4  -2 18.0654 1.58371   7
   3  -4  -2 11.4165 1.25201   7
   3  -4  -2 13.8101 1.49918   6
   2  -4  -2 186.329 11.3824   4
   2  -4  -2 211.110 11.2812   7
   2  -4  -2 223.984 11.5229   6
   1  -4  -2 76.4316 4.60513   5
   1  -4  -2 72.6415 4.25922   7
   1  -4  -2 78.0753 4.53082   6
   0  -4  -2 1274.64 64.4138   2
   0  -4  -2 1230.98 64.3227   1
   0  -4  -2 1213.60 64.4314   3
   0  -4  -2 1276.58 64.7017   5
   0  -4  -2 1180.95 64.4229   3
   0  -4  -2 1131.92 64.3072   7
   0  -4  -2 1193.70 64.3450   1
   0  -4  -2 1248.69 64.6507   6
   0  -4  -2 1191.04 64.3750   2
   0   4   2 1235.12 64.3469   1
   0   4   2 1228.42 64.3289   1
  -1  -4  -2 1270.98 66.4289   1
  -1  -4  -2 1361.45 66.5580   5
  -1  -4  -2 1097.62 66.1287   7
  -1  -4  -2 1151.08 66.1836   2
  -1  -4  -2 1272.71 66.5304   6
  -1  -4  -2 1329.20 66.3175   2
  -1  -4  -2 1121.91 66.3604   3
  -1  -4  -2 1353.19 66.5192   3
  -1  -4  -2 1281.78 66.3171   1
   1   4   2 1277.46 66.4132   1
   1   4   2 1283.81 66.3252   1
  -2  -4  -2 1327.26 66.9582   5
  -2  -4  -2 1247.90 66.9889   1
  -2  -4  -2 1167.49 66.8282   1
  -2  -4  -2 1308.11 66.8615   2
  -2  -4  -2 1220.32 67.0228   6
  -2  -4  -2 1305.45 67.1185   3
   2   4   2 1290.34 66.8765   1
   2   4   2 1235.27 66.9629   1
  -3  -4  -2 57.8683 3.47737   5
  -3  -4  -2 60.9908 3.53475   2
  -3  -4  -2 56.1308 3.64023   1
  -3  -4  -2 58.1248 3.98391   3
  -3  -4  -2 57.0751 3.53547   1
   3   4   2 52.4737 3.61331   1
   3   4   2 55.9893 3.55830   1
  -4  -4  -2 183.205 10.4103   1
  -4  -4  -2 160.337 10.2345   1
  -4  -4  -2 194.680 10.2471   2
  -4  -4  -2 188.645 10.0908   5
  -4  -4  -2 199.449 10.7833   3
   4   4   2 194.125 10.2908   2
   4   4   2 171.504 10.2647   1
   4   4   2 177.124 10.7265   3
  -5  -4  -2 1001.28 53.2727   2
  -5  -4  -2 1024.79 53.8940   3
   5   4   2 1041.69 53.6402   3
   5   4   2 930.871 53.1041   2
   6   4   2 1.85110 1.29989   3
   6   4   2 0.75964 0.72954   2
   7   4   2 5.75070 1.17599   2
   7   4   2 5.86859 0.56053   8
   7   4   2 6.02092 1.72466   3
   8   4   2 77.6698 5.61168   4
   8   4   2 69.2187 4.15168   9
   8   4   2 73.7981 4.87934   2
   8   4   2 76.6569 4.02178   8
   9   4   2 44.1095 4.67679   4
   9   4   2 57.2721 2.99785   8
   9   4   2 56.7072 3.18044   9
  10   4   2 57.7208 2.92613   8
  10   4   2 53.8182 3.12395   9
  10   4   2 54.2545 3.16856  11
  10   4   2 50.5808 3.08778  10
  11   4   2 1.29363 0.40191   9
  11   4   2 0.95074 0.49326  10
  11   4   2 1.36850 0.54432  11
  12   4   2 13.0398 0.91578  11
   8  -5  -2 74.3615 4.23030  18
   7  -5  -2 54.4357 3.09047  17
   7  -5  -2 52.6188 3.19845  18
   7  -5  -2 51.4673 3.03047  16
   6  -5  -2 29.1126 1.91461  17
   6  -5  -2 29.5519 1.99882  15
   6  -5  -2 30.0716 1.91262  16
   6  -5  -2 31.6686 2.18051  18
   5  -5  -2 283.039 14.7670  16
   5  -5  -2 271.311 14.9199  14
   5  -5  -2 241.349 15.3006   7
   5  -5  -2 272.365 14.9893  18
   5  -5  -2 305.981 14.8809  17
   5  -5  -2 281.851 14.9116  15
   4  -5  -2 0.71375 0.42626  13
   4  -5  -2 0.13094 0.55659  14
   4  -5  -2 0.79110 0.71429   7
   4  -5  -2 1.10244 0.46445  17
   4  -5  -2 -0.0828 0.52954  15
   4  -5  -2 0.03386 0.26962  16
   4  -5  -2 0.03410 0.51854  18
   3  -5  -2 92.3283 5.25992  13
   3  -5  -2 102.127 5.38590  14
   3  -5  -2 86.2492 5.18841  12
   3  -5  -2 94.9555 5.64831   7
   3  -5  -2 88.1442 5.37784  18
   3  -5  -2 103.073 5.34289  15
   3  -5  -2 98.9583 5.25941  17
   3  -5  -2 96.1513 5.86584   6
   3  -5  -2 97.7388 5.18866  16
   2  -5  -2 6.75401 0.88249  14
   2  -5  -2 7.21701 1.12666   6
   2  -5  -2 6.58829 0.67433  15
   2  -5  -2 10.4433 1.02653   7
   1  -5  -2 178.420 9.58907   6
   1  -5  -2 153.017 9.23697   7
   1  -5  -2 178.208 9.74885   5
   0  -5  -2 313.684 16.3892   5
   0  -5  -2 311.297 15.7240   2
   0  -5  -2 275.800 15.7494   1
   0  -5  -2 303.175 16.2546   6
   0  -5  -2 304.107 15.7088   2
   0  -5  -2 290.090 15.7871   3
   0  -5  -2 315.007 15.8334   3
   0   5   2 263.029 15.7496   1
  -1  -5  -2 314.285 16.4740   5
  -1  -5  -2 327.269 16.2903   3
  -1  -5  -2 310.211 16.4451   6
  -1  -5  -2 265.830 15.9503   2
  -1  -5  -2 268.019 16.1214   3
  -1  -5  -2 314.753 16.0825   2
  -2  -5  -2 255.078 14.3167   6
  -2  -5  -2 265.984 14.0877   2
  -2  -5  -2 251.718 14.2381   5
  -2  -5  -2 261.726 14.2954   3
  -3  -5  -2 146.089 8.18839   2
  -3  -5  -2 136.545 8.41991   6
  -3  -5  -2 144.880 8.24371   5
  -3  -5  -2 151.441 8.57603   3
  -4  -5  -2 78.3433 5.13106   3
  -4  -5  -2 77.1420 4.60068   5
  -4  -5  -2 71.7974 4.63248   2
  -5  -5  -2 31.4130 3.12712   3
  -5  -5  -2 29.6759 2.41365   2
   7   5   2 -0.0505 0.30178   8
   8   5   2 85.1357 4.62108   8
   9   5   2 150.383 8.11072   8
   9   5   2 153.376 8.25448   9
  10   5   2 529.727 27.6399   9
  10   5   2 511.986 27.4911   8
  11   5   2 32.9204 2.00015  11
  12   5   2 14.4391 0.99049  11
   7  -6  -2 224.385 12.7781  18
   7  -6  -2 250.035 12.6360  16
   6  -6  -2 2.92933 0.57300  16
   6  -6  -2 5.06537 0.69109  18
   6  -6  -2 4.18800 0.66806  17
   5  -6  -2 1.39631 0.54772  15
   5  -6  -2 0.88790 0.37733  16
   5  -6  -2 2.26793 0.60476  14
   5  -6  -2 1.31448 0.65131  18
   5  -6  -2 0.56253 0.41390  17
   4  -6  -2 3.64343 0.49645  16
   4  -6  -2 4.12012 0.77083  18
   4  -6  -2 6.00689 0.75583  14
   4  -6  -2 3.55420 0.64663  17
   4  -6  -2 4.84599 0.58017  13
   4  -6  -2 3.85240 0.77043  15
   3  -6  -2 711.569 37.4627  13
   3  -6  -2 639.503 37.5563  18
   3  -6  -2 668.981 37.3877  12
   3  -6  -2 731.888 37.4395  17
   3  -6  -2 762.892 37.5306  15
   3  -6  -2 741.015 37.5680  14
   3  -6  -2 732.491 37.3778  16
   3  -6  -2 663.726 38.0734   6
   2  -6  -2 0.26978 0.30442  12
   2  -6  -2 -0.0286 0.31235  17
   2  -6  -2 0.37537 0.76788   6
   2  -6  -2 -0.0643 0.35811  14
   2  -6  -2 0.16745 0.38380  13
   2  -6  -2 0.41391 0.23684  16
   2  -6  -2 0.28996 0.42526  15
   1  -6  -2 25.7759 2.22451   5
   1  -6  -2 22.6376 1.30044  10
   1  -6  -2 24.5323 1.58309  13
   1  -6  -2 23.2354 1.45616  16
   1  -6  -2 23.9571 1.62643  14
   1  -6  -2 25.1402 2.12833   6
   1  -6  -2 25.3555 1.54044  15
   1  -6  -2 23.8103 1.48696  12
   0  -6  -2 2.84993 0.45221  13
   0  -6  -2 2.51321 0.91616   5
   0  -6  -2 2.72572 0.83473   6
   0  -6  -2 1.80111 0.45167  14
  -1  -6  -2 74.2090 4.35442   3
  -1  -6  -2 72.4905 4.15414   2
  -1  -6  -2 73.1450 4.71098   6
  -1  -6  -2 76.0983 4.80034   5
  -2  -6  -2 18.6237 1.85826   5
  -2  -6  -2 19.5555 1.94635   6
  -2  -6  -2 19.3195 1.84159   3
  -2  -6  -2 18.6338 1.60059   2
  -3  -6  -2 155.688 8.92698   2
  -3  -6  -2 157.042 9.09039   5
  -3  -6  -2 152.468 9.23416   6
  -3  -6  -2 164.238 9.23581   3
  -4  -6  -2 532.496 29.3383   3
  -4  -6  -2 544.342 29.0020   5
  -4  -6  -2 532.659 28.9496   2
  -4  -6  -2 533.782 29.3246   6
  -5  -6  -2 124.905 7.96580   3
  -5  -6  -2 129.265 7.44822   2
  -5  -6  -2 119.563 6.67206   8
  -6  -6  -2 0.07005 0.37930   8
  -6  -6  -2 -0.8606 1.39496   3
  -7  -6  -2 189.661 10.1866   8
   8   6   2 221.053 11.7795   8
   9   6   2 89.6167 4.86793   8
  10   6   2 1.74113 0.35425   8
  11   6   2 69.7007 3.89978  11
  12   6   2 0.43409 0.39265  11
   6  -7  -2 55.4430 3.01646  17
   6  -7  -2 51.6124 2.98137  16
   5  -7  -2 7.16930 0.84343  15
   5  -7  -2 8.13647 0.72228  16
   5  -7  -2 7.95093 0.71437  17
   5  -7  -2 6.23713 0.81815  18
   4  -7  -2 3.66137 0.63263  15
   4  -7  -2 1.80052 0.75296  14
   4  -7  -2 3.01407 0.56804  17
   4  -7  -2 3.20341 0.55519  16
   4  -7  -2 2.48158 0.48875  13
   3  -7  -2 91.5589 4.79242  15
   3  -7  -2 78.8378 4.63635  17
   3  -7  -2 76.7639 4.61338  12
   3  -7  -2 89.4139 4.87518  14
   3  -7  -2 82.8631 4.73836  13
   3  -7  -2 83.8416 4.60818  16
   2  -7  -2 1.19834 0.40289  12
   2  -7  -2 0.31734 0.89523   6
   2  -7  -2 1.34708 0.43020  15
   2  -7  -2 0.80332 0.41678  17
   2  -7  -2 0.51094 0.51236  13
   2  -7  -2 0.70110 0.62858  14
   2  -7  -2 1.13982 0.30319  16
   1  -7  -2 25.3879 1.58524  12
   1  -7  -2 22.5785 2.27042   6
   1  -7  -2 25.3000 1.69411  13
   1  -7  -2 24.8010 1.52093  16
   1  -7  -2 23.2961 1.62004  11
   1  -7  -2 23.8776 1.61228  15
   1  -7  -2 26.7892 1.85403  14
   0  -7  -2 2.02278 0.25092  10
   0  -7  -2 1.56281 0.40381  12
   0  -7  -2 1.29384 0.96485   5
   0  -7  -2 2.56472 0.43000  15
   0  -7  -2 1.32712 0.84755   6
   0  -7  -2 2.24900 0.37254  16
   0  -7  -2 3.79211 0.46377  13
   0  -7  -2 1.96516 0.61890  14
  -1  -7  -2 256.652 13.9468   5
  -1  -7  -2 248.498 13.1524  14
  -1  -7  -2 250.081 12.9756  12
  -1  -7  -2 231.562 12.8941  10
  -1  -7  -2 208.996 12.7944   9
  -1  -7  -2 253.374 13.0238  13
  -1  -7  -2 257.797 13.7921   6
  -1  -7  -2 242.938 13.0606  15
  -2  -7  -2 28.7419 2.16825   3
  -2  -7  -2 25.9352 1.53708   9
  -2  -7  -2 24.5514 1.55442  10
  -2  -7  -2 25.3531 2.30977   6
  -2  -7  -2 27.3570 1.90949   2
  -2  -7  -2 25.7387 1.63658  13
  -2  -7  -2 25.5523 1.73435  15
  -2  -7  -2 25.3775 1.59886  12
  -2  -7  -2 26.6989 2.46111   5
  -2  -7  -2 25.3760 1.81401  14
  -3  -7  -2 252.704 13.4283   3
  -3  -7  -2 248.612 13.6255   6
  -3  -7  -2 228.599 12.6155   9
  -3  -7  -2 239.302 13.1193   2
  -3  -7  -2 239.625 12.5921  10
  -3  -7  -2 226.304 12.4641   8
  -3  -7  -2 230.046 12.7665  14
  -3  -7  -2 217.332 12.6066  13
  -3  -7  -2 244.352 13.4660   5
  -3  -7  -2 242.344 12.7540  15
  -4  -7  -2 296.972 16.2680   9
  -4  -7  -2 324.314 17.0992   5
  -4  -7  -2 326.505 17.4109   6
  -4  -7  -2 284.357 16.2052  10
  -4  -7  -2 306.874 17.2214   3
  -4  -7  -2 290.291 16.1287   8
  -4  -7  -2 289.709 16.3490  14
  -4  -7  -2 330.527 16.9666   2
  -5  -7  -2 1291.68 69.2935   9
  -5  -7  -2 1328.26 70.0335   2
  -5  -7  -2 1325.25 69.1680   8
  -5  -7  -2 1394.57 70.5954   6
  -5  -7  -2 1306.96 70.4801   3
  -5  -7  -2 1228.44 69.2201  10
  -6  -7  -2 110.980 6.17660   9
  -6  -7  -2 106.402 6.99070   2
  -6  -7  -2 97.5899 7.45023   3
  -6  -7  -2 114.692 6.03448   8
  -6  -7  -2 123.999 7.66448   6
  -7  -7  -2 3.16678 0.44971   8
  -8  -7  -2 2.35204 0.55610   8
  -9  -7  -2 18.2744 1.36286   8
   9   7   2 18.4024 1.21882   8
 -10  -7  -2 1.59997 0.40238   8
  10   7   2 0.63730 0.36324   8
   5  -8  -2 53.7363 2.93466  17
   5  -8  -2 51.1900 2.90037  16
   4  -8  -2 55.3457 3.38377  14
   4  -8  -2 61.5338 3.23310  16
   4  -8  -2 59.4150 3.37917  15
   4  -8  -2 52.7012 3.18100  17
   3  -8  -2 0.79366 0.59990  13
   3  -8  -2 0.22355 0.70101  14
   3  -8  -2 0.84059 0.64194  15
   3  -8  -2 0.20827 0.41960  16
   2  -8  -2 168.337 9.08979  14
   2  -8  -2 154.883 8.86715  12
   2  -8  -2 173.509 9.01401  15
   2  -8  -2 167.491 8.98381  13
   2  -8  -2 157.368 8.82681  16
   1  -8  -2 17.7414 1.45982  15
   1  -8  -2 19.8110 1.63481  14
   1  -8  -2 19.9898 1.47273  13
   1  -8  -2 16.1883 1.14975  16
   1  -8  -2 19.1838 1.32961  12
   0  -8  -2 77.2189 4.23874  15
   0  -8  -2 77.9489 4.35418  14
   0  -8  -2 78.1195 4.22081  13
   0  -8  -2 66.4517 3.93219  10
   0  -8  -2 67.2485 4.81879   6
   0  -8  -2 77.6056 4.17773  12
  -1  -8  -2 1.09874 0.67560  14
  -1  -8  -2 0.72665 0.47268  13
  -1  -8  -2 0.90694 0.30005  10
  -1  -8  -2 -0.0165 0.98857   5
  -1  -8  -2 0.94136 0.49039  15
  -1  -8  -2 0.88546 0.43100  12
  -1  -8  -2 0.94827 0.95026   6
  -2  -8  -2 2.22594 0.43064  10
  -2  -8  -2 1.59967 0.60966   3
  -2  -8  -2 1.51819 0.40613  15
  -2  -8  -2 1.51231 0.83256   6
  -2  -8  -2 1.00201 0.47890  14
  -2  -8  -2 1.70682 0.23739   9
  -2  -8  -2 1.02775 0.44492   2
  -2  -8  -2 0.83416 1.04576   5
  -2  -8  -2 1.71303 0.46865  13
  -3  -8  -2 210.880 11.9330   2
  -3  -8  -2 210.648 12.1231   3
  -3  -8  -2 220.751 12.6757   6
  -3  -8  -2 225.244 11.5198  10
  -3  -8  -2 222.555 11.7048  15
  -3  -8  -2 213.165 11.4895   9
  -3  -8  -2 217.359 11.7349  14
  -3  -8  -2 203.529 11.5494  13
  -3  -8  -2 211.846 12.5862   5
  -4  -8  -2 367.728 21.3606   3
  -4  -8  -2 389.563 20.5117   9
  -4  -8  -2 378.374 21.4639   5
  -4  -8  -2 393.437 20.4874  10
  -4  -8  -2 363.627 20.2994   8
  -4  -8  -2 388.917 20.6712  14
  -4  -8  -2 386.051 21.7092   6
  -4  -8  -2 413.093 20.6868  15
  -5  -8  -2 249.890 14.8258   2
  -5  -8  -2 264.086 13.9078   8
  -5  -8  -2 271.143 14.0458  10
  -5  -8  -2 260.573 15.3063   3
  -5  -8  -2 265.132 14.1852  14
  -5  -8  -2 260.118 15.3887   6
  -5  -8  -2 261.449 14.0925   9
  -6  -8  -2 242.110 12.4735   8
  -6  -8  -2 222.655 12.5641  10
  -6  -8  -2 224.781 14.0420   6
  -6  -8  -2 244.260 12.6656   9
  -7  -8  -2 24.2375 2.95925   6
  -7  -8  -2 24.8312 1.89464   9
  -7  -8  -2 27.4857 1.66592   8
  -8  -8  -2 31.9186 1.97561   8
  -9  -8  -2 268.325 14.3079   8
  10   8   2 24.6407 1.49207   8
   4  -9  -2 252.295 13.4775  15
   3  -9  -2 0.60768 0.61590  15
   3  -9  -2 0.47530 0.67105  14
   3  -9  -2 -0.2114 0.24043  16
   2  -9  -2 32.7225 2.09745  14
   2  -9  -2 31.2784 2.07106  13
   2  -9  -2 31.1285 2.10324  15
   1  -9  -2 37.5024 2.34011  13
   1  -9  -2 38.1780 2.35516  15
   1  -9  -2 37.1526 2.43959  14
   0  -9  -2 538.413 29.0797  14
   0  -9  -2 545.557 28.9773  15
   0  -9  -2 548.423 28.9632  13
  -1  -9  -2 -0.1200 0.19518  10
  -1  -9  -2 -0.2637 0.35672  15
  -1  -9  -2 0.50194 0.72396  14
  -1  -9  -2 -0.0733 0.38939  13
  -2  -9  -2 41.5914 2.58715  14
  -2  -9  -2 38.9579 2.24447  10
  -2  -9  -2 39.3251 2.43594  13
  -2  -9  -2 41.2630 2.54615  15
  -2  -9  -2 31.5755 3.05586   6
  -3  -9  -2 491.471 25.4153  15
  -3  -9  -2 488.219 25.2273  10
  -3  -9  -2 487.765 25.4832  14
  -3  -9  -2 429.816 26.2836   6
  -3  -9  -2 475.726 25.2923  13
  -3  -9  -2 475.040 25.0965   9
  -4  -9  -2 144.792 7.93160  10
  -4  -9  -2 154.022 8.14599  15
  -4  -9  -2 132.716 9.13650   6
  -4  -9  -2 149.741 7.90091   9
  -4  -9  -2 145.387 8.11619  14
  -5  -9  -2 14.6715 2.48551   6
  -5  -9  -2 16.6865 1.31019   9
  -5  -9  -2 18.5778 1.54030  15
  -5  -9  -2 17.0872 1.30219  10
  -5  -9  -2 16.2318 1.33192  14
  -6  -9  -2 18.3828 1.47721   9
  -6  -9  -2 18.5799 1.62214  15
  -6  -9  -2 17.7919 1.41259  10
  -7  -9  -2 71.0531 4.10861   9
  -7  -9  -2 69.9759 3.84272   8
  -8  -9  -2 61.4360 3.58344   9
  -9  -9  -2 -0.0766 0.42988   9
   2 -10  -2 158.405 8.76223  15
   2 -10  -2 165.464 8.83735  14
   1 -10  -2 128.460 7.00460  15
   1 -10  -2 120.624 7.04705  14
   1 -10  -2 132.805 7.01081  13
   0 -10  -2 34.1114 2.11382  13
   0 -10  -2 30.3619 2.12116  14
   0 -10  -2 31.2756 2.02198  15
  -1 -10  -2 31.7311 2.09030  15
  -1 -10  -2 30.4524 2.07161  13
  -1 -10  -2 31.4414 2.27199  14
  -2 -10  -2 49.0883 2.91798  15
  -2 -10  -2 49.5845 3.03039  14
  -2 -10  -2 45.7405 2.62717  10
  -2 -10  -2 49.0391 2.91527  13
  -3 -10  -2 19.8464 1.45430  15
  -3 -10  -2 18.5212 1.28068  10
  -3 -10  -2 17.4814 1.31376  13
  -3 -10  -2 20.5892 1.55600  14
  -4 -10  -2 80.3465 4.73655  14
  -4 -10  -2 79.4628 4.47789  10
  -4 -10  -2 81.8357 4.64411  15
  -5 -10  -2 235.450 12.3829  10
  -5 -10  -2 222.172 12.5239  14
  -5 -10  -2 233.852 12.5246  15
  -6 -10  -2 9.89429 0.98553   9
  -6 -10  -2 9.62134 1.02118  15
  -6 -10  -2 9.93694 1.05608  10
  -7 -10  -2 61.5314 3.75917  15
  -7 -10  -2 60.1695 3.54529  10
  -7 -10  -2 65.0556 3.60189   9
  -8 -10  -2 264.372 14.6377  15
  -8 -10  -2 277.257 14.5090   9
  -9 -10  -2 63.7146 3.69341  15
 -10 -10  -2 16.0076 1.12747  15
   1 -11  -2 23.8090 1.52848  14
   0 -11  -2 4.09835 0.55360  15
   0 -11  -2 3.71339 0.59837  14
  -1 -11  -2 0.32404 0.50902  15
  -1 -11  -2 1.01492 0.74174  14
  -2 -11  -2 0.94748 0.53840  14
  -2 -11  -2 0.26202 0.51430  15
  -3 -11  -2 17.7846 1.26574  13
  -3 -11  -2 16.5274 1.34250  14
  -3 -11  -2 16.3668 1.22251  15
  -3 -11  -2 16.2268 0.94158  10
  -4 -11  -2 3.90788 0.44458  10
  -4 -11  -2 3.10584 0.78256  14
  -4 -11  -2 2.52372 0.50644  15
  -5 -11  -2 12.5002 1.20449  14
  -5 -11  -2 13.5976 0.94034  10
  -5 -11  -2 12.0493 1.07603  15
  -6 -11  -2 213.832 11.0647  10
  -6 -11  -2 198.538 11.1526  15
  -7 -11  -2 50.3715 2.83367  15
  -7 -11  -2 42.4558 2.64563  10
  -9 -11  -2 10.4070 0.81022  15
  -1 -12  -2 34.7278 2.07432  14
  -3 -12  -2 164.299 8.92371  14
  -4 -12  -2 23.6774 1.54962  15
  -4 -12  -2 26.6823 1.62066  14
  -5 -12  -2 93.4336 5.48619  14
  -5 -12  -2 106.127 5.31567  10
  -6 -12  -2 27.5881 1.67472  15
  -6 -11   3 7.24018 0.59107  10
  -6 -11   3 6.42712 0.73466  14
  -5 -11   3 3.70828 0.41568  10
  -5 -11   3 2.51266 0.58132  14
  -4 -11   3 0.45647 0.67356  14
  -4 -11   3 0.77425 0.22129  10
  -3 -11   3 2.88167 0.39086  13
  -3 -11   3 3.44753 0.72714  14
  -2 -11   3 0.05846 0.28464  13
  -2 -11   3 0.44111 0.43697  14
  -1 -11   3 46.3080 2.63323  13
  -8 -10   3 7.07879 0.77074   9
  -8 -10   3 4.90998 0.72728  14
  -7 -10   3 84.7585 4.78157  14
  -7 -10   3 84.1711 4.64402   9
  -6 -10   3 86.3685 4.69502   9
  -6 -10   3 84.7813 4.98612  14
  -6 -10   3 87.6245 4.75391  10
  -5 -10   3 0.50952 0.44321  10
  -5 -10   3 1.59113 0.59639  14
  -4 -10   3 10.5836 1.30861  14
  -4 -10   3 8.85098 0.72620  10
  -3 -10   3 134.917 7.49951  10
  -3 -10   3 134.982 7.62560  13
  -3 -10   3 151.359 7.86331  14
  -2 -10   3 142.199 7.75614  14
  -2 -10   3 136.845 7.61007  13
  -1 -10   3 75.9706 4.34560  13
  -1 -10   3 77.1711 4.41584  14
   0 -10   3 1.81676 0.43104  12
   0 -10   3 1.71276 0.51036  14
   0 -10   3 0.97776 0.41033  13
   1 -10   3 9.89873 0.80159  13
   1 -10   3 9.96524 0.80322  12
   1 -10   3 7.71826 0.88066  14
   2 -10   3 13.1798 0.90056  13
  -9  -9   3 4.45397 0.59127   9
  -8  -9   3 0.96835 0.19496   8
  -8  -9   3 1.04305 0.45642  14
  -8  -9   3 0.46525 0.61465   9
  -7  -9   3 10.9196 1.00581  10
  -7  -9   3 11.5032 1.22350   9
  -7  -9   3 11.3074 1.11694  14
  -6  -9   3 7.48211 1.00393  14
  -6  -9   3 6.66526 0.83385   9
  -6  -9   3 6.54339 0.72894  10
  -5  -9   3 211.155 11.1009  14
  -5  -9   3 200.996 10.7875  10
  -5  -9   3 190.282 10.7948   9
  -4  -9   3 7.26502 0.93831  14
  -4  -9   3 6.51665 0.65296  10
  -4  -9   3 5.97466 0.65271   9
  -3  -9   3 1.27807 0.39983  10
  -3  -9   3 1.41008 0.60245  14
  -3  -9   3 0.87459 0.48932  13
  -2  -9   3 432.713 22.6664  10
  -2  -9   3 427.234 22.7727  12
  -2  -9   3 412.415 22.8220  13
  -2  -9   3 440.104 23.0230  14
  -1  -9   3 87.9947 5.02631  10
  -1  -9   3 100.082 5.49360  14
  -1  -9   3 95.8922 5.33124  13
  -1  -9   3 94.6037 5.23482  12
   0  -9   3 86.9804 5.09446  14
   0  -9   3 91.1868 5.00283  13
   0  -9   3 86.0260 4.91716  12
   1  -9   3 52.5898 3.05202  13
   1  -9   3 49.5610 3.12445  14
   1  -9   3 53.4149 3.08957  12
   2  -9   3 0.78983 0.37881  14
   2  -9   3 1.20236 0.39555  12
   2  -9   3 0.34589 0.53447  13
   3  -9   3 3.42754 0.42576  12
   3  -9   3 2.34294 0.40568  13
   4  -9   3 8.81670 0.63489  12
  10   8  -3 15.1459 0.93933   8
 -10  -8   3 16.4670 1.03489   8
   9   8  -3 6.29988 0.54881   8
  -9  -8   3 5.32995 0.59269   8
  -8  -8   3 356.152 19.9161   9
  -8  -8   3 378.467 20.0036  14
  -8  -8   3 383.521 19.7891   8
  -7  -8   3 7.86188 0.89469   9
  -7  -8   3 7.95337 0.83817   8
  -7  -8   3 7.11196 0.99971  14
  -6  -8   3 16.2205 1.21810  10
  -6  -8   3 17.0715 1.59887  14
  -6  -8   3 15.3053 1.15234   8
  -6  -8   3 15.9898 1.25706   9
  -5  -8   3 115.471 6.17472  10
  -5  -8   3 102.590 6.23519  15
  -5  -8   3 111.175 6.24390   9
  -5  -8   3 113.483 6.01429   8
  -5  -8   3 121.613 6.51907  14
  -4  -8   3 2.04640 1.02488   5
  -4  -8   3 3.30054 0.57948   9
  -4  -8   3 3.72889 0.50683  10
  -4  -8   3 2.54229 0.80495  14
  -3  -8   3 23.3488 1.65740  13
  -3  -8   3 25.6687 2.94381   5
  -3  -8   3 25.9321 1.59862   9
  -3  -8   3 28.7097 2.03266  14
  -3  -8   3 25.0323 1.55295  10
  -3  -8   3 22.5747 1.52207  12
  -2  -8   3 107.647 5.83488  10
  -2  -8   3 117.720 6.23125  14
  -2  -8   3 105.698 5.96922  13
  -2  -8   3 107.065 5.92180  12
  -2  -8   3 104.609 5.72527   9
  -2  -8   3 103.446 7.30262   5
  -1  -8   3 292.865 14.9416  14
  -1  -8   3 272.523 14.5596  10
  -1  -8   3 248.098 15.9355   5
  -1  -8   3 278.766 14.7108  12
  -1  -8   3 275.278 14.7709  13
   0  -8   3 1.50421 0.42562  12
   0  -8   3 2.13958 0.75694  14
   0  -8   3 1.12089 1.43776   5
   0  -8   3 1.53762 0.60675  13
   0  -8   3 1.41620 0.19960  10
   1  -8   3 5.71200 0.70049  13
   1  -8   3 6.31081 0.93968  11
   1  -8   3 5.42106 0.89560  14
   1  -8   3 5.32390 0.73239  12
   2  -8   3 3.70913 0.70576  14
   2  -8   3 2.97498 0.80600  11
   2  -8   3 2.33527 0.60285  12
   2  -8   3 3.38653 0.67148  13
   3  -8   3 17.6791 1.31848  12
   3  -8   3 16.3694 1.34372  11
   3  -8   3 15.9384 1.27520  13
   4  -8   3 4.56905 0.74185  11
   4  -8   3 6.08812 0.64204  12
   4  -8   3 6.11460 0.58351  13
   5  -8   3 19.2720 1.19085  12
   5  -8   3 18.6485 1.26117  11
  10   7  -3 33.3826 1.88381   8
 -10  -7   3 34.3758 1.96936   8
   9   7  -3 91.0985 5.03789   8
  -9  -7   3 95.6717 5.11993   8
  -8  -7   3 9.96645 1.14361  14
  -8  -7   3 9.53907 0.88328   8
  -7  -7   3 243.386 13.5076   9
  -7  -7   3 254.248 13.3219   8
  -6  -7   3 246.713 13.2170   9
  -6  -7   3 243.219 13.0873   8
  -5  -7   3 46.2127 2.81460   9
  -5  -7   3 38.7759 3.81776   3
  -5  -7   3 48.3986 2.70828   8
  -5  -7   3 47.3402 2.72438  10
  -5  -7   3 50.8778 2.98950  14
  -5  -7   3 45.4533 3.61376   2
  -4  -7   3 76.6103 4.23305  10
  -4  -7   3 74.0117 5.18531   3
  -4  -7   3 76.0802 5.05724   2
  -4  -7   3 81.5823 4.54501  14
  -4  -7   3 75.6835 5.29701   5
  -4  -7   3 74.5608 4.14755   8
  -4  -7   3 75.8583 4.29078   9
  -3  -7   3 399.720 22.3176   5
  -3  -7   3 401.540 21.9080   3
  -3  -7   3 421.454 21.4268  14
  -3  -7   3 392.896 21.1650   9
  -3  -7   3 401.034 21.7081   2
  -3  -7   3 386.379 21.2059  13
  -3  -7   3 380.474 21.1431  12
  -3  -7   3 404.895 21.1408  10
  -2  -7   3 20.0490 1.32015  12
  -2  -7   3 20.4039 1.90100   3
  -2  -7   3 21.2071 1.81315   2
  -2  -7   3 20.2871 1.30879   9
  -2  -7   3 21.8293 1.30790  10
  -2  -7   3 20.9892 1.39756  13
  -2  -7   3 22.7272 1.72633  14
  -2  -7   3 20.1386 2.46196   5
  -1  -7   3 2.67918 0.43301   3
  -1  -7   3 3.04294 0.45245   2
  -1  -7   3 3.30979 0.71799  14
  -1  -7   3 3.84241 0.33353   9
  -1  -7   3 4.71903 0.61260  13
  -1  -7   3 4.20872 0.54642  12
  -1  -7   3 3.86853 0.42559  10
  -1  -7   3 4.97543 1.43746   5
   0  -7   3 332.078 17.5035  12
   0  -7   3 313.471 17.3333  10
   0  -7   3 330.337 17.6562  14
   0  -7   3 347.282 17.6080  11
   0  -7   3 327.084 17.5623  13
   0  -7   3 314.329 18.7150   5
   1  -7   3 49.0722 2.83679  12
   1  -7   3 49.1397 2.88107  13
   1  -7   3 45.1360 2.93402  14
   1  -7   3 41.1765 3.70581   5
   1  -7   3 49.3413 2.97771  11
   2  -7   3 74.1718 4.32022  18
   2  -7   3 72.6477 4.10103  12
   2  -7   3 75.2742 4.13309  13
   2  -7   3 58.3557 4.87165   5
   2  -7   3 76.5436 4.26586  11
   2  -7   3 67.7605 4.13505  14
   3  -7   3 12.5052 1.04052  12
   3  -7   3 14.2750 1.17136  13
   3  -7   3 11.1681 1.01387  14
   3  -7   3 14.6233 1.45581  18
   3  -7   3 12.5968 1.35589  11
   4  -7   3 218.436 12.4081  13
   4  -7   3 240.167 12.5850  11
   4  -7   3 239.754 12.4504  12
   4  -7   3 226.992 12.6020  18
   5  -7   3 10.0679 0.79685  12
   5  -7   3 9.01646 0.97106  11
   5  -7   3 9.79033 0.96148  18
   6  -7   3 99.1664 5.45848  11
  11   6  -3 0.43212 0.29945   9
  10   6  -3 2.66004 0.34404   8
   9   6  -3 53.2274 2.92584   8
   9   6  -3 53.2030 3.16118  18
  -9  -6   3 50.8322 3.06713   8
   8   6  -3 30.3005 1.80514   8
  -8  -6   3 32.5468 2.01607   8
  -7  -6   3 38.2344 2.31219   8
  -6  -6   3 3.67659 0.54007   8
  -5  -6   3 13.2862 1.06394   9
  -5  -6   3 12.4515 0.95815   8
  -5  -6   3 9.76786 1.90349   3
  -4  -6   3 10.9995 1.43165   2
  -4  -6   3 11.0287 0.85661  10
  -4  -6   3 11.4598 0.96065   9
  -4  -6   3 11.9712 0.84759   8
  -4  -6   3 12.2463 1.66527   5
  -4  -6   3 11.4184 1.83505   3
  -3  -6   3 27.5511 1.76227  13
  -3  -6   3 32.7645 2.63433   3
  -3  -6   3 27.8792 1.75886   9
  -3  -6   3 33.1353 2.31298   2
  -3  -6   3 27.5846 1.64804   8
  -3  -6   3 28.8015 1.70937  10
  -3  -6   3 32.0291 2.67146   5
  -2  -6   3 504.453 28.8955   8
  -2  -6   3 551.191 29.2167  14
  -2  -6   3 591.546 29.6422   3
  -2  -6   3 525.762 29.0158   9
  -2  -6   3 582.419 29.4396   2
  -2  -6   3 515.761 29.0288  12
  -2  -6   3 538.406 29.0960  13
  -2  -6   3 579.766 30.0618   5
  -2  -6   3 556.056 29.0026  10
  -1  -6   3 5.26698 0.77405   2
  -1  -6   3 4.33980 0.68582  14
  -1  -6   3 4.64444 0.51833  12
  -1  -6   3 3.45511 0.41803  10
  -1  -6   3 5.99295 0.86542   3
  -1  -6   3 4.10210 1.22688   5
  -1  -6   3 3.86353 0.47518   9
  -1  -6   3 4.26316 0.55019  13
  -1  -6   3 4.21789 0.60428  11
   0  -6   3 0.24798 0.20384  10
   0  -6   3 0.23546 0.23910  12
   0  -6   3 0.54991 0.37238  13
   0  -6   3 0.47881 0.42457  11
   0  -6   3 0.95650 0.89813   5
   0  -6   3 -0.2150 0.29742  14
   1  -6   3 313.489 16.8570  18
   1  -6   3 312.973 17.6984   5
   1  -6   3 302.545 16.7822  14
   1  -6   3 295.893 16.5191  10
   1  -6   3 319.721 16.6970  12
   1  -6   3 316.244 16.7403  13
   1  -6   3 328.958 16.8010  11
   2  -6   3 40.2938 3.25520   5
   2  -6   3 39.6249 2.64366  18
   2  -6   3 42.6454 2.43153  13
   2  -6   3 41.2559 2.43940  12
   2  -6   3 42.1815 2.57759  11
   2  -6   3 37.6863 2.31554  17
   2  -6   3 37.1101 2.48194  14
   3  -6   3 212.550 11.2799  13
   3  -6   3 214.593 11.4264  11
   3  -6   3 225.227 11.5036  18
   3  -6   3 178.670 12.7018   4
   3  -6   3 199.664 11.2131  17
   3  -6   3 216.995 11.2879  12
   4  -6   3 2.93822 0.49411  12
   4  -6   3 2.87877 0.61417  17
   4  -6   3 2.67901 0.46150  13
   4  -6   3 3.24490 0.69840  18
   5  -6   3 418.879 22.1529  11
   5  -6   3 420.191 22.2046  18
   5  -6   3 410.899 21.9913  17
   5  -6   3 404.117 22.0031  12
   6  -6   3 0.93955 0.60899  11
   6  -6   3 1.09360 0.40540  12
   6  -6   3 1.46620 0.72272  18
   7  -6   3 4.86530 0.61022  11
   7  -6   3 3.32563 0.59616  18
  11   5  -3 61.6272 3.39027   9
  10   5  -3 0.08399 0.52781   9
  10   5  -3 -0.3187 0.47058  18
  10   5  -3 0.38578 0.24145   8
   9   5  -3 12.7495 0.83938   8
   9   5  -3 12.5398 1.21182  18
   8   5  -3 529.811 28.0103   8
  -6  -5   3 11.4816 0.90867   8
  -5  -5   3 438.995 24.7000   3
  -5  -5   3 428.615 23.5540   8
  -5  -5   3 469.053 24.2441   2
  -4  -5   3 2.96554 0.39505   8
  -4  -5   3 2.69489 0.81943   5
  -4  -5   3 3.01909 0.82595   2
  -4  -5   3 3.00771 1.14516   3
  -3  -5   3 42.0179 2.76166   2
  -3  -5   3 40.6925 3.01893   5
  -3  -5   3 40.0420 3.10077   3
  -2  -5   3 15.0205 1.38423   2
  -2  -5   3 15.8025 1.62689   3
  -2  -5   3 12.3497 1.38467   6
  -2  -5   3 16.4411 1.60333   5
  -1  -5   3 208.504 11.1831   2
  -1  -5   3 204.949 11.3298   3
  -1  -5   3 201.520 11.7179   5
   0  -5   3 243.825 13.0817   2
   0  -5   3 237.987 13.7972   5
   0  -5   3 248.811 13.1750   3
   1  -5   3 486.410 25.8089   4
   1  -5   3 461.537 24.7048  11
   1  -5   3 481.887 25.4979   5
   1  -5   3 457.869 24.6753  13
   1  -5   3 457.693 24.7773  18
   1  -5   3 461.705 24.6341  12
   1  -5   3 448.223 24.5103  10
   2  -5   3 1.74047 0.19184  10
   2  -5   3 2.74260 0.45622  13
   2  -5   3 1.95818 0.42008  17
   2  -5   3 1.61397 0.72254   5
   2  -5   3 1.64294 0.48865  18
   2  -5   3 1.53387 1.17066   4
   2  -5   3 1.60707 0.51464  11
   2  -5   3 1.39361 0.45813  14
   2  -5   3 2.44889 0.44543  12
   3  -5   3 271.351 14.5110  12
   3  -5   3 288.088 14.7214  18
   3  -5   3 270.686 14.4737  17
   3  -5   3 281.521 14.6307  11
   3  -5   3 245.423 15.2027   5
   3  -5   3 269.477 16.0008   4
   3  -5   3 267.841 14.5191  13
   4  -5   3 1.78756 0.43624  16
   4  -5   3 3.09072 0.57493  17
   4  -5   3 2.78448 0.69505  11
   4  -5   3 0.80096 1.34575   4
   4  -5   3 2.75738 0.78105  18
   4  -5   3 1.86584 0.47014  13
   4  -5   3 2.33216 0.51609  12
   5  -5   3 79.0406 4.44047  17
   5  -5   3 76.7287 4.43499  12
   5  -5   3 78.8269 4.67761  18
   5  -5   3 81.0521 4.62224  11
   6  -5   3 155.039 8.47901  18
   6  -5   3 143.735 8.22166  12
   6  -5   3 152.204 8.23936  17
   6  -5   3 156.873 8.41149  11
   7  -5   3 3.28886 0.63095  18
   7  -5   3 3.21579 0.70553  11
   8  -5   3 0.33218 0.42345  18
   8  -5   3 -0.2784 0.43135  11
  11   4  -3 42.9528 2.57915  18
  11   4  -3 44.9127 2.51167  10
  11   4  -3 43.7101 2.43875   9
  10   4  -3 16.3586 0.97332   8
  10   4  -3 15.7683 1.20598  11
  10   4  -3 20.2484 1.32899   9
  10   4  -3 17.5247 1.43327  18
   9   4  -3 21.5961 1.63082  18
   9   4  -3 18.4292 1.35976   9
   9   4  -3 20.7384 1.22749   8
   8   4  -3 0.23333 0.49100   9
   8   4  -3 0.15566 0.28561   8
   7   4  -3 96.7793 5.21849   8
  -4  -4   3 0.09061 0.56059   2
  -4  -4   3 0.70035 0.91081   3
  -4  -4   3 1.27006 0.55797   5
  -3  -4   3 5.45174 0.91798   5
  -3  -4   3 3.48756 1.03578   3
  -3  -4   3 4.92928 0.79016   2
  -2  -4   3 2.48145 0.79365   5
  -2  -4   3 2.03100 0.56963   2
  -2  -4   3 3.56367 0.88182   3
  -1  -4   3 0.29818 0.63333   3
  -1  -4   3 0.52393 0.46698   2
  -1  -4   3 0.32685 0.66462   5
  -1  -4   3 -0.1626 0.29833   6
   0  -4   3 1113.87 55.2566   3
   0  -4   3 1101.43 55.8386   4
   0  -4   3 1062.23 55.6528   5
   0  -4   3 943.958 55.0952   2
   0  -4   3 1110.58 55.1453   2
   0  -4   3 926.604 55.2799   3
   1  -4   3 34.5944 1.97524   3
   1  -4   3 28.5321 1.96489   3
   1  -4   3 31.0692 1.89943   2
   1  -4   3 37.1638 2.73190   4
   1  -4   3 36.5104 1.89948   2
   1  -4   3 35.8376 2.59381   5
   1  -4   3 29.4138 1.95731   1
   2  -4   3 1.21366 0.74371   5
   2  -4   3 1.18395 0.95362   4
   3  -4   3 1.59407 1.08454   4
   3  -4   3 0.72359 0.25465  13
   3  -4   3 0.71485 0.42144  18
   3  -4   3 0.38061 0.26123  12
   3  -4   3 0.60989 0.63731   5
   3  -4   3 0.79278 0.15626  10
   3  -4   3 0.61861 0.39841  17
   3  -4   3 0.64699 0.46102  11
   4  -4   3 12.6798 1.10522  18
   4  -4   3 16.7471 2.32356   4
   4  -4   3 10.8628 0.87450  12
   4  -4   3 10.0922 0.62534  10
   4  -4   3 11.9699 0.90504  16
   4  -4   3 14.1754 1.05155  11
   4  -4   3 10.3326 0.89296  13
   4  -4   3 12.4478 0.99119  17
   5  -4   3 37.3569 2.34425  12
   5  -4   3 43.0007 2.52098  11
   5  -4   3 41.3391 2.37839  17
   5  -4   3 41.0265 2.64518  18
   5  -4   3 34.2503 3.48119   4
   5  -4   3 40.1495 2.34754  16
   6  -4   3 9.41194 1.22875  18
   6  -4   3 9.79246 1.02119  17
   6  -4   3 9.94242 1.00098  11
   6  -4   3 9.05884 0.89573  12
   7  -4   3 17.1944 1.28292  17
   7  -4   3 14.2730 1.31702  18
   7  -4   3 15.9544 1.45548  11
   8  -4   3 8.91399 0.94713  18
   8  -4   3 8.57277 0.90610  11
   9  -4   3 30.8389 2.01542  18
   9  -4   3 35.5925 1.96556  11
  11   3  -3 6.05356 0.58502  10
  11   3  -3 7.63236 0.52908   9
  10   3  -3 54.2820 3.37197  18
  10   3  -3 58.9613 3.21093   9
  10   3  -3 56.7913 3.24041  10
   9   3  -3 3.87639 0.61525  10
   9   3  -3 4.38740 0.68653  18
   9   3  -3 4.26933 0.45454   8
   9   3  -3 3.99281 0.62150   9
   8   3  -3 55.4261 2.92981   8
   8   3  -3 56.3876 3.09426   9
   8   3  -3 43.5523 3.67527   2
   7   3  -3 68.3448 5.53535   3
   7   3  -3 74.3908 4.63514   2
   7   3  -3 70.0184 4.02865   9
   7   3  -3 74.8832 3.91603   8
   6   3  -3 116.925 6.52026   8
   6   3  -3 125.597 7.11653   2
   6   3  -3 126.588 7.92961   3
   5   3  -3 371.278 20.9113   3
   5   3  -3 370.761 20.3120   2
   5   3  -3 385.257 20.1788   7
   4   3  -3 243.983 12.8823   7
   4   3  -3 241.171 13.5147   3
   4   3  -3 237.735 13.0071   2
   4   3  -3 215.597 13.1710   1
  -4  -3   3 235.201 13.0610   2
  -4  -3   3 250.641 13.0921   5
  -4  -3   3 246.195 13.5041   3
   3   3  -3 9.65910 1.01003   2
   3   3  -3 10.9222 1.14343   1
   3   3  -3 9.72842 0.80957   7
   3   3  -3 10.4466 1.22734   1
   3   3  -3 9.91570 1.41172   3
  -3  -3   3 12.5689 1.17717   5
  -3  -3   3 11.8463 1.48319   3
  -3  -3   3 9.85181 1.10752   1
  -3  -3   3 9.32622 1.11339   1
  -3  -3   3 12.0916 1.09366   2
   2   3  -3 739.462 41.6293   1
   2   3  -3 787.197 41.7218   1
  -2  -3   3 812.658 41.8356   3
  -2  -3   3 834.367 41.5795   2
  -2  -3   3 741.702 41.6662   1
  -2  -3   3 793.226 41.7755   5
  -2  -3   3 775.498 41.6729   1
   1   3  -3 11.8799 1.01637   1
   1   3  -3 11.1370 1.05005   1
  -1  -3   3 10.8332 0.98412   1
  -1  -3   3 10.5320 0.92574   2
  -1  -3   3 10.2441 0.95926   1
  -1  -3   3 10.9336 1.31743   3
  -1  -3   3 10.7013 1.25123   5
   0   3  -3 87.6844 4.72899   1
   0   3  -3 85.7132 4.76103   1
   0  -3   3 88.3848 5.04474   5
   0  -3   3 76.5019 4.62239   2
   0  -3   3 94.1951 4.67378   2
   0  -3   3 73.4572 4.59026   6
   0  -3   3 87.7236 4.73494   1
   0  -3   3 85.6669 5.14550   4
   0  -3   3 82.1464 4.73961   1
   0  -3   3 77.6157 4.84184   3
   0  -3   3 85.4445 4.78759   3
  -1   3  -3 643.024 34.9720   1
   1  -3   3 605.154 35.0347   3
   1  -3   3 634.480 35.0007   1
   1  -3   3 708.806 35.0099   3
   1  -3   3 696.393 34.9078   2
   1  -3   3 647.424 34.9574   1
   1  -3   3 712.045 35.5664   4
   1  -3   3 624.846 34.9188   2
   1  -3   3 668.046 35.3528   5
  -2   3  -3 0.29213 0.22549   1
   2  -3   3 0.95146 0.25594   1
   2  -3   3 0.83690 0.34192   3
   2  -3   3 0.66870 0.22865   2
   2  -3   3 0.71343 0.58756   5
   2  -3   3 0.40120 0.22037   2
   2  -3   3 0.56903 0.75297   4
   2  -3   3 0.57592 0.31374   3
   3  -3   3 97.3458 6.04511   4
   3  -3   3 87.8805 5.47496   5
   4  -3   3 233.831 12.0101  18
   4  -3   3 209.649 11.7789  16
   4  -3   3 222.613 11.9168  11
   4  -3   3 207.358 11.8219  12
   4  -3   3 235.872 13.0806   4
   4  -3   3 222.876 11.7017  10
   4  -3   3 219.233 11.8389  17
   5  -3   3 532.859 28.1830  10
   5  -3   3 550.818 28.5224  18
   5  -3   3 538.386 29.7000   4
   5  -3   3 508.787 28.3236  12
   5  -3   3 528.048 28.2841  16
   5  -3   3 546.259 28.4347  11
   5  -3   3 535.813 28.3476  17
   6  -3   3 104.785 5.45805  17
   6  -3   3 103.822 5.55392  11
   6  -3   3 89.2308 6.73068   4
   6  -3   3 101.583 5.61771  18
   6  -3   3 95.1679 5.21218  10
   6  -3   3 91.5954 5.37077  12
   7  -3   3 83.0390 4.66006  17
   7  -3   3 82.2293 4.76119  11
   7  -3   3 83.3047 4.88610  18
   8  -3   3 237.215 13.9904  17
   8  -3   3 276.818 14.1345  11
   8  -3   3 272.308 14.2404  18
   9  -3   3 6.48766 0.78308  11
   9  -3   3 6.41752 0.79657  18
  11   2  -3 0.66581 0.40715  18
  11   2  -3 0.68720 0.26587  10
  10   2  -3 67.6849 4.14777  18
  10   2  -3 72.1270 3.94667  10
  10   2  -3 74.2386 3.90983   9
   9   2  -3 27.9822 1.72844   9
   9   2  -3 29.0392 2.07200  18
   9   2  -3 25.5248 1.74718  10
   8   2  -3 914.344 47.8599   8
   8   2  -3 924.780 47.9738   9
   8   2  -3 947.325 48.2108  18
   8   2  -3 845.480 47.9669  10
   7   2  -3 99.4730 5.99639   2
   7   2  -3 98.6545 5.48903  10
   7   2  -3 103.703 6.91695   3
   7   2  -3 106.535 6.09399   7
   7   2  -3 95.4933 5.38523   8
   7   2  -3 103.551 5.49670   9
   6   2  -3 2.90382 0.31318   8
   6   2  -3 3.10116 0.79592   2
   6   2  -3 3.60818 0.44121   9
   6   2  -3 4.38934 0.78872   7
   6   2  -3 3.32159 1.40305   3
   5   2  -3 480.148 27.3845   3
   5   2  -3 511.812 26.8553   2
   5   2  -3 510.969 26.8247   7
   4   2  -3 368.268 18.7460   3
   4   2  -3 343.585 18.4776   1
   4   2  -3 305.086 18.3655   1
   4   2  -3 348.248 18.1908   7
   4   2  -3 358.610 18.2474   2
  -4  -2   3 338.595 18.2018   5
  -4  -2   3 309.867 18.4094   1
   3   2  -3 53.6176 3.26836   2
   3   2  -3 54.2349 3.18038   7
   3   2  -3 57.4376 3.77209   3
   3   2  -3 53.0725 3.38225   1
   3   2  -3 55.6010 3.46836   1
  -3  -2   3 57.0027 3.33710   5
  -3  -2   3 57.2490 3.42004   1
  -3  -2   3 54.7685 3.42822   1
  -3  -2   3 57.1280 3.65504   3
  -3  -2   3 54.2468 3.29444   2
   2   2  -3 261.047 13.6002   1
   2   2  -3 253.328 13.5493   1
   2   2  -3 236.975 13.4270   2
   2   2  -3 247.544 13.7615   3
  -2  -2   3 247.240 13.5501   1
  -2  -2   3 251.936 13.4630   2
  -2  -2   3 255.066 13.7200   3
  -2  -2   3 249.039 13.5820   5
  -2  -2   3 250.099 13.5797   1
   1   2  -3 6.27401 0.68443   2
   1   2  -3 7.76716 1.07241   3
   1   2  -3 5.91057 0.76744   1
   1   2  -3 6.90324 0.86402   1
  -1  -2   3 6.74197 0.71851   2
  -1  -2   3 6.21321 0.73243   1
  -1  -2   3 6.86004 0.79675   1
  -1  -2   3 7.56624 0.94621   3
  -1  -2   3 6.92798 0.89578   5
   0   2  -3 25.5041 1.57904   1
   0   2  -3 26.7938 1.64197   1
   0  -2   3 25.5797 1.57701   1
   0  -2   3 23.5643 1.71428   5
   0  -2   3 22.3938 1.68421   3
   0  -2   3 20.7436 1.37995   6
   0  -2   3 23.2554 1.59398   1
   0  -2   3 27.3239 1.72018   3
   0  -2   3 25.8211 1.88924   4
   0  -2   3 21.1664 1.47942   2
   0  -2   3 26.2668 1.51124   2
  -1   2  -3 181.746 9.25138   1
  -1   2  -3 173.752 9.24059   1
   1  -2   3 165.722 9.41074   5
   1  -2   3 173.781 9.13487   2
   1  -2   3 176.435 9.58290   4
   1  -2   3 156.818 9.15694   2
   1  -2   3 174.950 9.25483   3
   1  -2   3 154.941 9.29213   3
   1  -2   3 168.829 9.25124   1
   1  -2   3 175.947 9.21246   1
  -2   2  -3 268.300 13.7485   1
  -2   2  -3 251.565 13.7461   1
   2  -2   3 280.204 13.7573   3
   2  -2   3 238.826 13.7258   1
   2  -2   3 263.447 14.2464   4
   2  -2   3 254.557 13.6972   1
   2  -2   3 247.664 13.7969   3
   2  -2   3 233.914 13.6552   2
   2  -2   3 271.585 13.6312   2
   2  -2   3 248.850 13.9352   5
  -3   2  -3 252.169 14.6589   1
   3  -2   3 272.328 14.6454   1
   3  -2   3 273.058 14.8894   5
   3  -2   3 299.155 14.6940   3
   3  -2   3 290.930 14.5722   2
   3  -2   3 236.752 14.7097   3
   3  -2   3 295.472 15.4053   4
   3  -2   3 272.511 14.5812   2
   4  -2   3 48.6095 2.55469   2
   4  -2   3 46.2215 2.69126   3
   4  -2   3 42.0856 2.70805   3
   4  -2   3 42.7925 2.54231   2
   4  -2   3 47.6514 2.94326   7
   4  -2   3 47.6873 3.50985   4
   5  -2   3 47.8576 2.68579  16
   5  -2   3 46.6366 3.17981   7
   5  -2   3 49.1856 3.79558   4
   5  -2   3 47.5418 2.88498  18
   5  -2   3 49.7960 2.80206  11
   5  -2   3 47.5817 2.57883  10
   5  -2   3 47.8198 2.73405  17
   5  -2   3 42.7183 2.66820  12
   6  -2   3 90.0683 5.03276  18
   6  -2   3 90.4650 4.92789  11
   6  -2   3 81.0446 4.77980  12
   6  -2   3 83.4162 4.67001  10
   6  -2   3 86.6975 6.08050   4
   6  -2   3 91.2257 4.85426  17
   7  -2   3 46.7123 4.40132   4
   7  -2   3 53.3764 2.98605  10
   7  -2   3 57.8736 3.21870  17
   7  -2   3 56.3998 3.25543  11
   7  -2   3 57.0765 3.36637  18
   8  -2   3 9.23715 1.14636  11
   8  -2   3 8.76480 1.05105  18
   8  -2   3 9.40422 0.59471  10
   8  -2   3 8.71433 0.95491  17
   9  -2   3 147.807 8.35021  18
   9  -2   3 145.498 8.13904  17
   9  -2   3 159.793 8.27474  11
  10  -2   3 56.1787 3.24432  18
  11   1  -3 44.2327 2.18039  10
  11   1  -3 34.7606 2.33106  18
  10   1  -3 25.7419 1.85426  18
  10   1  -3 22.8477 1.48481  10
   9   1  -3 56.6625 3.26558  10
   9   1  -3 61.0207 3.57147  18
   9   1  -3 57.6648 3.25147   9
   8   1  -3 125.589 8.17863   7
   8   1  -3 146.896 7.86737  18
   8   1  -3 141.078 7.53435   9
   8   1  -3 142.577 7.55683  10
   7   1  -3 39.6171 2.41717  18
   7   1  -3 35.2594 2.09711   9
   7   1  -3 34.7888 2.76948   7
   7   1  -3 35.5453 2.62450   2
   7   1  -3 35.7981 1.97776   8
   7   1  -3 30.9144 3.34559   3
   7   1  -3 37.6344 2.11126  10
   6   1  -3 0.03909 0.58527   7
   6   1  -3 0.46941 0.20868   8
   6   1  -3 0.10145 0.68180   2
   6   1  -3 1.90596 1.16320   3
   6   1  -3 0.08438 0.26411   9
   6   1  -3 -0.0497 0.26306  10
   5   1  -3 14.9429 1.37703   7
   5   1  -3 15.3102 2.00746   3
   5   1  -3 16.2189 1.33165   2
   4   1  -3 6.43107 1.18104   3
   4   1  -3 5.93009 0.73666   2
   4   1  -3 5.61562 0.67057   7
   4   1  -3 4.75634 0.81010   1
  -4  -1   3 3.31614 0.83391   1
   3   1  -3 104.647 5.91797   7
   3   1  -3 113.232 5.94685   2
   3   1  -3 110.827 6.11500   1
   3   1  -3 100.221 6.02790   1
   3   1  -3 115.856 6.34049   3
  -3  -1   3 106.385 6.10113   1
  -3  -1   3 101.645 6.24298   3
  -3  -1   3 101.716 5.95526   2
  -3  -1   3 109.430 6.07703   1
   2   1  -3 20.0903 1.47859   2
   2   1  -3 23.7979 1.58901   1
   2   1  -3 25.4071 1.90638   3
   2   1  -3 22.8271 1.70327   1
  -2  -1   3 22.2023 1.62109   1
  -2  -1   3 24.3178 1.65630   1
  -2  -1   3 23.9200 1.82498   3
  -2  -1   3 20.7601 1.53107   2
   1   1  -3 206.516 11.6518   2
   1   1  -3 212.126 11.8802   3
   1   1  -3 222.121 11.7567   1
   1   1  -3 219.909 11.7608   1
  -1  -1   3 223.222 11.7414   1
  -1  -1   3 211.638 11.8274   3
  -1  -1   3 229.510 11.7911   1
  -1  -1   3 216.698 11.6561   2
   0   1  -3 114.658 6.98309   2
   0   1  -3 123.280 7.18227   3
   0   1  -3 129.236 7.05588   1
   0   1  -3 133.431 7.09675   1
   0  -1   3 129.809 7.18257   4
   0  -1   3 126.291 7.09083   1
   0  -1   3 136.794 6.99041   2
   0  -1   3 136.919 7.16726   3
   0  -1   3 134.444 7.05277   1
  -1   1  -3 365.395 18.8040   1
  -1   1  -3 367.474 18.7931   1
   1  -1   3 317.641 18.8527   3
   1  -1   3 366.460 18.7745   1
   1  -1   3 372.480 18.8198   3
   1  -1   3 356.189 18.9683   4
   1  -1   3 371.820 18.6943   2
   1  -1   3 304.752 18.7016   2
   1  -1   3 344.553 18.8010   1
  -2   1  -3 976.602 52.3368   1
  -2   1  -3 993.781 52.3352   1
   2  -1   3 984.781 52.3594   5
   2  -1   3 1061.40 52.3491   3
   2  -1   3 1017.98 52.6094   4
   2  -1   3 1001.21 52.3424   1
   2  -1   3 882.906 52.2334   2
  -3   1  -3 3641.59 190.920   1
   3  -1   3 3926.89 191.330   2
   3  -1   3 3946.54 192.211   7
   3  -1   3 3536.22 190.677   1
   3  -1   3 3490.54 191.746   5
   3  -1   3 3846.98 194.173   4
   3  -1   3 3667.91 191.669   3
   3  -1   3 3236.45 190.582   3
   3  -1   3 3254.43 190.387   2
   4  -1   3 114.614 6.28731   7
   4  -1   3 109.858 6.66505   4
   4  -1   3 106.264 6.26602   3
   4  -1   3 111.707 6.06347   2
   5  -1   3 75.0314 4.35441   2
   5  -1   3 73.8845 4.63617   3
   5  -1   3 88.9431 5.24433   4
   5  -1   3 74.9348 4.67619   7
   6  -1   3 22.6068 1.32831  10
   6  -1   3 21.9626 1.49680  17
   6  -1   3 22.4160 1.82709   3
   6  -1   3 22.0266 1.29175   9
   6  -1   3 24.4167 1.68619  18
   6  -1   3 22.4683 1.53798  11
   6  -1   3 25.6594 2.51750   4
   6  -1   3 23.5613 1.90351   7
   6  -1   3 23.7626 1.54722   2
   6  -1   3 20.9392 1.39249  12
   7  -1   3 9.45975 0.99455  18
   7  -1   3 8.54136 0.73378  10
   7  -1   3 8.86181 1.74945   4
   7  -1   3 9.21768 1.03072  11
   7  -1   3 9.03249 0.97835   3
   7  -1   3 9.56931 0.56022   9
   7  -1   3 10.4719 0.95049  17
   8  -1   3 19.5890 1.31844  17
   8  -1   3 17.1206 2.38977   4
   8  -1   3 18.9179 1.53559  11
   8  -1   3 19.2000 1.52176  18
   8  -1   3 20.0197 1.19656  10
   9  -1   3 14.2169 1.04781  17
   9  -1   3 14.1319 1.40019  18
   9  -1   3 12.7219 1.34726  11
   9  -1   3 15.8237 0.93151  10
  10  -1   3 67.1423 3.77787  11
  10  -1   3 65.3398 3.81264  18
  11   0  -3 12.0073 0.89802  18
  10   0  -3 421.540 20.8342  10
  10   0  -3 365.494 21.0793  18
   9   0  -3 64.6921 3.88090  18
   9   0  -3 61.9353 3.54767  10
   9   0  -3 66.4061 3.44127   9
   8   0  -3 19.6218 1.51990  18
   8   0  -3 13.8757 1.87311   7
   8   0  -3 17.6922 1.19209  10
   8   0  -3 18.9128 1.17451   9
   8   0  -3 17.0579 1.28763  17
   7   0  -3 1.70653 0.45502  16
   7   0  -3 0.81629 1.09964   3
   7   0  -3 1.17738 0.89211   7
   7   0  -3 1.36514 0.36679   9
   7   0  -3 1.03170 0.61262  18
   7   0  -3 -0.0929 0.69402   2
   7   0  -3 1.68906 0.34799  10
   7   0  -3 1.64574 0.44858  17
   6   0  -3 3.58283 1.22731   3
   6   0  -3 2.87101 0.82253   7
   6   0  -3 2.53195 0.57942  18
   6   0  -3 1.89757 0.41859  16
   6   0  -3 2.47757 0.36777  17
   6   0  -3 2.56387 0.64186   2
   6   0  -3 2.23967 0.33076   9
   6   0  -3 2.57349 0.34590  10
   6   0  -3 2.60622 0.26851   8
   5   0  -3 103.518 5.72316   2
   5   0  -3 105.899 6.28195   3
   5   0  -3 108.069 5.90251   7
   5   0  -3 89.4583 6.06261   4
   4   0  -3 5.14886 0.65697   2
   4   0  -3 3.83030 0.69137   7
   4   0  -3 4.83880 1.01366   3
   3   0  -3 4.15138 0.89346   3
   3   0  -3 3.52069 0.54159   2
   3   0  -3 3.81730 0.59486   7
   3   0  -3 3.20791 0.61393   1
   3   0  -3 3.46008 0.56159   1
  -3   0   3 3.47312 0.65012   1
  -3   0   3 3.59702 0.60087   1
   2   0  -3 421.293 23.2117   7
   2   0  -3 446.734 23.3066   1
   2   0  -3 446.750 23.1930   2
   2   0  -3 470.088 23.4645   3
   2   0  -3 422.982 23.2846   1
  -2   0   3 442.817 23.3304   1
  -2   0   3 410.213 23.1907   2
  -2   0   3 462.688 23.2910   1
  -2   0   3 406.169 23.3755   3
   1   0  -3 3609.45 184.856   3
   1   0  -3 3264.68 184.533   1
   1   0  -3 3768.11 184.941   1
   1   0  -3 3301.36 184.411   6
   1   0  -3 3490.47 184.234   2
  -1   0   3 3349.84 184.119   2
  -1   0   3 3472.65 184.815   1
  -1   0   3 3693.58 184.885   1
  -1   0   3 3362.35 184.498   3
   0   0  -3 1656.74 84.4429   1
   0   0  -3 1685.32 84.0814   1
   0   0  -3 1471.34 83.6081   6
   0   0  -3 1529.66 83.7992   2
   0   0  -3 1579.42 83.6263   3
   0   0   3 1658.09 83.8812   1
   0   0   3 1557.47 84.0739   3
   0   0   3 1497.86 83.8948   2
   0   0   3 1565.41 84.2886   4
   0   0   3 1596.62 84.3745   1
  -1   0  -3 22.4736 1.50394   2
  -1   0  -3 20.8382 1.56846   1
  -1   0  -3 25.4921 1.64672   1
  -1   0  -3 23.2352 1.73827   3
   1   0   3 23.0915 1.46994   2
   1   0   3 22.6680 1.61261   1
   1   0   3 23.7040 1.61246   3
   1   0   3 24.2966 1.59957   1
   1   0   3 25.0384 1.61078   4
  -2   0  -3 6.03518 1.05791   3
  -2   0  -3 5.61876 0.84186   1
  -2   0  -3 6.64302 0.83583   1
   2   0   3 5.75769 0.66859   2
   2   0   3 5.92888 0.92697   4
   2   0   3 6.59363 0.83095   1
   2   0   3 6.20621 0.88684   3
  -3   0  -3 637.586 33.2908   1
  -3   0  -3 660.041 33.3689   1
   3   0   3 528.079 33.1441   2
   3   0   3 674.197 33.1505   2
   3   0   3 617.783 33.2805   1
   3   0   3 643.158 33.5005   4
   3   0   3 663.754 33.3089   1
   3   0   3 556.061 33.3959   3
   3   0   3 644.390 33.3302   3
   4   0   3 7.83324 1.06005   3
   4   0   3 8.68771 0.93724   1
   4   0   3 8.88978 1.26846   4
   4   0   3 7.08113 0.91077   1
   4   0   3 8.18234 0.82100   2
   4   0   3 7.40747 0.85629   7
   5   0   3 25.7438 1.90732   7
   5   0   3 23.8743 2.20965   4
   5   0   3 24.8914 1.73190   2
   5   0   3 25.0256 2.02680   3
   6   0   3 6.15826 0.84886  18
   6   0   3 6.48430 1.03566   7
   6   0   3 8.11677 1.30903   3
   6   0   3 7.90606 0.87061   2
   6   0   3 6.16937 0.54928  10
   6   0   3 6.48907 0.60665  17
   6   0   3 5.76951 0.73417  11
   6   0   3 6.52824 0.54000   9
   6   0   3 7.47653 1.39423   4
   7   0   3 175.494 9.52182   2
   7   0   3 166.947 9.24370  10
   7   0   3 182.472 9.40831  11
   7   0   3 174.228 9.95044   3
   7   0   3 166.136 10.4276   4
   7   0   3 172.947 9.32477  17
   7   0   3 172.980 9.21763   9
   7   0   3 172.160 9.49622  18
   8   0   3 2.09048 0.41896  17
   8   0   3 1.29262 0.30530   9
   8   0   3 1.49596 0.37013  10
   8   0   3 1.20062 0.64168  18
   8   0   3 1.39054 0.55070  11
   8   0   3 3.15642 1.41265   4
   9   0   3 90.5212 5.25880  17
   9   0   3 89.5680 5.44849  18
   9   0   3 100.333 5.21006  10
   9   0   3 103.789 5.45297  11
  10   0   3 33.7446 2.32532  18
  10   0   3 38.0193 2.26879  11
  10   0   3 37.2983 2.03805  10
  11   0   3 119.168 6.48464  18
  10  -1  -3 31.3272 2.06910  18
  10  -1  -3 33.7117 1.76414  10
   9  -1  -3 9.20026 1.26220  18
   9  -1  -3 7.90924 0.65375  10
   9  -1  -3 9.16571 0.85694  17
   8  -1  -3 6.22231 0.61957  10
   8  -1  -3 6.75364 0.69365  17
   8  -1  -3 5.29657 0.67159  16
   8  -1  -3 6.30400 1.03164  18
   7  -1  -3 24.5274 1.67901  18
   7  -1  -3 21.8349 2.01586   7
   7  -1  -3 18.5339 1.58933   2
   7  -1  -3 20.1080 1.44657  16
   7  -1  -3 21.6397 1.48300  17
   7  -1  -3 21.9707 1.28065   9
   7  -1  -3 21.1999 1.33510  10
   6  -1  -3 23.4549 2.35083   3
   6  -1  -3 24.3797 1.56799  17
   6  -1  -3 25.5756 2.03512   7
   6  -1  -3 25.1789 1.79684  18
   6  -1  -3 23.4165 1.52753  16
   6  -1  -3 23.3827 1.40586   9
   6  -1  -3 25.1559 1.71284   2
   6  -1  -3 25.5928 1.42895  10
   5  -1  -3 248.732 12.0108  15
   5  -1  -3 207.809 12.4238   3
   5  -1  -3 202.437 11.7207   9
   5  -1  -3 223.161 12.2185   7
   5  -1  -3 223.392 11.9654  18
   5  -1  -3 221.567 11.9725   2
   4  -1  -3 8.45403 0.99477   7
   4  -1  -3 7.53016 1.17142   3
   4  -1  -3 5.96658 0.90755   4
   4  -1  -3 6.84718 0.73444   2
   3  -1  -3 224.760 11.6928   7
   3  -1  -3 189.117 11.5818   2
   3  -1  -3 216.580 11.6626   1
   3  -1  -3 202.607 11.6624   1
   3  -1  -3 191.789 11.6627   4
   3  -1  -3 244.343 11.9175   3
   3  -1  -3 229.409 11.5419   2
  -3   1   3 210.886 11.7064   1
  -3   1   3 225.406 11.6675   1
   2  -1  -3 4878.36 254.436   1
   2  -1  -3 4954.66 255.133   6
   2  -1  -3 4087.09 253.202   2
   2  -1  -3 4959.60 255.259   3
   2  -1  -3 4794.96 254.202   7
   2  -1  -3 4596.15 254.213   3
   2  -1  -3 4635.00 254.186   1
   2  -1  -3 5010.14 253.965   2
  -2   1   3 4916.82 254.556   1
  -2   1   3 5188.54 254.417   1
   1  -1  -3 8679.23 433.800   1
   1  -1  -3 8340.20 433.956   6
  -1   1   3 8360.11 433.839   1
  -1   1   3 7449.44 433.457   3
   0  -1  -3 746.825 37.8405   1
   0  -1  -3 742.676 37.8275   1
   0  -1  -3 701.975 37.7727   6
   0  -1  -3 718.005 37.9282   3
   0  -1  -3 710.219 37.7395   2
   0   1   3 673.558 37.7167   2
   0   1   3 659.140 37.8469   3
   0   1   3 731.823 37.8629   1
   0   1   3 740.218 37.7986   1
  -1  -1  -3 252.787 14.3549   1
  -1  -1  -3 276.480 14.5360   3
  -1  -1  -3 282.984 14.4052   1
  -1  -1  -3 258.286 14.2797   2
  -1  -1  -3 248.980 14.2444   6
   1   1   3 264.953 14.2381   2
   1   1   3 240.743 14.2794   4
   1   1   3 294.453 14.3759   1
   1   1   3 279.399 14.4017   3
   1   1   3 272.643 14.4074   1
  -2  -1  -3 43.6219 2.68263   1
  -2  -1  -3 39.5543 2.54699   2
  -2  -1  -3 41.8118 2.90597   3
  -2  -1  -3 38.5171 2.60215   1
   2   1   3 40.7955 2.61943   4
   2   1   3 44.6729 2.67119   1
   2   1   3 43.6781 2.66509   3
   2   1   3 41.9091 2.50610   2
   2   1   3 38.8256 2.62473   1
  -3  -1  -3 233.692 13.3302   3
  -3  -1  -3 244.492 13.1156   1
  -3  -1  -3 248.610 13.0538   1
  -3  -1  -3 206.354 12.9261   2
   3   1   3 246.873 13.1092   3
   3   1   3 237.144 13.0410   1
   3   1   3 237.710 13.0667   1
   3   1   3 245.880 13.1586   4
   3   1   3 252.692 12.8934   2
  -4  -1  -3 21.5978 1.80372   1
  -4  -1  -3 20.3331 1.81583   1
   4   1   3 23.5360 1.60888   2
   4   1   3 25.7681 1.92186   3
   4   1   3 22.5261 1.98040   4
   4   1   3 22.9752 1.82565   1
   4   1   3 19.6568 1.69862   1
   4   1   3 27.3864 1.69575   7
   5   1   3 162.911 8.64796   7
   5   1   3 145.818 8.87209   3
   5   1   3 158.234 8.57200   2
   5   1   3 153.037 9.07704   4
   6   1   3 22.3492 2.34017   3
   6   1   3 21.2165 1.26759   8
   6   1   3 25.6482 1.92081   7
   6   1   3 24.8242 2.40503   4
   6   1   3 24.5769 1.87930   2
   7   1   3 85.0668 4.88984  17
   7   1   3 84.8135 5.05680  18
   7   1   3 91.6112 6.00898   4
   7   1   3 90.6469 4.85171   9
   7   1   3 92.4161 5.29780   2
   7   1   3 93.3178 5.83124   3
   7   1   3 86.8577 4.85473  10
   7   1   3 88.9128 4.73468   8
   7   1   3 92.3432 4.97529  11
   8   1   3 2.58819 0.45562  10
   8   1   3 0.76983 1.02380   3
   8   1   3 2.11668 0.45626   9
   8   1   3 6.66133 1.62771   4
   8   1   3 2.34641 0.49152  11
   8   1   3 3.54012 0.58171  18
   8   1   3 1.96919 0.91871   2
   9   1   3 696.432 39.9886  18
   9   1   3 784.324 39.9476  11
   9   1   3 748.002 39.7294   9
   9   1   3 782.153 39.7911  10
  10   1   3 67.6833 3.58616  10
  10   1   3 66.1226 3.74412  11
  10   1   3 60.6442 3.78645  18
  11   1   3 18.4978 1.30770  11
  11   1   3 19.1006 1.11249  10
  10  -2  -3 18.7833 1.13014  17
   9  -2  -3 0.14524 0.14280  10
   9  -2  -3 0.25457 0.34457  17
   9  -2  -3 0.16178 0.50718  18
   8  -2  -3 24.9097 1.56865  16
   8  -2  -3 24.3015 2.02740  18
   8  -2  -3 24.1887 1.68673  17
   8  -2  -3 25.0492 1.45459  10
   7  -2  -3 15.1010 1.35434  18
   7  -2  -3 14.4904 1.15628  16
   7  -2  -3 12.7220 1.05329  17
   7  -2  -3 14.1951 0.90254  10
   7  -2  -3 13.3821 1.80447   7
   6  -2  -3 119.499 7.06015   7
   6  -2  -3 126.224 6.49546  17
   6  -2  -3 114.909 6.41084   2
   6  -2  -3 121.381 6.43217  16
   6  -2  -3 112.562 6.63067   3
   6  -2  -3 117.987 6.33038  10
   6  -2  -3 123.614 6.69608  18
   6  -2  -3 111.114 6.27081   9
   5  -2  -3 35.7339 2.11974   9
   5  -2  -3 40.4848 2.29741  17
   5  -2  -3 37.0799 2.21052  16
   5  -2  -3 37.5417 2.44089  18
   5  -2  -3 40.3968 2.45964  15
   5  -2  -3 42.2910 2.80885   7
   5  -2  -3 40.1494 2.76131   3
   5  -2  -3 38.8523 2.14786  10
   5  -2  -3 40.9424 2.32584   2
   4  -2  -3 1448.38 76.5505   7
   4  -2  -3 1441.08 76.2494   2
   3  -2  -3 56.2350 3.54780   7
   3  -2  -3 70.9940 3.81926   6
   3  -2  -3 56.0816 3.57023   3
   3  -2  -3 56.2211 3.30849   2
   2  -2  -3 196.499 10.4460   1
   2  -2  -3 169.031 10.3601   4
   2  -2  -3 204.193 10.3615   2
   2  -2  -3 169.932 10.3679   2
   2  -2  -3 204.795 10.5309   7
   2  -2  -3 206.225 10.6498   3
   2  -2  -3 183.622 10.4918   1
   2  -2  -3 208.682 10.6587   6
   2  -2  -3 190.579 10.5547   3
  -2   2   3 208.196 10.4483   1
  -2   2   3 190.900 10.5358   1
   1  -2  -3 106.773 6.10873   7
   1  -2  -3 111.702 6.22788   6
   1  -2  -3 100.928 6.04505   2
   1  -2  -3 115.712 6.31600   3
   1  -2  -3 111.099 6.16202   1
   1  -2  -3 107.355 6.17114   3
   1  -2  -3 115.362 6.12434   1
   1  -2  -3 114.403 6.03936   2
  -1   2   3 111.447 6.22180   1
  -1   2   3 121.058 6.11431   1
   0  -2  -3 1608.70 77.3961   1
   0  -2  -3 1580.84 77.4247   2
   0  -2  -3 1507.01 77.7387   6
   0  -2  -3 1413.66 76.5667   3
   0  -2  -3 1502.97 76.7334   3
   0  -2  -3 1226.61 76.4492   2
   0  -2  -3 1369.49 76.5762   1
   0   2   3 1391.18 76.6163   3
   0   2   3 1461.30 76.6322   1
  -1  -2  -3 12.7909 1.18551   1
  -1  -2  -3 13.6582 1.52316   3
  -1  -2  -3 11.4655 1.12684   1
  -1  -2  -3 12.4477 1.07192   2
  -1  -2  -3 11.9684 1.10335   6
   1   2   3 11.6255 0.96139   2
   1   2   3 13.6676 1.16447   1
   1   2   3 12.2358 1.21383   3
   1   2   3 11.1995 1.19292   1
  -2  -2  -3 31.0928 2.44093   3
  -2  -2  -3 30.9169 2.13782   1
  -2  -2  -3 30.7971 2.02598   2
  -2  -2  -3 27.3358 2.04988   1
   2   2   3 31.2189 2.15133   1
   2   2   3 30.4621 2.15764   3
   2   2   3 28.9185 2.11094   1
   2   2   3 28.5471 1.90860   2
  -3  -2  -3 527.385 28.2981   3
  -3  -2  -3 472.910 27.9340   1
  -3  -2  -3 525.716 28.0427   1
  -3  -2  -3 500.857 27.8809   2
   3   2   3 528.910 27.7949   2
   3   2   3 545.525 28.0238   1
   3   2   3 538.575 28.0575   3
   3   2   3 538.406 28.0027   1
  -4  -2  -3 47.4182 3.34170   2
  -4  -2  -3 53.2052 3.52661   1
  -4  -2  -3 48.3639 3.40353   1
  -4  -2  -3 57.9277 3.92305   3
   4   2   3 56.4617 3.52133   1
   4   2   3 60.2102 3.61402   3
   4   2   3 51.6111 3.40607   1
   4   2   3 57.8568 3.26421   2
   5   2   3 242.165 13.6514   4
   5   2   3 239.323 13.6048   3
   5   2   3 232.094 13.5373   1
   5   2   3 256.167 13.2338   2
   6   2   3 1123.16 60.1075   4
   6   2   3 1113.63 59.8935   3
   6   2   3 1122.68 59.4627   2
   7   2   3 7.37588 0.54877   8
   7   2   3 8.64299 0.73225  10
   7   2   3 8.55272 1.26696   2
   7   2   3 7.31948 0.75321   9
   7   2   3 7.19366 1.57623   3
   7   2   3 11.7381 1.95709   4
   8   2   3 2.28501 0.44808  11
   8   2   3 1.74803 0.44714  18
   8   2   3 1.30604 0.41336  10
   8   2   3 1.74133 1.34177   4
   8   2   3 1.69580 0.23153   8
   8   2   3 1.08149 0.39862   9
   8   2   3 0.56634 1.18816   3
   8   2   3 1.46180 0.86062   2
   9   2   3 93.9820 5.10188  11
   9   2   3 82.7858 5.07637  18
   9   2   3 93.8847 4.95070  10
   9   2   3 88.8018 4.91182   9
  10   2   3 40.6822 2.46493  10
  10   2   3 43.7108 2.58310  11
  10   2   3 43.0259 2.40217   9
  11   2   3 12.1003 1.09081  11
  11   2   3 10.7298 0.83212  10
   9  -3  -3 20.3713 1.52661  18
   9  -3  -3 22.4632 1.35464  17
   8  -3  -3 149.105 8.28454  16
   8  -3  -3 145.603 8.36268  17
   8  -3  -3 167.769 8.62403  18
   7  -3  -3 234.696 12.5452  18
   7  -3  -3 228.914 12.2389  16
   7  -3  -3 222.505 12.0892  10
   7  -3  -3 227.754 12.3102  17
   6  -3  -3 163.920 8.66555  17
   6  -3  -3 149.244 9.28774   7
   6  -3  -3 151.981 8.45253  10
   6  -3  -3 159.592 8.59033  16
   6  -3  -3 165.809 8.87328  18
   6  -3  -3 162.101 8.73602  15
   5  -3  -3 0.98341 0.58718  15
   5  -3  -3 0.43479 0.27354  16
   5  -3  -3 0.07285 0.75060   7
   5  -3  -3 0.45114 0.52426  18
   5  -3  -3 0.23448 0.28436  17
   5  -3  -3 0.59847 0.18723  10
   4  -3  -3 33.1736 1.93816  16
   4  -3  -3 33.4719 1.99059  17
   4  -3  -3 30.3321 1.81270  10
   4  -3  -3 35.2148 2.43847   7
   4  -3  -3 32.7426 2.08753  14
   4  -3  -3 36.5634 2.12381  15
   3  -3  -3 95.3549 5.22721   7
   3  -3  -3 93.8043 5.40888   6
   3  -3  -3 89.3360 5.00574   3
   3  -3  -3 91.6727 4.82687   2
   3  -3  -3 82.1055 4.84845   2
   3  -3  -3 87.6322 5.04412   3
   2  -3  -3 64.6978 3.88923   2
   2  -3  -3 70.4951 3.92036   1
   2  -3  -3 74.0265 4.14132   7
   2  -3  -3 77.3032 3.86391   2
   2  -3  -3 63.7439 3.99228   1
   2  -3  -3 71.0475 4.02465   3
   2  -3  -3 78.7853 4.34437   6
   2  -3  -3 68.8837 4.14168   3
  -2   3   3 70.7719 3.92238   1
   1  -3  -3 25.9196 1.85836   6
   1  -3  -3 27.0578 1.52747   2
   1  -3  -3 25.9473 1.59846   1
   1  -3  -3 22.1993 1.52097   2
   1  -3  -3 25.6676 1.89645   3
   1  -3  -3 26.1707 1.66837   7
   1  -3  -3 24.2811 1.65354   1
   1  -3  -3 24.3454 1.66671   3
  -1   3   3 27.6735 1.58890   1
  -1   3   3 24.1402 1.70585   1
   0  -3  -3 199.763 10.1276   1
   0  -3  -3 194.511 10.0209   2
   0  -3  -3 192.531 10.3503   3
   0  -3  -3 190.885 10.0305   7
   0  -3  -3 194.993 10.2709   6
   0  -3  -3 181.106 10.1595   1
   0  -3  -3 157.894 10.0016   2
   0  -3  -3 184.456 10.1212   3
   0   3   3 183.402 10.1857   1
  -1  -3  -3 104.910 5.69166   1
  -1  -3  -3 105.451 5.57374   2
  -1  -3  -3 107.510 5.98274   3
  -1  -3  -3 105.233 5.71711   6
  -1  -3  -3 93.3861 5.64198   1
  -1  -3  -3 88.7409 5.61086   3
   1   3   3 103.938 5.65463   1
   1   3   3 93.1219 5.71364   3
   1   3   3 96.2783 5.68214   1
  -2  -3  -3 74.7744 4.72203   6
  -2  -3  -3 79.3104 4.68114   1
  -2  -3  -3 85.0904 4.66428   2
  -2  -3  -3 84.2408 4.79862   1
  -2  -3  -3 84.6803 5.05650   3
   2   3   3 86.6790 4.79535   1
   2   3   3 78.8599 4.72377   1
   2   3   3 74.1557 4.76248   3
   2   3   3 75.8428 4.53893   2
  -3  -3  -3 6.73960 0.95403   2
  -3  -3  -3 6.51187 1.28095   3
  -3  -3  -3 5.30792 0.85306   1
  -3  -3  -3 6.65942 1.02780   1
   3   3   3 7.09114 0.85302   2
   3   3   3 5.71093 0.92446   1
   3   3   3 7.53023 1.05391   1
   3   3   3 6.43626 1.04864   3
  -4  -3  -3 1996.76 97.6252   3
  -4  -3  -3 1855.91 97.0365   2
  -4  -3  -3 1878.11 97.2420   1
  -4  -3  -3 1568.91 97.0520   1
   4   3   3 1929.68 97.2951   3
   4   3   3 1901.55 97.2082   1
   4   3   3 1868.87 96.9084   2
   4   3   3 1670.06 97.0802   1
  -5  -3  -3 528.153 33.2042   1
   5   3   3 670.158 33.0655   2
   5   3   3 623.297 33.3883   1
   5   3   3 651.752 33.5307   3
   6   3   3 242.510 13.8261   3
   6   3   3 240.896 13.3209   2
   7   3   3 103.830 6.72786   3
   7   3   3 96.5549 5.43052   8
   7   3   3 95.1670 5.52859   9
   7   3   3 110.582 6.86515   4
   7   3   3 107.014 6.10321   2
   8   3   3 400.531 22.1914   4
   8   3   3 398.199 20.5195   8
   8   3   3 381.042 20.6336   9
   8   3   3 373.286 20.6249  10
   8   3   3 389.645 21.2303   2
   9   3   3 30.1248 1.90701  11
   9   3   3 30.0275 1.65037   8
   9   3   3 26.3291 3.37713   4
   9   3   3 31.6247 1.86572   9
   9   3   3 27.7721 1.80045  10
  10   3   3 27.6550 1.88687  11
  10   3   3 27.2127 1.68487   9
  10   3   3 26.4165 1.66389  10
  11   3   3 1.96298 0.36820  10
  11   3   3 2.41034 0.47402  11
  11   3   3 2.27624 0.29534   9
  12   3   3 0.73930 0.19457  10
  12   3   3 1.08988 0.41788  11
   9  -4  -3 23.0953 1.29373  17
   9  -4  -3 19.1270 1.45356  18
   8  -4  -3 134.755 7.31435  16
   8  -4  -3 136.563 7.36754  17
   8  -4  -3 136.110 7.52972  18
   7  -4  -3 90.5964 5.18901  17
   7  -4  -3 96.0582 5.38429  18
   7  -4  -3 93.0483 5.14879  16
   6  -4  -3 65.2337 3.81481  16
   6  -4  -3 65.9289 4.05656  15
   6  -4  -3 69.1758 3.94075  17
   6  -4  -3 73.0559 4.13778  18
   5  -4  -3 60.0002 3.36724  10
   5  -4  -3 64.5694 3.55957  16
   5  -4  -3 63.9346 3.80716  18
   5  -4  -3 59.6556 4.22075   7
   5  -4  -3 66.6170 3.64322  17
   5  -4  -3 63.0397 3.68991  15
   4  -4  -3 74.0648 4.10927  17
   4  -4  -3 75.6001 4.61345   7
   4  -4  -3 73.5165 4.24386  14
   4  -4  -3 73.8967 4.03038  16
   4  -4  -3 73.2091 4.25571  18
   4  -4  -3 75.2648 4.20263  15
   4  -4  -3 68.8039 3.90046  10
   3  -4  -3 18.8150 1.26164  17
   3  -4  -3 18.9935 1.61873   7
   3  -4  -3 19.2483 1.42368  14
   3  -4  -3 20.1083 1.87637   6
   3  -4  -3 18.5750 1.21078  16
   3  -4  -3 19.0003 1.35886  15
   2  -4  -3 390.120 21.0672   6
   2  -4  -3 385.752 20.8282   7
   1  -4  -3 124.118 6.92712   6
   1  -4  -3 118.992 6.65947   7
   1  -4  -3 117.886 6.51861   1
   1  -4  -3 115.242 6.49070   1
   1  -4  -3 129.089 6.44629   2
   1  -4  -3 118.922 6.54955   3
   1  -4  -3 116.057 6.44414   2
   1  -4  -3 127.723 6.64410   3
  -1   4   3 116.126 6.49822   1
   0  -4  -3 30.8171 1.84183   2
   0  -4  -3 28.4666 1.79919   2
   0  -4  -3 31.4727 1.93794   1
   0  -4  -3 30.5358 1.95691   3
   0  -4  -3 29.6392 1.88395   7
   0  -4  -3 31.4276 2.23983   6
   0  -4  -3 32.3901 2.16688   3
   0  -4  -3 33.5343 2.26315   5
   0  -4  -3 30.4984 1.93247   1
   0   4   3 30.1500 1.96291   1
  -1  -4  -3 1516.18 74.9383   2
  -1  -4  -3 1495.78 75.1553   5
  -1  -4  -3 1436.31 75.1587   6
  -1  -4  -3 1216.08 74.9784   3
  -1  -4  -3 1398.98 75.0478   1
  -1  -4  -3 1457.20 75.0048   1
  -1  -4  -3 1532.41 75.2529   3
  -1  -4  -3 1306.78 74.7533   7
  -1  -4  -3 1240.13 74.8161   2
   1   4   3 1531.85 75.0429   1
   1   4   3 1465.28 75.0244   1
  -2  -4  -3 30.8806 2.40148   6
  -2  -4  -3 34.3431 2.61981   3
  -2  -4  -3 34.6750 2.30935   5
  -2  -4  -3 34.5258 2.41896   1
  -2  -4  -3 35.9642 2.28943   2
   2   4   3 32.3187 2.37404   1
   2   4   3 31.5242 2.27349   1
  -3  -4  -3 52.6006 3.72117   1
  -3  -4  -3 68.2097 3.82150   2
  -3  -4  -3 63.5012 3.95393   1
  -3  -4  -3 63.2718 4.21643   3
   3   4   3 57.0872 3.78888   1
   3   4   3 62.4956 3.91821   1
  -4  -4  -3 120.153 7.11662   1
  -4  -4  -3 128.304 7.49978   3
  -4  -4  -3 128.131 6.94126   2
  -4  -4  -3 108.409 6.91627   1
   4   4   3 113.146 6.96114   1
  -5  -4  -3 296.390 16.1922   2
  -5  -4  -3 294.304 16.8226   3
   5   4   3 295.540 16.5434   3
   5   4   3 288.977 16.0165   2
   6   4   3 125.214 7.51097   2
   6   4   3 135.372 8.12765   3
   7   4   3 61.3142 4.76803   3
   7   4   3 64.9802 4.12996   2
   7   4   3 60.1992 3.36777   8
   8   4   3 0.95495 1.65296   3
   8   4   3 2.92243 0.37734   8
   8   4   3 2.31211 0.53391   9
   8   4   3 3.95592 1.34923   4
   8   4   3 2.36576 1.11390   2
   9   4   3 7.72702 2.18822   4
   9   4   3 10.5200 0.72869   8
   9   4   3 9.77301 1.00538   9
  10   4   3 0.99436 0.50498  10
  10   4   3 0.53649 0.19124   8
  10   4   3 0.13492 0.52048  11
  10   4   3 0.22616 0.46841   9
  11   4   3 21.3238 1.34889   9
  11   4   3 23.0486 1.45716  11
  11   4   3 19.9373 1.34242  10
   8  -5  -3 268.848 14.3254  17
   7  -5  -3 17.0443 1.18529  17
   7  -5  -3 17.3462 1.25179  16
   7  -5  -3 14.4320 1.28351  18
   6  -5  -3 21.5478 1.62420  15
   6  -5  -3 21.2391 1.43390  16
   6  -5  -3 22.7403 1.75423  18
   6  -5  -3 23.2126 1.60846  17
   5  -5  -3 27.8535 2.07481  18
   5  -5  -3 29.8350 1.86429  17
   5  -5  -3 29.9553 2.09339  15
   5  -5  -3 23.8401 2.49399   7
   5  -5  -3 30.4315 1.78713  16
   4  -5  -3 5.68497 0.77735  15
   4  -5  -3 4.06781 0.54652  16
   4  -5  -3 4.29187 0.60810  13
   4  -5  -3 4.57117 0.98238   7
   4  -5  -3 3.88506 0.61417  17
   4  -5  -3 4.04400 0.72732  18
   4  -5  -3 3.72353 0.79155  14
   3  -5  -3 76.5981 4.08195  15
   3  -5  -3 73.4120 3.93241  16
   3  -5  -3 65.5200 3.98319  13
   3  -5  -3 72.5966 4.67696   6
   3  -5  -3 64.5884 4.09478  18
   3  -5  -3 73.8088 4.09510  14
   3  -5  -3 73.8950 3.98552  17
   3  -5  -3 69.4907 4.38604   7
   3  -5  -3 69.7678 3.75622  10
   2  -5  -3 175.002 9.18816  15
   2  -5  -3 166.129 8.96064  10
   2  -5  -3 165.909 9.40804   7
   2  -5  -3 164.501 9.07890  16
   2  -5  -3 175.409 9.25507  14
   2  -5  -3 163.709 9.12904  13
   2  -5  -3 178.288 9.74686   6
   1  -5  -3 71.2529 4.22071   6
   1  -5  -3 61.0782 3.81550   7
   0  -5  -3 86.6121 5.09258   3
   0  -5  -3 84.1957 5.05530   7
   0  -5  -3 92.9546 5.50123   6
   0  -5  -3 93.8572 5.54268   5
   0  -5  -3 99.2797 5.23125   3
   0  -5  -3 96.7717 4.99105   2
   0  -5  -3 87.9052 4.95877   2
  -1  -5  -3 14.1072 1.41788   6
  -1  -5  -3 14.4157 1.50901   3
  -1  -5  -3 13.6819 1.15795   2
  -1  -5  -3 15.3861 1.43643   5
  -2  -5  -3 155.186 8.98890   3
  -2  -5  -3 152.154 8.69417   2
  -2  -5  -3 160.102 8.87485   5
  -2  -5  -3 156.123 8.92777   6
  -3  -5  -3 1374.09 74.8594   6
  -3  -5  -3 1411.07 74.6572   5
  -3  -5  -3 1424.15 74.6283   2
  -3  -5  -3 1417.28 75.0163   3
  -4  -5  -3 66.4177 4.70533   3
  -4  -5  -3 65.0322 4.23101   2
  -5  -5  -3 1.52973 1.22494   3
  -5  -5  -3 2.75243 0.93691   2
   7   5   3 93.6618 5.05353   8
   8   5   3 1.51539 0.36540   8
   9   5   3 67.0084 4.10610   9
   9   5   3 77.4383 3.95743   8
  10   5   3 32.3337 1.83562   8
  10   5   3 33.3363 2.06566   9
  11   5   3 0.56597 0.36066  11
  11   5   3 0.74874 0.44564   9
  12   5   3 9.15881 0.73259  11
   7  -6  -3 18.9722 1.40604  18
   7  -6  -3 23.3581 1.33038  16
   6  -6  -3 30.4526 1.85611  17
   6  -6  -3 28.8854 1.80579  16
   6  -6  -3 30.0131 2.05035  18
   5  -6  -3 86.8513 5.08931  18
   5  -6  -3 87.8170 4.85800  16
   5  -6  -3 89.3453 4.93359  17
   5  -6  -3 88.5059 5.00770  15
   4  -6  -3 77.9019 4.15755  17
   4  -6  -3 76.8637 4.32035  14
   4  -6  -3 67.6995 4.09390  13
   4  -6  -3 68.9754 4.27276  18
   4  -6  -3 74.1041 4.25703  15
   4  -6  -3 71.9277 4.07613  16
   3  -6  -3 434.658 25.0189   6
   3  -6  -3 469.881 24.2516  16
   3  -6  -3 484.259 24.4042  15
   3  -6  -3 474.636 24.4477  14
   3  -6  -3 436.383 24.3199  13
   3  -6  -3 441.250 24.2955  17
   2  -6  -3 7.99914 0.92522  15
   2  -6  -3 7.20174 0.62629  16
   2  -6  -3 7.11369 1.29091   6
   2  -6  -3 6.49192 0.70847  17
   2  -6  -3 8.26172 1.05575  14
   2  -6  -3 6.94204 0.85577  13
   2  -6  -3 6.76110 0.66442  12
   1  -6  -3 89.3624 5.16462  12
   1  -6  -3 96.4281 5.82140   6
   1  -6  -3 98.2413 5.37001  14
   1  -6  -3 91.1695 5.15609  16
   1  -6  -3 96.9557 5.27219  15
   1  -6  -3 97.8363 5.23049  13
   0  -6  -3 1.36513 0.38882  13
   0  -6  -3 1.16938 0.75566   6
   0  -6  -3 1.52254 0.40296  15
   0  -6  -3 1.34818 0.76425   5
   0  -6  -3 1.26311 0.51899  14
   0  -6  -3 1.16847 0.35168  12
   0  -6  -3 1.82593 0.26939  10
  -1  -6  -3 172.551 9.51703   3
  -1  -6  -3 169.928 9.86947   5
  -1  -6  -3 170.135 9.25095   2
  -1  -6  -3 168.817 9.81525   6
  -2  -6  -3 327.831 18.1727   6
  -2  -6  -3 338.760 18.1417   5
  -2  -6  -3 320.303 18.0207   3
  -2  -6  -3 325.968 17.7563   2
  -3  -6  -3 9.90135 1.36445   5
  -3  -6  -3 10.5733 1.59539   3
  -3  -6  -3 12.7113 1.66812   6
  -3  -6  -3 11.7755 1.35273   2
  -4  -6  -3 62.3652 4.29491   2
  -4  -6  -3 67.1568 4.69654   6
  -4  -6  -3 71.5906 4.98330   3
  -5  -6  -3 39.5186 3.10809   2
  -5  -6  -3 45.9422 3.59722   6
  -5  -6  -3 40.3108 2.35923   8
  -5  -6  -3 41.1821 3.71195   3
  -6  -6  -3 5.82332 0.61234   8
  -7  -6  -3 421.747 22.3999   8
   8   6   3 285.416 15.1648   8
   9   6   3 33.7295 1.93552   8
  10   6   3 3.44584 0.41176   8
  10   6   3 4.76967 0.69917   9
  11   6   3 118.448 6.45425  11
  12   6   3 37.2577 2.13778  11
   6  -7  -3 30.5390 1.79795  16
   5  -7  -3 52.2816 3.12050  15
   5  -7  -3 54.7346 3.04292  16
   5  -7  -3 51.8216 3.02614  17
   4  -7  -3 177.512 9.73794  14
   4  -7  -3 183.509 9.57563  16
   4  -7  -3 169.788 9.60623  17
   4  -7  -3 180.210 9.71113  15
   3  -7  -3 115.360 6.19245  14
   3  -7  -3 88.3019 6.74090   6
   3  -7  -3 117.947 6.11170  15
   3  -7  -3 111.364 5.93183  16
   3  -7  -3 106.683 5.98594  17
   3  -7  -3 107.451 6.01942  13
   2  -7  -3 3.99616 0.53237  12
   2  -7  -3 5.97091 0.73637  13
   2  -7  -3 4.29939 1.19235   6
   2  -7  -3 5.04251 0.72584  15
   2  -7  -3 3.81462 0.81539  14
   2  -7  -3 4.82287 0.54649  16
   2  -7  -3 3.79488 0.55042  17
   1  -7  -3 10.2129 1.03981  13
   1  -7  -3 8.89709 0.84012  12
   1  -7  -3 10.2792 1.02407  15
   1  -7  -3 10.4631 1.20923  14
   1  -7  -3 10.0115 0.54627  10
   1  -7  -3 10.2907 1.56758   6
   1  -7  -3 9.90796 0.76316  16
   0  -7  -3 0.14261 0.53266  14
   0  -7  -3 -0.1255 0.21969  12
   0  -7  -3 0.44579 0.22092  10
   0  -7  -3 -0.3105 0.38204  15
   0  -7  -3 0.11912 0.29714  16
   0  -7  -3 -0.2741 0.28945  13
   0  -7  -3 0.64975 0.63880   6
  -1  -7  -3 297.730 15.4139  12
  -1  -7  -3 294.827 15.5713  14
  -1  -7  -3 271.972 15.2550   9
  -1  -7  -3 296.836 15.4531  13
  -1  -7  -3 262.666 15.3639  16
  -1  -7  -3 296.055 15.3683   2
  -1  -7  -3 283.530 15.3423  10
  -1  -7  -3 291.978 15.5111  15
  -1  -7  -3 301.110 15.5010   3
  -1  -7  -3 291.860 16.3329   5
  -1  -7  -3 293.850 16.2228   6
  -2  -7  -3 114.907 6.70568   3
  -2  -7  -3 112.450 6.10142  10
  -2  -7  -3 118.046 6.41506   2
  -2  -7  -3 114.123 6.30037  14
  -2  -7  -3 115.373 6.23896  15
  -2  -7  -3 114.389 7.00768   5
  -2  -7  -3 117.932 7.07314   6
  -2  -7  -3 111.575 6.14782  13
  -2  -7  -3 112.380 6.06996   9
  -2  -7  -3 100.889 6.08863  16
  -3  -7  -3 5.63984 0.63644   9
  -3  -7  -3 7.07856 0.85390  15
  -3  -7  -3 5.94914 1.16860   2
  -3  -7  -3 5.42868 0.37420   8
  -3  -7  -3 5.70844 1.19708   5
  -3  -7  -3 5.16442 0.67121  13
  -3  -7  -3 5.81949 1.25067   3
  -3  -7  -3 8.28463 1.49469   6
  -3  -7  -3 5.63653 0.71279  14
  -3  -7  -3 4.17502 0.52640  10
  -4  -7  -3 445.462 23.9009   3
  -4  -7  -3 429.459 23.4500   2
  -4  -7  -3 462.505 23.9935   6
  -4  -7  -3 417.707 22.8256   9
  -4  -7  -3 436.109 22.6932   8
  -4  -7  -3 429.213 22.7880  10
  -4  -7  -3 391.448 22.8691  14
  -5  -7  -3 44.0113 3.75266   6
  -5  -7  -3 41.3010 3.27866   2
  -5  -7  -3 42.7042 3.84564   3
  -5  -7  -3 41.5765 2.32529   8
  -5  -7  -3 39.0870 2.42439  10
  -5  -7  -3 39.6704 2.50321   9
  -6  -7  -3 18.3646 1.20434   8
  -6  -7  -3 11.7780 1.97517   2
  -6  -7  -3 18.9238 2.61229   6
  -6  -7  -3 15.2594 2.62257   3
  -6  -7  -3 17.2602 1.38475   9
  -7  -7  -3 196.170 12.6157   6
  -7  -7  -3 216.309 11.1555   8
  -8  -7  -3 66.1331 3.74247   8
  -9  -7  -3 171.784 8.96864   8
   9   7   3 160.426 8.88489   8
 -10  -7  -3 23.7999 1.60064   8
  10   7   3 27.5877 1.54243   8
   5  -8  -3 204.707 9.62863  16
   5  -8  -3 155.694 9.59549  17
   4  -8  -3 6.49060 0.82516  14
   4  -8  -3 8.28537 0.83426  16
   4  -8  -3 5.69072 0.59944  17
   4  -8  -3 8.30342 0.84931  15
   3  -8  -3 4.38622 0.70952  14
   3  -8  -3 2.92301 0.73688  15
   3  -8  -3 3.20349 0.58200  13
   3  -8  -3 3.70460 0.55269  16
   2  -8  -3 1.19121 0.63575  15
   2  -8  -3 0.20800 0.53182  14
   2  -8  -3 0.36969 0.42411  16
   2  -8  -3 0.79958 0.46710  13
   1  -8  -3 4.48655 0.63169  15
   1  -8  -3 3.42018 1.01932   6
   1  -8  -3 4.31246 0.63238  13
   1  -8  -3 4.82744 0.87135  14
   1  -8  -3 4.14141 0.53449  16
   0  -8  -3 12.2752 0.72907  10
   0  -8  -3 13.1436 1.19131  15
   0  -8  -3 10.6381 1.56074   6
   0  -8  -3 12.3262 1.19423  13
   0  -8  -3 13.3840 1.21056  14
   0  -8  -3 12.5067 0.88862  16
  -1  -8  -3 -0.1181 0.45470  15
  -1  -8  -3 -0.1498 0.29508  16
  -1  -8  -3 0.21406 0.34091  13
  -1  -8  -3 -0.2614 0.27568  10
  -1  -8  -3 0.12358 0.43132  14
  -1  -8  -3 0.37396 0.73980   6
  -2  -8  -3 152.205 7.84012  13
  -2  -8  -3 140.654 7.62440   9
  -2  -8  -3 150.643 7.99751  14
  -2  -8  -3 140.965 8.77221   6
  -2  -8  -3 138.028 8.00134   3
  -2  -8  -3 143.963 7.73727  10
  -2  -8  -3 135.023 7.80866   2
  -2  -8  -3 145.792 7.92281  15
  -3  -8  -3 823.255 46.3557   3
  -3  -8  -3 860.024 46.1154   2
  -3  -8  -3 901.579 45.8920  15
  -3  -8  -3 874.744 45.6806   9
  -3  -8  -3 874.851 46.8847   6
  -3  -8  -3 846.713 45.7483  13
  -3  -8  -3 877.405 45.9022  14
  -3  -8  -3 859.681 45.7132  10
  -4  -8  -3 39.8364 2.39300   9
  -4  -8  -3 37.4492 2.13893   8
  -4  -8  -3 38.8312 3.33808   3
  -4  -8  -3 38.8063 2.52943  14
  -4  -8  -3 42.9624 3.11079   2
  -4  -8  -3 40.3331 3.64005   6
  -4  -8  -3 42.9482 2.52779  15
  -4  -8  -3 40.5720 2.37649  10
  -5  -8  -3 5.80315 1.92191   3
  -5  -8  -3 6.81702 0.79377   9
  -5  -8  -3 6.45157 0.72726  10
  -5  -8  -3 6.08221 1.59703   2
  -5  -8  -3 7.01303 1.77767   6
  -5  -8  -3 7.42307 0.63587   8
  -6  -8  -3 38.7191 2.43907  10
  -6  -8  -3 40.7989 2.28617   8
  -6  -8  -3 41.8214 4.05745   6
  -6  -8  -3 38.3765 2.50124   9
  -7  -8  -3 7.36875 1.77919   6
  -7  -8  -3 4.96323 0.59914   8
  -7  -8  -3 5.43163 0.80808   9
  -8  -8  -3 1.26036 0.49906   8
  -9  -8  -3 64.9404 3.65510   8
  10   8   3 65.8408 3.58586   8
   4  -9  -3 50.8755 3.04372  15
   4  -9  -3 54.9096 2.93731  16
   3  -9  -3 282.779 15.2584  15
   3  -9  -3 290.166 15.2999  14
   3  -9  -3 280.821 15.1198  16
   2  -9  -3 26.5687 1.63406  16
   2  -9  -3 26.5357 1.86648  13
   2  -9  -3 28.5935 1.93435  15
   2  -9  -3 28.0798 1.99116  14
   1  -9  -3 36.1507 2.36785  15
   1  -9  -3 37.9629 2.33996  13
   1  -9  -3 36.9630 2.37960  14
   1  -9  -3 33.6285 2.10987  16
   0  -9  -3 92.9432 5.16146  15
   0  -9  -3 88.0143 4.97037  16
   0  -9  -3 86.9441 5.07690  13
   0  -9  -3 93.5436 5.27963  14
  -1  -9  -3 -0.3909 1.26447   6
  -1  -9  -3 0.69714 0.20792  10
  -1  -9  -3 0.50690 0.74135  14
  -1  -9  -3 0.55366 0.58604  13
  -1  -9  -3 0.59076 0.41239  15
  -2  -9  -3 163.376 10.7557   6
  -2  -9  -3 191.436 9.95050  15
  -2  -9  -3 185.468 9.86279  13
  -2  -9  -3 180.060 9.71607  10
  -2  -9  -3 183.296 9.99809  14
  -3  -9  -3 274.502 15.2010  13
  -3  -9  -3 294.433 15.3571  15
  -3  -9  -3 287.174 15.1539  10
  -3  -9  -3 281.618 15.0248   9
  -3  -9  -3 282.372 15.3608  14
  -4  -9  -3 39.8547 2.56284  14
  -4  -9  -3 39.2758 2.35497  10
  -4  -9  -3 36.7875 3.71735   6
  -4  -9  -3 37.8210 2.30208   9
  -4  -9  -3 39.3229 2.48725  15
  -5  -9  -3 89.0992 6.51561   6
  -5  -9  -3 98.3266 5.24873   9
  -5  -9  -3 88.0610 5.33387  14
  -5  -9  -3 96.8031 5.25475  10
  -5  -9  -3 96.7188 5.40982  15
  -6  -9  -3 -0.7568 0.50498  10
  -6  -9  -3 -0.5678 0.52289   9
  -6  -9  -3 0.36978 0.43326  15
  -7  -9  -3 19.2082 1.55420   9
  -8  -9  -3 124.816 6.92251   9
  -9  -9  -3 4.24667 0.62774   9
   3 -10  -3 70.4243 3.88586  15
   2 -10  -3 193.627 9.81879  15
   2 -10  -3 169.452 9.83228  14
   1 -10  -3 2.21967 0.64505  15
   1 -10  -3 1.46725 0.56846  14
   0 -10  -3 42.7947 2.49153  15
   0 -10  -3 41.6720 2.66388  14
   0 -10  -3 36.2491 2.42056  13
  -1 -10  -3 419.674 23.1132  13
  -1 -10  -3 436.654 23.2561  14
  -1 -10  -3 445.128 23.1787  15
  -2 -10  -3 31.3377 2.19511  14
  -2 -10  -3 34.6687 2.12940  15
  -2 -10  -3 31.6763 1.80477  10
  -2 -10  -3 31.5502 2.11217  13
  -3 -10  -3 4.31809 0.68905  13
  -3 -10  -3 5.57688 0.81128  15
  -3 -10  -3 4.95706 0.75169  14
  -3 -10  -3 4.37676 0.52954  10
  -4 -10  -3 0.19596 0.44606  15
  -4 -10  -3 0.48371 0.68888  14
  -4 -10  -3 0.26839 0.46340  10
  -5 -10  -3 211.012 10.9414  10
  -5 -10  -3 189.924 11.0124  14
  -5 -10  -3 195.782 10.8268   9
  -5 -10  -3 215.435 11.1211  15
  -6 -10  -3 0.47778 0.54664  10
  -6 -10  -3 -0.4494 0.42323   9
  -6 -10  -3 0.57181 0.44650  15
  -7 -10  -3 1.16285 0.57309   9
  -7 -10  -3 1.03068 0.66253  15
  -7 -10  -3 1.38801 0.45742  10
  -8 -10  -3 16.4099 1.35337   9
  -9 -10  -3 12.7537 1.25302  15
 -10 -10  -3 65.6447 3.70829  15
   1 -11  -3 7.90270 0.78394  14
   1 -11  -3 9.02279 0.72709  15
   0 -11  -3 1.84967 0.44018  15
   0 -11  -3 1.98186 0.54198  14
  -1 -11  -3 14.6690 1.08868  15
  -1 -11  -3 12.8014 1.15146  14
  -2 -11  -3 4.02110 0.58500  15
  -2 -11  -3 3.08409 0.81125  14
  -3 -11  -3 118.739 6.97077  15
  -3 -11  -3 132.304 7.08322  14
  -3 -11  -3 129.852 6.73903  10
  -4 -11  -3 2.41573 0.71290  14
  -4 -11  -3 2.43032 0.40487  10
  -4 -11  -3 2.39726 0.67178  15
  -5 -11  -3 0.17971 0.41891  15
  -5 -11  -3 0.45182 0.42398  10
  -5 -11  -3 -0.0143 0.37288  14
  -6 -11  -3 205.344 10.6889  15
  -6 -11  -3 187.778 10.5320  10
  -7 -11  -3 39.2476 2.34853  10
  -7 -11  -3 38.6607 2.46530  15
  -8 -11  -3 6.01586 0.70587  15
  -9 -11  -3 28.2266 1.73120  15
  -1 -12  -3 7.50189 0.68347  14
  -2 -12  -3 7.03337 0.62544  15
  -3 -12  -3 9.39537 0.85980  14
  -3 -12  -3 10.8563 0.82905  15
  -4 -12  -3 15.5990 1.05342  15
  -4 -12  -3 13.7456 1.05461  14
  -5 -12  -3 35.8370 2.21100  15
  -5 -12  -3 38.4253 2.03575  10
  -6 -12  -3 58.0726 3.30407  15
  -7 -12  -3 6.01834 0.61249  15
  -6 -11   4 0.63379 0.37996  14
  -5 -11   4 18.4546 1.08866  10
  -4 -11   4 5.36501 0.67882  14
  -3 -11   4 11.3566 0.93949  14
  -2 -11   4 4.49634 0.50007  13
  -1 -11   4 45.8862 2.36394  13
  -1 -11   4 35.9568 2.37195  14
  -8 -10   4 8.60629 0.69183   9
  -7 -10   4 5.31886 0.58982   9
  -7 -10   4 5.25134 0.59113  10
  -7 -10   4 5.31421 0.71183  14
  -6 -10   4 143.784 7.48412  10
  -6 -10   4 138.112 7.67748  14
  -6 -10   4 133.444 7.36685   9
  -5 -10   4 1.04263 0.32825  10
  -5 -10   4 0.98060 0.55750  14
  -4 -10   4 2.01924 0.74988  14
  -4 -10   4 1.79561 0.40134  10
  -3 -10   4 0.70479 0.33251  13
  -3 -10   4 0.41771 0.69545  14
  -3 -10   4 0.93727 0.27713  10
  -2 -10   4 7.29375 0.88217  13
  -2 -10   4 7.39469 0.89117  14
  -1 -10   4 10.2255 0.87515  13
  -1 -10   4 9.70985 0.97357  14
   0 -10   4 0.36130 0.39511  14
   0 -10   4 0.11055 0.35114  12
   0 -10   4 0.19904 0.36225  13
   1 -10   4 149.788 8.06021  12
  -9  -9   4 37.0248 2.17353   9
  -8  -9   4 63.8777 3.67788  14
  -7  -9   4 18.1091 1.26913   9
  -7  -9   4 16.4938 1.36160  14
  -7  -9   4 15.8629 1.16102  10
  -6  -9   4 5.12668 0.55327  10
  -6  -9   4 2.85425 0.64037   9
  -6  -9   4 4.10857 0.89146  14
  -5  -9   4 157.984 8.53170  14
  -5  -9   4 151.193 8.21646  10
  -5  -9   4 146.763 8.21578   9
  -4  -9   4 1.42774 0.75964  14
  -4  -9   4 1.72214 0.36995   9
  -4  -9   4 1.47507 0.34925  10
  -3  -9   4 0.25495 0.35216  10
  -3  -9   4 0.05127 0.71486  14
  -3  -9   4 -0.0717 0.44052  13
  -2  -9   4 259.322 14.2332  13
  -2  -9   4 281.089 14.4349  14
  -2  -9   4 255.324 14.0619  10
  -2  -9   4 264.173 14.1625  12
  -1  -9   4 5.38143 0.60324  12
  -1  -9   4 4.15471 0.37294  10
  -1  -9   4 2.71899 0.68212  13
  -1  -9   4 3.53849 0.85998  14
   0  -9   4 -0.2794 0.63680  14
   0  -9   4 0.51347 0.52952  12
   0  -9   4 -0.2203 0.54692  13
   1  -9   4 0.16312 0.38036  12
   1  -9   4 0.58339 0.40413  14
   1  -9   4 -0.2416 0.51458  13
   2  -9   4 29.8137 1.93264  12
   2  -9   4 34.4536 1.97069  13
   3  -9   4 69.3775 3.41766  12
   3  -9   4 53.3659 3.37127  13
  10   8  -4 4.36366 0.37476   8
 -10  -8   4 4.27373 0.43710   8
   9   8  -4 8.21722 0.70450   8
  -9  -8   4 12.8634 0.85753   8
  -9  -8   4 11.1366 0.95971   9
  -8  -8   4 19.4723 1.21645   8
  -8  -8   4 15.4144 1.35177  14
  -7  -8   4 5.04810 0.80635   9
  -7  -8   4 6.66315 0.72750   8
  -7  -8   4 7.35897 0.97187  14
  -6  -8   4 34.1218 2.01898   8
  -6  -8   4 36.4457 2.28281   9
  -6  -8   4 33.2971 2.13407  10
  -6  -8   4 36.0243 2.39631  14
  -5  -8   4 42.0145 2.33504   8
  -5  -8   4 43.1793 2.56469  10
  -5  -8   4 43.5004 2.66122   9
  -5  -8   4 45.0507 2.83773  14
  -4  -8   4 343.384 18.3850   9
  -4  -8   4 343.880 18.3431  10
  -4  -8   4 346.227 18.6321  14
  -3  -8   4 2.36894 0.44154   9
  -3  -8   4 2.91816 0.82334  14
  -3  -8   4 2.67372 0.39152  12
  -3  -8   4 2.82366 0.46555  10
  -3  -8   4 2.32426 1.18032   5
  -3  -8   4 2.30434 0.52523  13
  -2  -8   4 138.795 7.52837  12
  -2  -8   4 141.734 7.46035  10
  -2  -8   4 130.787 7.32413   9
  -2  -8   4 144.166 7.63425  13
  -2  -8   4 120.617 8.89160   5
  -2  -8   4 149.872 7.80099  14
  -1  -8   4 21.4516 1.27849  10
  -1  -8   4 20.1784 1.48594  13
  -1  -8   4 21.7587 1.64454  14
  -1  -8   4 20.5627 1.40911  12
   0  -8   4 122.085 6.64838  10
   0  -8   4 122.028 6.99936  14
   0  -8   4 128.781 6.96095  13
   0  -8   4 128.071 6.90267  12
   1  -8   4 31.4266 1.98101  12
   1  -8   4 28.1121 2.11191  14
   1  -8   4 31.4838 2.01365  13
   1  -8   4 33.7756 2.14571  11
   2  -8   4 41.4094 2.44974  13
   2  -8   4 35.4589 2.39991  14
   2  -8   4 40.2625 2.51548  11
   2  -8   4 39.4640 2.37879  12
   3  -8   4 3.08879 0.75821  11
   3  -8   4 2.79503 0.60405  13
   3  -8   4 3.62411 0.52446  12
   4  -8   4 3.29842 0.53908  11
   4  -8   4 2.24017 0.35131  13
   4  -8   4 1.58699 0.36608  12
   5  -8   4 17.0508 1.04671  12
  10   7  -4 34.2194 1.92796   8
 -10  -7   4 35.9673 2.00240   8
   9   7  -4 6.04279 0.68336   8
  -9  -7   4 9.18761 0.91699   8
  -8  -7   4 33.6458 2.27513  14
  -8  -7   4 36.8802 2.17937   8
  -7  -7   4 508.778 25.9069   8
  -7  -7   4 467.547 26.0026   9
  -6  -7   4 86.6071 4.80845   8
  -6  -7   4 87.7521 4.95572   9
  -5  -7   4 17.7665 1.25452   8
  -5  -7   4 17.4401 1.28003   9
  -5  -7   4 17.3290 1.24725  10
  -4  -7   4 16.8667 2.34891   3
  -4  -7   4 21.6975 1.44328   9
  -4  -7   4 15.7305 1.99361   2
  -4  -7   4 19.9036 1.72417  14
  -4  -7   4 21.0327 1.21466   8
  -4  -7   4 19.8972 1.33220  10
  -4  -7   4 18.6644 2.38875   5
  -3  -7   4 706.287 38.3866   9
  -3  -7   4 744.019 38.3691  10
  -3  -7   4 697.352 38.9400   2
  -3  -7   4 727.179 39.6382   5
  -3  -7   4 685.129 39.1207   3
  -3  -7   4 775.765 38.6603  14
  -3  -7   4 739.464 38.4494  13
  -2  -7   4 19.2690 1.56184  14
  -2  -7   4 16.6867 1.10872  10
  -2  -7   4 17.6973 1.67418   2
  -2  -7   4 16.2172 1.15927   9
  -2  -7   4 16.5687 1.79702   3
  -2  -7   4 15.9979 1.15550  12
  -2  -7   4 15.0340 1.28014  13
  -2  -7   4 17.6895 2.43264   5
  -1  -7   4 47.0552 2.75020  13
  -1  -7   4 44.2955 3.77218   5
  -1  -7   4 41.1348 2.69230   3
  -1  -7   4 44.9787 2.70012   2
  -1  -7   4 47.9266 2.59421  10
  -1  -7   4 46.9953 2.49837   9
  -1  -7   4 46.5730 2.87049  14
  -1  -7   4 47.1767 2.69610  12
   0  -7   4 29.2154 1.94949  13
   0  -7   4 30.5345 1.88756  12
   0  -7   4 29.7459 1.72657  10
   0  -7   4 28.4898 3.14058   5
   0  -7   4 32.9864 2.13985  11
   0  -7   4 29.6315 2.03285  14
   1  -7   4 23.4983 1.83880  11
   1  -7   4 26.1061 1.66420  13
   1  -7   4 23.0829 1.32313  10
   1  -7   4 24.6799 1.78642  14
   1  -7   4 24.5801 1.60672  12
   1  -7   4 20.8995 2.73300   5
   2  -7   4 -0.5167 0.52352  12
   2  -7   4 0.61055 0.52673  13
   2  -7   4 0.27757 0.46126  11
   2  -7   4 0.61988 0.40293  14
   3  -7   4 35.0280 2.17985  12
   3  -7   4 33.3427 2.34425  11
   3  -7   4 31.8154 2.12928  13
   4  -7   4 410.072 21.7478  11
   4  -7   4 425.312 21.6532  12
   4  -7   4 383.872 21.6088  13
   5  -7   4 27.2235 1.66815  12
   5  -7   4 26.7938 1.78531  11
   6  -7   4 28.2168 1.71969  12
   6  -7   4 32.4591 1.85028  11
  10   6  -4 0.40700 0.18810   8
 -10  -6   4 0.57621 0.47411   8
   9   6  -4 490.325 26.1169  18
  -9  -6   4 489.804 25.9960   8
   8   6  -4 60.5109 3.40525   8
  -8  -6   4 62.6016 3.53348   8
  -7  -6   4 101.266 5.57053   8
  -6  -6   4 1.30940 0.45859   8
  -5  -6   4 464.028 24.8410   9
  -5  -6   4 482.902 24.7496   8
  -5  -6   4 471.906 25.5437   2
  -5  -6   4 447.486 25.9540   3
  -4  -6   4 11.2705 0.84939   8
  -4  -6   4 10.9892 1.47703   5
  -4  -6   4 12.9797 1.88206   3
  -4  -6   4 10.7749 0.87282  10
  -4  -6   4 12.6028 1.65859   2
  -4  -6   4 11.6456 0.98004   9
  -3  -6   4 55.9167 3.12018   8
  -3  -6   4 56.1271 3.23391   9
  -3  -6   4 58.7949 3.19756  10
  -3  -6   4 60.2913 4.12674   3
  -3  -6   4 54.3788 3.23223  13
  -3  -6   4 59.0463 4.25577   5
  -3  -6   4 58.7169 3.78724   2
  -2  -6   4 434.951 22.5056  14
  -2  -6   4 431.364 22.2814  10
  -2  -6   4 407.698 22.1610   8
  -2  -6   4 421.676 22.3826  13
  -2  -6   4 415.077 22.2919   9
  -2  -6   4 447.574 22.7586   2
  -2  -6   4 404.538 23.3686   5
  -2  -6   4 427.040 22.9563   3
  -2  -6   4 395.945 22.2942  12
  -1  -6   4 359.449 18.9955   3
  -1  -6   4 355.260 18.7972  14
  -1  -6   4 341.465 18.6843  13
  -1  -6   4 350.500 18.8703   2
  -1  -6   4 356.999 18.5556  10
  -1  -6   4 363.838 18.7235  11
  -1  -6   4 330.145 18.5402   9
  -1  -6   4 362.444 19.7895   5
  -1  -6   4 333.025 18.6093  12
   0  -6   4 46.4134 2.50565  10
   0  -6   4 45.0391 2.53651   2
   0  -6   4 44.6910 3.56522   5
   0  -6   4 45.2206 2.74129  14
   0  -6   4 46.0575 2.63217  12
   0  -6   4 41.0017 2.52467   3
   0  -6   4 45.3064 2.67296  13
   0  -6   4 44.6871 2.41432   9
   0  -6   4 47.1352 2.71023  11
   1  -6   4 39.6489 3.44049   5
   1  -6   4 37.3627 2.44175  14
   1  -6   4 38.2410 2.19617  10
   1  -6   4 41.1249 2.42673  13
   1  -6   4 40.4643 2.37615  12
   1  -6   4 43.5159 2.56804  11
   2  -6   4 102.799 5.53873  13
   2  -6   4 102.054 5.63990  11
   2  -6   4 95.2384 6.50428   5
   2  -6   4 93.7097 5.52950  14
   2  -6   4 93.4672 5.22750  10
   2  -6   4 100.745 5.71497  18
   2  -6   4 103.659 5.51468  12
   3  -6   4 116.955 6.37554  12
   3  -6   4 119.225 6.56918  18
   3  -6   4 103.821 7.99595   4
   3  -6   4 114.695 6.38796  13
   3  -6   4 118.815 6.50713  11
   4  -6   4 16.2662 1.57728  18
   4  -6   4 14.9258 1.21636  13
   4  -6   4 17.0731 1.52711  11
   4  -6   4 15.6677 1.19310  12
   5  -6   4 289.840 15.2991  12
   5  -6   4 283.176 15.4705  18
   5  -6   4 284.639 15.4112  11
   6  -6   4 102.485 5.82838  18
   6  -6   4 96.2578 5.62498  12
   6  -6   4 112.036 5.81065  11
   7  -6   4 4.69996 0.60514  11
  11   5  -4 11.6010 0.87596   9
  10   5  -4 10.5410 0.96222  18
  10   5  -4 11.9797 1.05234   9
  10   5  -4 11.9499 0.72917   8
   9   5  -4 11.0583 1.15575  18
   9   5  -4 10.1332 0.72461   8
   8   5  -4 758.834 40.0641   8
   7   5  -4 0.58726 0.34188   8
  -6  -5   4 4.67197 0.56837   8
  -5  -5   4 9.90965 1.88780   3
  -5  -5   4 12.2569 1.71698   2
  -5  -5   4 12.9251 0.94260   8
  -4  -5   4 0.43662 1.21188   3
  -4  -5   4 1.77559 0.35407   8
  -4  -5   4 1.03950 0.75901   5
  -4  -5   4 1.39548 0.39881   9
  -4  -5   4 1.22641 0.74379   2
  -3  -5   4 0.75773 0.26738   8
  -3  -5   4 1.99560 0.99371   3
  -3  -5   4 1.09239 0.64298   2
  -3  -5   4 0.20532 0.68194   5
  -2  -5   4 7.16677 0.55218   8
  -2  -5   4 7.26823 0.93700   2
  -2  -5   4 6.53186 1.16058   3
  -2  -5   4 6.63040 1.15382   5
  -1  -5   4 260.172 13.9175   2
  -1  -5   4 231.734 13.5902   9
  -1  -5   4 261.098 14.5410   5
  -1  -5   4 274.028 14.1339   3
   0  -5   4 100.679 5.55934   3
   0  -5   4 99.1483 5.39562   2
   0  -5   4 98.6610 5.16464  10
   0  -5   4 93.7174 5.23993  12
   0  -5   4 91.3574 5.28353  13
   0  -5   4 100.562 6.18575   5
   0  -5   4 88.2818 5.14282   9
   0  -5   4 98.5104 5.32672  11
   1  -5   4 30.6304 1.69825  10
   1  -5   4 30.7233 3.01246   4
   1  -5   4 32.1590 2.74844   5
   1  -5   4 30.8698 1.81065  12
   1  -5   4 30.1950 1.88677  13
   1  -5   4 30.2796 1.99285  18
   1  -5   4 30.0186 1.89347  11
   1  -5   4 27.3781 1.90672  14
   2  -5   4 73.4750 4.87632   5
   2  -5   4 73.3580 5.30968   4
   2  -5   4 73.3908 3.99913  12
   2  -5   4 61.9893 3.99877  14
   2  -5   4 75.7772 4.21597  18
   2  -5   4 66.7414 3.94321  17
   2  -5   4 75.2074 4.11229  11
   2  -5   4 67.1821 3.80090  10
   2  -5   4 74.5859 4.03145  13
   3  -5   4 1263.77 73.1727  10
   3  -5   4 1410.36 73.3751  13
   3  -5   4 1449.76 73.4869  11
   3  -5   4 1520.56 73.5799  18
   3  -5   4 1304.04 74.9081   4
   3  -5   4 1377.38 73.3164  17
   3  -5   4 1395.88 73.3678  12
   4  -5   4 0.95016 0.56967  17
   4  -5   4 0.97348 0.50075  12
   4  -5   4 0.62754 1.51224   4
   4  -5   4 1.38428 0.58913  18
   4  -5   4 1.40951 0.64887  11
   4  -5   4 0.94729 0.42829  13
   5  -5   4 0.82488 0.59944  17
   5  -5   4 0.46341 0.74602  18
   5  -5   4 -0.4076 0.48009  12
   5  -5   4 -0.1016 0.62813  11
   6  -5   4 29.5215 2.00505  11
   6  -5   4 27.0314 2.03900  18
   6  -5   4 24.4652 1.66630  12
   7  -5   4 155.638 8.66586  18
   7  -5   4 160.488 8.62562  11
   8  -5   4 5.63221 0.63941  11
  11   4  -4 46.0808 2.28448   9
  11   4  -4 36.1351 2.38559  18
  10   4  -4 205.108 11.4634   8
  10   4  -4 226.258 11.6246   9
  10   4  -4 221.460 11.7989  18
   9   4  -4 3.80141 0.40780   8
   9   4  -4 5.47438 0.57567   9
   9   4  -4 3.48699 0.74788  18
   8   4  -4 6.69183 0.63301   8
   7   4  -4 40.1364 2.26641   8
  -4  -4   4 0.52715 0.54116   5
  -4  -4   4 0.63979 0.61678   2
  -4  -4   4 0.10849 0.94324   3
  -3  -4   4 72.1599 4.55107   5
  -3  -4   4 68.6150 4.66146   3
  -3  -4   4 72.5921 4.29871   2
  -2  -4   4 16.9161 1.89041   3
  -2  -4   4 15.6167 1.35151   2
  -2  -4   4 15.6050 1.69334   5
  -1  -4   4 109.838 6.40840   3
  -1  -4   4 107.168 6.61353   5
  -1  -4   4 111.334 6.17894   2
   0  -4   4 759.674 39.5389   3
   0  -4   4 733.952 39.3928   2
   0  -4   4 740.754 39.9562   5
   0  -4   4 735.443 40.1069   4
   1  -4   4 98.3090 5.27381   3
   1  -4   4 88.9567 5.72930   5
   1  -4   4 92.3605 5.14152   2
   1  -4   4 91.7537 6.05072   4
   2  -4   4 36.9743 2.33533  18
   2  -4   4 35.0052 1.97956  10
   2  -4   4 36.0235 2.82345   5
   2  -4   4 38.3850 3.13554   4
   2  -4   4 34.5347 2.11495  12
   2  -4   4 35.9557 2.17952  11
   3  -4   4 1.53440 0.77882   5
   3  -4   4 1.63756 0.39569  13
   3  -4   4 2.04764 0.63840  18
   3  -4   4 2.65724 1.30603   4
   3  -4   4 2.26387 0.38365  17
   3  -4   4 1.56799 0.21821  10
   3  -4   4 1.04477 0.38783  11
   3  -4   4 2.07658 0.36451  12
   4  -4   4 3.83652 0.76340  18
   4  -4   4 3.59555 0.65833  11
   4  -4   4 3.58870 0.31852  10
   4  -4   4 4.20901 0.58257  17
   4  -4   4 2.86633 0.46457  13
   4  -4   4 3.40465 1.49755   4
   4  -4   4 3.27351 0.47808  12
   5  -4   4 21.4959 3.05240   4
   5  -4   4 27.3267 2.01416  18
   5  -4   4 27.5840 1.69738  12
   5  -4   4 26.8111 1.77190  17
   5  -4   4 26.8358 1.82856  11
   6  -4   4 71.6932 4.19654  18
   6  -4   4 67.6161 3.98791  12
   6  -4   4 70.8841 4.10458  11
   6  -4   4 72.1008 4.02677  17
   7  -4   4 4.44774 0.50578  12
   7  -4   4 5.10862 0.77685  17
   7  -4   4 4.26002 0.74787  18
   7  -4   4 4.64615 0.78372  11
   8  -4   4 6.93360 0.88375  18
   8  -4   4 9.96499 1.08055  11
   9  -4   4 0.50405 0.31557  11
   9  -4   4 0.78051 0.33441  18
  11   3  -4 7.37837 0.49772   9
  11   3  -4 7.85655 0.72264  18
  11   3  -4 7.11684 0.59590  10
  10   3  -4 6.95213 0.84426  18
  10   3  -4 6.57547 0.78135   9
  10   3  -4 7.36493 0.82351  10
   9   3  -4 55.7756 3.14046   8
   9   3  -4 61.1687 3.57062  18
   9   3  -4 58.0949 3.32847   9
   8   3  -4 20.2431 1.47879   9
   8   3  -4 22.0815 1.27829   8
   7   3  -4 9.07146 0.95559   9
   7   3  -4 11.7667 0.76699   8
   6   3  -4 6.90330 0.59183   8
   5   3  -4 113.210 6.42152   7
   4   3  -4 11.0478 0.99566   7
  -4  -3   4 10.9218 1.58089   3
  -4  -3   4 9.81079 1.16847   2
  -4  -3   4 11.4037 1.16848   5
   3   3  -4 0.54164 0.31064   7
   3   3  -4 0.68566 0.54126   1
  -3  -3   4 1.01744 0.56259   1
  -3  -3   4 0.34107 0.75376   3
  -3  -3   4 1.53045 0.61649   5
  -3  -3   4 1.16793 0.53501   2
  -2  -3   4 1259.27 64.8226   5
  -2  -3   4 1286.10 64.5641   2
  -2  -3   4 1120.82 64.6871   1
  -2  -3   4 1288.33 64.8471   3
  -2  -3   4 1140.41 64.6527   1
   1   3  -4 0.52862 0.52127   1
  -1  -3   4 0.33812 0.46651   1
  -1  -3   4 -0.2251 0.47621   2
  -1  -3   4 -0.0059 0.58413   5
  -1  -3   4 -0.2643 0.27510   1
  -1  -3   4 1.06007 0.67167   3
   0  -3   4 7.93955 0.85685   1
   0  -3   4 6.68102 0.90794   1
   0  -3   4 9.83178 1.05354   3
   0  -3   4 8.42128 1.19398   5
   0  -3   4 8.59838 1.28699   4
   0  -3   4 9.39252 0.83051   2
   1  -3   4 289.937 17.5083   2
   1  -3   4 278.645 17.6841   3
   1  -3   4 353.109 17.6503   3
   1  -3   4 359.136 17.5088   2
   1  -3   4 331.090 17.9585   5
   1  -3   4 354.805 18.2206   4
   2  -3   4 639.848 37.5085   2
   2  -3   4 751.355 38.4284   4
   2  -3   4 735.490 37.6047   3
   2  -3   4 725.030 37.4921   2
   2  -3   4 692.484 38.0075   5
   3  -3   4 201.839 10.3565   2
   3  -3   4 215.743 11.6587   4
   3  -3   4 193.779 10.3543   2
   3  -3   4 194.058 10.4156   3
   3  -3   4 172.664 10.4133   3
   3  -3   4 199.300 11.0167   5
   4  -3   4 54.7564 3.04896  17
   4  -3   4 54.1322 3.13503  11
   4  -3   4 53.5821 2.89201  10
   4  -3   4 56.8505 4.19515   4
   4  -3   4 52.3215 3.03017  12
   4  -3   4 56.9435 3.25729  18
   4  -3   4 46.9541 2.96393  16
   5  -3   4 40.7213 2.43645  12
   5  -3   4 41.7543 2.55878  11
   5  -3   4 40.8030 2.24985  10
   5  -3   4 41.3441 2.46136  17
   5  -3   4 41.6469 3.60931   4
   5  -3   4 40.7704 2.65972  18
   6  -3   4 0.58641 0.40662  12
   6  -3   4 1.15368 1.31411   4
   6  -3   4 0.31979 0.52919  11
   6  -3   4 0.52965 0.54869  17
   6  -3   4 0.00633 0.65564  18
   6  -3   4 0.60424 0.18396  10
   7  -3   4 0.33868 0.57883  11
   7  -3   4 0.62642 0.53606  18
   7  -3   4 0.49132 0.40182  12
   7  -3   4 0.96260 0.62880  17
   8  -3   4 11.6437 1.07087  11
   8  -3   4 10.9829 1.09658  18
   9  -3   4 180.805 10.2786  18
   9  -3   4 198.422 10.2435  11
  11   2  -4 66.6501 3.78521  18
  11   2  -4 67.3540 3.63561  10
  10   2  -4 0.30020 0.45949  18
  10   2  -4 0.69084 0.32784  10
  10   2  -4 0.05341 0.30297   9
   9   2  -4 47.3521 2.85864   9
   9   2  -4 51.0116 2.85743  10
   9   2  -4 51.8783 3.18444  18
   8   2  -4 77.9470 4.24333   8
   8   2  -4 82.8130 4.62104  18
   8   2  -4 76.0846 4.38838  10
   8   2  -4 79.0757 4.38919   9
   7   2  -4 35.2563 1.90328   8
   7   2  -4 34.2466 2.04096   9
   7   2  -4 33.1624 2.02315  10
   7   2  -4 31.3184 3.83850   3
   7   2  -4 33.3010 2.61703   2
   6   2  -4 153.238 8.28200   8
   6   2  -4 160.887 8.82244   7
   6   2  -4 173.353 9.77653   3
   6   2  -4 141.321 8.35164   9
   6   2  -4 157.117 8.83781   2
   5   2  -4 1454.51 76.9728   2
   5   2  -4 1407.15 76.9380   7
   5   2  -4 1497.15 77.6313   3
   4   2  -4 27.1274 2.35820   3
   4   2  -4 23.7338 1.68296   7
   4   2  -4 25.4396 1.77399   2
   4   2  -4 22.8371 1.98917   1
  -4  -2   4 18.4486 1.86033   1
  -4  -2   4 22.4239 1.68473   5
   3   2  -4 7.60837 1.02292   1
   3   2  -4 7.18458 0.84623   2
   3   2  -4 6.14642 0.88070   1
   3   2  -4 8.76631 1.33045   3
   3   2  -4 7.18160 0.77978   7
  -3  -2   4 6.07804 0.93494   1
  -3  -2   4 7.14909 0.88045   2
  -3  -2   4 7.36253 0.95619   1
  -3  -2   4 7.22609 0.93925   5
  -3  -2   4 7.76777 1.23142   3
   2   2  -4 2.06497 0.52432   2
   2   2  -4 2.23623 0.86239   3
   2   2  -4 2.06818 0.63622   1
   2   2  -4 2.56833 0.61595   1
  -2  -2   4 2.79001 0.63449   1
  -2  -2   4 2.42263 0.80796   3
  -2  -2   4 3.66041 0.60042   2
  -2  -2   4 2.22841 0.55180   5
  -2  -2   4 2.88442 0.60784   1
   1   2  -4 54.3063 3.37368   1
   1   2  -4 47.0268 3.19639   2
   1   2  -4 56.3653 3.35101   1
   1   2  -4 52.2111 3.61648   3
  -1  -2   4 56.1747 3.32200   1
  -1  -2   4 57.3033 3.55199   3
  -1  -2   4 60.0844 3.24930   2
  -1  -2   4 57.2522 3.37773   1
  -1  -2   4 58.6736 3.50975   5
   0   2  -4 80.2788 4.65582   1
   0  -2   4 76.3474 4.78495   5
   0  -2   4 80.6426 4.88581   4
   0  -2   4 81.7872 4.51271   2
   0  -2   4 85.3593 4.71398   3
   0  -2   4 79.5284 4.61344   1
  -1   2  -4 318.086 16.0769   1
  -1   2  -4 295.195 16.0640   1
   1  -2   4 263.997 15.9392   2
   1  -2   4 313.287 16.2633   5
   1  -2   4 268.425 16.1493   3
   1  -2   4 289.316 16.0717   1
   1  -2   4 317.341 16.4178   4
   1  -2   4 310.363 15.9223   2
   1  -2   4 304.449 16.0791   3
   1  -2   4 299.195 16.0187   1
  -2   2  -4 236.815 13.3859   1
   2  -2   4 278.184 13.9729   4
   2  -2   4 217.916 13.4498   3
   2  -2   4 264.913 13.2502   2
   2  -2   4 242.417 13.4078   1
   2  -2   4 237.714 13.3288   1
   2  -2   4 258.086 13.4179   3
   2  -2   4 226.510 13.2861   2
   2  -2   4 264.514 13.6130   5
   3  -2   4 355.300 18.6622   4
   3  -2   4 351.165 17.9706   3
   3  -2   4 292.086 17.7997   2
   3  -2   4 344.607 17.7981   2
   3  -2   4 328.147 18.1469   5
   4  -2   4 25.8509 1.59628   2
   4  -2   4 25.1192 1.78731   3
   4  -2   4 26.6574 2.41639   4
   5  -2   4 3.48576 0.49117  11
   5  -2   4 3.37680 0.34972   2
   5  -2   4 2.81216 0.24507   9
   5  -2   4 3.26014 0.34661  10
   5  -2   4 3.08371 0.61681  18
   5  -2   4 3.15311 0.45435  12
   5  -2   4 2.67195 0.45979   3
   5  -2   4 3.50807 1.25074   4
   5  -2   4 3.83932 0.55216  17
   6  -2   4 537.800 29.4958  12
   6  -2   4 550.758 29.3872  10
   6  -2   4 567.040 29.6108  11
   6  -2   4 572.504 29.7096  18
   6  -2   4 529.594 30.8224   4
   6  -2   4 579.778 29.5341  17
   7  -2   4 6.58551 0.74370  17
   7  -2   4 7.17933 0.86342  11
   7  -2   4 6.98649 0.93080  18
   7  -2   4 7.25103 0.56477  10
   7  -2   4 4.81763 1.66630   4
   7  -2   4 6.17645 0.72320  12
   8  -2   4 2.91464 0.29041  10
   8  -2   4 2.57473 0.67997  17
   8  -2   4 2.90758 0.81561  18
   8  -2   4 2.58941 0.70733  11
   9  -2   4 80.0907 4.80925  18
   9  -2   4 89.4253 4.79284  11
  10  -2   4 214.271 10.7737  11
  10  -2   4 186.934 10.7690  18
  11   1  -4 2.83978 0.33503  10
  11   1  -4 2.88246 0.46064  18
  10   1  -4 28.9978 2.10036  18
  10   1  -4 36.0658 1.92824  10
   9   1  -4 73.3841 4.03626  10
   9   1  -4 74.9624 4.30461  18
   9   1  -4 69.9562 3.97682   9
   8   1  -4 74.6876 4.08549  10
   8   1  -4 60.1696 4.78029   7
   8   1  -4 75.9882 4.06377   9
   8   1  -4 78.1217 4.42635  18
   7   1  -4 174.296 11.6386   3
   7   1  -4 208.170 10.6967  18
   7   1  -4 192.483 10.4157  10
   7   1  -4 194.044 10.4090   9
   7   1  -4 204.222 10.3135   8
   7   1  -4 188.331 10.8950   2
   6   1  -4 3.51977 0.89883   2
   6   1  -4 2.55688 0.39236  10
   6   1  -4 3.38999 0.34001   8
   6   1  -4 3.19753 1.38972   3
   6   1  -4 3.62167 0.83080   7
   6   1  -4 2.65918 0.39028   9
   5   1  -4 58.5584 3.70621   7
   5   1  -4 62.3709 4.33706   3
   5   1  -4 58.8840 3.67913   2
   4   1  -4 1.02328 0.90683   3
   4   1  -4 0.50217 0.47112   7
   4   1  -4 0.51372 0.57487   1
   4   1  -4 0.21946 0.49816   2
  -4  -1   4 0.69441 0.41179   5
   3   1  -4 575.056 28.8179   2
   3   1  -4 551.468 28.9995   1
   3   1  -4 605.879 29.2735   3
   3   1  -4 495.681 28.9339   1
   3   1  -4 546.279 28.7988   7
  -3  -1   4 526.069 29.0145   1
  -3  -1   4 534.113 28.9608   1
  -3  -1   4 526.247 29.1311   3
  -3  -1   4 507.119 28.8217   2
   2   1  -4 3.69240 0.94384   3
   2   1  -4 3.12720 0.67755   1
   2   1  -4 2.98158 0.57157   2
   2   1  -4 3.62076 0.64700   1
  -2  -1   4 4.38176 0.61330   2
  -2  -1   4 4.63854 0.98989   3
  -2  -1   4 4.04435 0.64899   1
  -2  -1   4 3.68681 0.71670   1
   1   1  -4 177.706 10.0479   3
   1   1  -4 180.761 9.87213   1
   1   1  -4 183.343 9.88261   1
   1   1  -4 176.410 9.74364   2
  -1  -1   4 182.341 9.85249   1
  -1  -1   4 177.345 9.73448   2
  -1  -1   4 178.811 9.97737   3
  -1  -1   4 184.781 9.90296   1
   0   1  -4 14.0415 1.27358   1
   0   1  -4 13.7595 1.17928   1
   0   1  -4 12.5301 1.04242   2
   0   1  -4 13.8131 1.36683   3
   0  -1   4 12.7928 1.13050   1
   0  -1   4 14.2392 1.29072   3
   0  -1   4 13.3410 1.16884   1
   0  -1   4 14.0210 1.25487   4
   0  -1   4 13.9295 1.08188   2
  -1   1  -4 2.56351 0.74367   3
  -1   1  -4 6.26873 0.75607   1
  -1   1  -4 3.66839 0.61578   1
   1  -1   4 3.68810 0.78008   4
   1  -1   4 5.80711 0.69760   1
   1  -1   4 2.91902 0.67666   3
  -2   1  -4 19.4068 1.48313   1
  -2   1  -4 16.5566 1.40117   1
   2  -1   4 19.4877 1.23380   2
   2  -1   4 16.8391 1.41364   1
   2  -1   4 19.2618 1.54121   3
   2  -1   4 14.0509 1.29155   2
   2  -1   4 14.7897 1.51206   3
   2  -1   4 18.4049 1.69720   4
   2  -1   4 18.1302 1.43440   5
   2  -1   4 18.4235 1.32208   1
   3  -1   4 23.6194 1.78993   1
   3  -1   4 27.7531 1.96712   3
   3  -1   4 28.1841 2.28736   4
   3  -1   4 26.8951 1.87797   5
   4  -1   4 17.9869 1.80525   4
   4  -1   4 19.4254 1.58974   3
   5  -1   4 149.130 8.41119   3
   5  -1   4 152.129 8.02639  17
   5  -1   4 140.229 8.05626  11
   5  -1   4 156.326 9.04224   4
   5  -1   4 148.163 7.93905  10
   6  -1   4 53.7364 4.14491   4
   6  -1   4 52.3562 2.97957  12
   6  -1   4 56.3073 3.04501  17
   6  -1   4 49.7547 3.42851   3
   6  -1   4 50.8604 3.14156  18
   6  -1   4 51.5815 3.08483  11
   6  -1   4 54.4142 2.90640  10
   7  -1   4 47.7887 2.80606  18
   7  -1   4 44.5808 2.43300  10
   7  -1   4 41.2196 2.50812  12
   7  -1   4 44.3512 2.31915   9
   7  -1   4 48.4229 2.70070  11
   7  -1   4 42.2474 3.84630   4
   7  -1   4 38.2121 2.39653   2
   7  -1   4 37.9644 2.57681   3
   7  -1   4 47.1248 2.60283  17
   8  -1   4 118.660 6.35410  10
   8  -1   4 117.113 6.57579  11
   8  -1   4 114.877 6.64976  18
   8  -1   4 122.638 6.50505  17
   9  -1   4 51.4966 3.03118  11
   9  -1   4 48.1806 3.06121  18
   9  -1   4 48.2712 2.68592  10
  10  -1   4 8.33350 0.83952  11
  10  -1   4 6.86090 0.74036  18
  10   0  -4 242.857 14.6683  18
  10   0  -4 302.161 14.4670  10
   9   0  -4 105.558 5.58362   9
   9   0  -4 106.244 6.01976  18
   9   0  -4 104.051 5.70964  10
   8   0  -4 11.7100 1.02075  17
   8   0  -4 12.3441 0.89218   9
   8   0  -4 14.3505 1.28154  18
   8   0  -4 12.2321 0.94501  10
   7   0  -4 2.89935 0.40740   9
   7   0  -4 2.75008 0.74227   2
   7   0  -4 3.74823 0.53895  17
   7   0  -4 4.06141 0.66053  18
   7   0  -4 1.72355 1.25524   3
   7   0  -4 3.13227 0.43607  10
   7   0  -4 3.05113 0.85344   7
   6   0  -4 41.4007 2.61927   2
   6   0  -4 38.6975 3.38095   3
   6   0  -4 39.2000 2.21803  10
   6   0  -4 38.8163 2.20928   9
   6   0  -4 39.2848 2.11921   8
   6   0  -4 38.3771 2.29402  17
   6   0  -4 38.5126 2.81783   7
   5   0  -4 299.476 15.8946   2
   5   0  -4 311.659 16.5887   3
   5   0  -4 302.248 16.0560   7
   5   0  -4 267.326 15.5247   8
   4   0  -4 183.862 10.2577   2
   4   0  -4 200.293 10.7839   3
   4   0  -4 179.937 10.3300   7
   3   0  -4 186.318 9.44704   2
   3   0  -4 189.885 9.88268   3
   3   0  -4 169.445 9.47056   7
   3   0  -4 177.146 9.60630   1
   3   0  -4 151.491 9.55034   1
  -3   0   4 170.198 9.64534   1
  -3   0   4 168.601 9.58140   1
   2   0  -4 218.633 11.8510   1
   2   0  -4 237.627 12.0889   3
   2   0  -4 215.268 11.8463   1
   2   0  -4 221.835 11.7189   2
  -2   0   4 196.868 11.7010   2
  -2   0   4 216.897 11.8189   1
  -2   0   4 203.390 11.9514   3
  -2   0   4 229.297 11.9092   1
   1   0  -4 3.85033 0.85029   3
   1   0  -4 4.45573 0.63754   1
   1   0  -4 4.29879 0.69134   1
   1   0  -4 4.48870 0.60600   2
   1   0  -4 5.65424 0.70765   6
  -1   0   4 3.77538 0.79460   3
  -1   0   4 5.06724 0.74652   1
  -1   0   4 4.18354 0.56299   2
  -1   0   4 4.44500 0.63367   1
   0   0  -4 1.45699 0.32890   6
   0   0  -4 1.47560 0.69074   3
   0   0  -4 1.74886 0.56378   1
   0   0  -4 1.83579 0.54077   1
   0   0  -4 2.20612 0.47048   2
   0   0   4 1.96113 0.51093   1
   0   0   4 1.34546 0.60637   3
   0   0   4 2.03374 0.44402   4
   0   0   4 1.37399 0.40951   2
   0   0   4 2.51933 0.60118   1
  -1   0  -4 2360.63 119.518   1
  -1   0  -4 2272.06 118.807   3
  -1   0  -4 2103.96 118.531   2
  -1   0  -4 2206.68 118.954   1
  -1   0  -4 1941.14 118.512   6
   1   0   4 2365.92 119.462   1
   1   0   4 2234.81 120.365   4
   1   0   4 2405.96 119.408   2
   1   0   4 2231.03 118.679   1
   1   0   4 2367.05 119.888   3
  -2   0  -4 88.7630 5.41873   3
  -2   0  -4 77.4503 5.00856   2
  -2   0  -4 75.3540 4.84082   6
  -2   0  -4 99.0165 5.23070   1
  -2   0  -4 98.3203 5.19997   1
   2   0   4 100.182 5.03152   2
   2   0   4 89.6765 5.17420   1
   2   0   4 93.4567 5.25978   4
   2   0   4 95.1188 5.19640   1
   2   0   4 97.7536 5.22393   3
   2   0   4 73.6729 5.25729   3
  -3   0  -4 125.530 7.43699   1
  -3   0  -4 127.926 7.47202   1
   3   0   4 130.632 7.41471   1
   3   0   4 144.243 7.50361   3
   3   0   4 135.503 7.59620   4
   3   0   4 121.228 7.40143   1
   3   0   4 139.318 7.26108   2
   4   0   4 146.810 7.99695   3
   4   0   4 149.278 7.74005   2
   4   0   4 146.719 8.22449   4
   4   0   4 121.542 7.68100   5
   5   0   4 276.820 14.7308   2
   5   0   4 266.261 15.0397   3
   5   0   4 275.738 15.3432   4
   6   0   4 117.186 6.65012   3
   6   0   4 107.553 6.17399  18
   6   0   4 113.292 5.97836  10
   6   0   4 106.606 5.96088   9
   6   0   4 104.662 5.99530  12
   6   0   4 114.810 7.05556   4
   6   0   4 111.589 6.04574  17
   6   0   4 107.658 6.08668  11
   6   0   4 120.228 6.29869   2
   7   0   4 38.4535 3.36165   4
   7   0   4 36.1601 2.05954  10
   7   0   4 35.6481 2.33867  18
   7   0   4 35.4427 2.38400   2
   7   0   4 34.2997 2.84066   3
   7   0   4 33.0014 2.07914  12
   7   0   4 37.2268 2.24898  11
   7   0   4 35.4288 2.15687  17
   7   0   4 36.4979 2.01207   9
   8   0   4 0.30468 0.33367  10
   8   0   4 0.88696 1.32028   4
   8   0   4 1.99034 0.59951  11
   8   0   4 0.07158 0.52606  17
   8   0   4 0.61044 0.57843  18
   9   0   4 190.913 10.9262  18
   9   0   4 203.063 10.6976  10
   9   0   4 207.635 10.9127  11
  10   0   4 35.3955 2.00222  10
  10   0   4 37.3506 2.24212  11
  10   0   4 35.2770 2.28525  18
  11   0   4 2.25707 0.41333  11
  10  -1  -4 -0.0064 0.42443  18
  10  -1  -4 0.07137 0.13303  10
   9  -1  -4 1.14621 0.77232  18
   9  -1  -4 2.05664 0.34230  10
   9  -1  -4 1.33069 0.49547  17
   8  -1  -4 232.284 12.9203  16
   8  -1  -4 237.639 12.9992  17
   8  -1  -4 255.687 13.2984  18
   8  -1  -4 243.537 12.8840  10
   7  -1  -4 0.18203 0.43601  16
   7  -1  -4 0.30860 0.46873  18
   7  -1  -4 -0.2992 0.27375  10
   7  -1  -4 -0.0579 0.88148   7
   7  -1  -4 0.08156 0.26356   9
   7  -1  -4 -0.0896 0.56559   2
   7  -1  -4 0.23042 0.32686  17
   6  -1  -4 0.32222 0.30292  10
   6  -1  -4 0.93906 0.59045   2
   6  -1  -4 0.07012 0.36239  17
   6  -1  -4 -0.0646 0.35162  16
   6  -1  -4 0.91388 0.55237  18
   6  -1  -4 1.10971 0.79994   7
   6  -1  -4 0.61358 0.27295   9
   5  -1  -4 96.0508 5.13492  10
   5  -1  -4 89.3981 5.12297   9
   5  -1  -4 96.6406 5.35298  18
   5  -1  -4 101.846 5.69640   7
   5  -1  -4 91.7260 5.05234   8
   5  -1  -4 93.2629 5.22383  17
   5  -1  -4 98.4637 5.42272   2
   5  -1  -4 101.691 6.08735   3
   4  -1  -4 15.4828 1.42499   7
   4  -1  -4 16.6283 1.92055   3
   4  -1  -4 14.8302 1.19414   2
   3  -1  -4 287.493 15.5682   3
   3  -1  -4 281.060 15.3085   7
   3  -1  -4 298.400 15.1972   2
   3  -1  -4 265.808 15.3122   1
   2  -1  -4 3087.42 164.157   3
   2  -1  -4 3234.18 163.674   2
   2  -1  -4 3188.21 164.441   6
   2  -1  -4 2938.62 163.828   7
   2  -1  -4 3090.78 163.511   1
  -2   1   4 3182.55 163.366   1
  -2   1   4 2891.80 162.889   1
   1  -1  -4 904.880 47.7050   1
   1  -1  -4 917.691 47.5673   2
   1  -1  -4 913.076 47.6711   6
   1  -1  -4 938.209 47.8470   3
   1  -1  -4 922.659 47.6848   1
  -1   1   4 938.293 47.7471   1
  -1   1   4 834.209 47.7258   3
  -1   1   4 802.098 47.5350   2
  -1   1   4 924.227 47.6489   1
   0  -1  -4 20.1548 1.46936   1
   0  -1  -4 20.4239 1.71736   3
   0  -1  -4 19.8306 1.35104   2
   0  -1  -4 21.2237 1.47411   1
   0  -1  -4 18.0089 1.32703   6
   0   1   4 20.4663 1.42376   1
   0   1   4 21.0690 1.55713   1
   0   1   4 17.6596 1.18889   4
   0   1   4 18.5267 1.30779   2
   0   1   4 22.0596 1.61539   3
  -1  -1  -4 140.879 7.88330   3
  -1  -1  -4 134.563 7.56177   2
  -1  -1  -4 142.000 7.71314   1
  -1  -1  -4 140.902 7.71058   1
  -1  -1  -4 131.884 7.50875   6
   1   1   4 140.525 7.70315   3
   1   1   4 130.119 7.54006   4
   1   1   4 146.446 7.75281   1
   1   1   4 140.944 7.68163   1
   1   1   4 135.238 7.52454   2
  -2  -1  -4 10.6293 1.12476   1
  -2  -1  -4 7.91488 0.81640   6
  -2  -1  -4 9.90541 1.16039   1
  -2  -1  -4 7.57718 1.27457   3
  -2  -1  -4 9.85240 1.03225   2
   2   1   4 9.57796 1.12811   1
   2   1   4 8.90054 1.04813   4
   2   1   4 8.36161 1.18961   3
   2   1   4 9.41490 1.00404   2
   2   1   4 9.74848 1.12807   1
  -3  -1  -4 280.079 15.7036   1
  -3  -1  -4 279.551 16.0136   3
  -3  -1  -4 253.130 15.5637   2
  -3  -1  -4 290.758 15.7743   1
   3   1   4 286.073 15.7088   1
   3   1   4 302.633 15.7184   1
   3   1   4 304.718 15.5164   2
   3   1   4 295.046 15.7943   4
   3   1   4 303.045 15.7634   3
  -4  -1  -4 61.2864 4.09750   1
   4   1   4 70.1104 3.94612   2
   4   1   4 62.6394 4.13197   1
   4   1   4 69.1269 4.29079   4
   4   1   4 72.9174 4.24776   3
   5   1   4 30.1714 2.06876   2
   5   1   4 29.6707 2.40111   3
   5   1   4 30.2079 2.44214   4
   6   1   4 8.44350 1.02917   2
   6   1   4 7.36896 0.66091   9
   6   1   4 7.78621 1.36629   3
   6   1   4 7.73450 0.75715  11
   6   1   4 6.87250 0.63558  10
   6   1   4 7.76872 0.50548   8
   6   1   4 7.73533 1.43014   4
   7   1   4 359.454 19.2625   4
   7   1   4 352.797 17.9958  10
   7   1   4 340.067 18.0915  11
   7   1   4 320.430 18.1546  18
   7   1   4 349.614 17.9847   9
   7   1   4 355.789 18.4060   2
   7   1   4 320.202 18.0103  17
   7   1   4 339.459 18.8562   3
   7   1   4 323.099 17.9832  12
   7   1   4 332.315 17.8688   8
   8   1   4 20.2988 2.62542   4
   8   1   4 17.7371 1.27798  17
   8   1   4 16.4426 1.44315  18
   8   1   4 16.5407 1.20356  10
   8   1   4 19.2216 1.43405  11
   8   1   4 18.5574 1.17952   9
   8   1   4 17.6126 1.62532   2
   9   1   4 724.472 37.1001  10
   9   1   4 652.720 37.2715  18
   9   1   4 695.635 37.0313   9
   9   1   4 733.978 37.2649  11
  10   1   4 186.404 10.1865  10
  10   1   4 195.526 10.3497  11
  11   1   4 0.18905 0.21015  10
  11   1   4 0.50545 0.39279  11
  10  -2  -4 44.8524 2.63031  18
   9  -2  -4 2.99404 0.77264  18
   9  -2  -4 2.60165 0.25750  10
   9  -2  -4 3.19280 0.44130  17
   8  -2  -4 13.8469 0.90418  10
   8  -2  -4 15.6568 1.56266  18
   8  -2  -4 13.4448 1.02318  16
   8  -2  -4 13.7287 1.05895  17
   7  -2  -4 0.33637 0.25877  10
   7  -2  -4 0.60791 0.48384  16
   7  -2  -4 0.51191 0.50390  17
   7  -2  -4 0.50808 0.52791  18
   7  -2  -4 0.38482 0.98407   7
   6  -2  -4 50.2749 3.59955   7
   6  -2  -4 50.5947 2.90213  16
   6  -2  -4 54.2780 3.14482  18
   6  -2  -4 48.2908 2.95536   2
   6  -2  -4 51.8362 2.79571  10
   6  -2  -4 50.9871 2.75029   9
   6  -2  -4 47.2876 3.33395   3
   6  -2  -4 50.3770 2.96041  17
   5  -2  -4 34.9775 1.97944   9
   5  -2  -4 37.2515 2.22951   2
   5  -2  -4 34.7335 2.14497  17
   5  -2  -4 36.9871 2.25033  15
   5  -2  -4 37.1270 1.99658  10
   5  -2  -4 35.1389 2.25939  18
   5  -2  -4 34.9380 2.05996  16
   5  -2  -4 36.3490 2.78387   3
   5  -2  -4 35.2598 2.63812   7
   4  -2  -4 2322.85 121.025   2
   4  -2  -4 2306.82 121.329   7
   4  -2  -4 2253.56 121.474   3
   3  -2  -4 1008.26 53.4279   6
   3  -2  -4 1032.14 53.4697   3
   3  -2  -4 989.129 53.0391   2
   3  -2  -4 984.109 53.2649   7
   2  -2  -4 14.7727 1.46058   3
   2  -2  -4 12.4802 1.16581   1
   2  -2  -4 15.9833 1.10816   2
   2  -2  -4 15.6607 1.21743   1
   2  -2  -4 14.3827 1.23152   7
   2  -2  -4 14.8092 1.28104   6
  -2   2   4 14.2299 1.34251   1
  -2   2   4 15.1142 1.17984   1
   1  -2  -4 404.112 20.2556   2
   1  -2  -4 405.373 20.4582   6
   1  -2  -4 392.005 20.3677   1
   1  -2  -4 364.616 20.3870   1
   1  -2  -4 320.043 20.2332   2
   1  -2  -4 414.381 20.6066   3
   1  -2  -4 385.508 20.3260   7
   1  -2  -4 343.659 20.4075   3
  -1   2   4 404.683 20.3487   1
  -1   2   4 371.253 20.4568   1
   0  -2  -4 1026.32 50.9548   3
   0  -2  -4 998.201 50.7252   6
   0  -2  -4 1000.55 50.6060   2
   0  -2  -4 939.745 50.7537   1
   0  -2  -4 996.497 50.7313   1
   0  -2  -4 862.594 50.7416   3
   0   2   4 987.500 50.6849   1
   0   2   4 852.264 50.5600   2
   0   2   4 910.534 50.7740   3
   0   2   4 995.778 50.8295   1
  -1  -2  -4 35.7215 2.38763   1
  -1  -2  -4 38.2566 2.43046   1
  -1  -2  -4 38.1215 2.27308   2
  -1  -2  -4 37.8908 2.73768   3
  -1  -2  -4 35.3251 2.29486   6
   1   2   4 37.4041 2.39166   1
   1   2   4 33.8659 2.16121   4
   1   2   4 36.4139 2.48099   1
   1   2   4 34.6059 2.46341   3
   1   2   4 34.5217 2.19498   2
  -2  -2  -4 115.921 6.41858   1
  -2  -2  -4 101.172 6.31444   1
  -2  -2  -4 112.189 6.24817   2
  -2  -2  -4 118.396 6.70467   3
  -2  -2  -4 111.699 6.23538   6
   2   2   4 115.154 6.39762   3
   2   2   4 107.291 6.13850   2
   2   2   4 103.223 6.19917   4
   2   2   4 115.292 6.35009   1
   2   2   4 107.792 6.37583   1
  -3  -2  -4 262.635 14.3502   2
  -3  -2  -4 244.397 14.4112   1
  -3  -2  -4 274.273 14.5455   1
  -3  -2  -4 273.023 14.8378   3
   3   2   4 272.612 14.5460   3
   3   2   4 255.841 14.4139   4
   3   2   4 272.657 14.2612   2
   3   2   4 266.552 14.4869   1
   3   2   4 252.802 14.4465   1
  -4  -2  -4 14.7132 1.59680   1
  -4  -2  -4 12.4251 1.40874   1
   4   2   4 15.5415 1.46154   1
   4   2   4 15.9543 1.62840   1
   4   2   4 16.0095 1.34085   2
   4   2   4 15.6645 1.60934   4
   4   2   4 15.5772 1.78242   3
   5   2   4 17.7585 1.91660   3
   5   2   4 19.5312 1.55252   2
   5   2   4 18.0350 1.94704   4
   6   2   4 10.2196 0.70394   8
   6   2   4 12.7837 1.84971   4
   6   2   4 13.1343 1.75608   3
   6   2   4 11.4099 1.36356   2
   7   2   4 264.423 14.5847   2
   7   2   4 256.984 14.0888   9
   7   2   4 268.730 13.9946   8
   7   2   4 285.983 15.4640   4
   7   2   4 246.706 14.0838  10
   7   2   4 268.887 15.0950   3
   8   2   4 22.7111 2.79367   4
   8   2   4 23.0491 1.47868   9
   8   2   4 23.8311 1.61125  11
   8   2   4 22.9210 1.47809  10
   8   2   4 19.9576 2.00925   2
   8   2   4 23.4123 1.27833   8
   8   2   4 19.4264 2.62991   3
   9   2   4 15.9297 1.20441  10
   9   2   4 16.2143 1.39624  11
   9   2   4 16.8326 1.15393   9
  10   2   4 25.5503 1.49875   9
  10   2   4 25.9093 1.61904  10
  10   2   4 25.5299 1.81845  11
  11   2   4 84.9778 4.52373  11
  11   2   4 76.1249 4.34333  10
   9  -3  -4 22.9939 1.49450  17
   9  -3  -4 27.1120 1.68665  18
   8  -3  -4 16.6508 1.23885  17
   8  -3  -4 18.6119 1.45731  18
   8  -3  -4 18.1551 1.20989  16
   7  -3  -4 145.485 8.03773  16
   7  -3  -4 151.501 8.13818  17
   7  -3  -4 142.660 7.91989  10
   7  -3  -4 156.664 8.39072  18
   6  -3  -4 88.4821 4.71735  10
   6  -3  -4 90.5905 4.93396  17
   6  -3  -4 85.5409 4.85293  16
   6  -3  -4 92.1956 5.15801  18
   6  -3  -4 79.1067 5.48559   7
   5  -3  -4 45.6147 2.57912  17
   5  -3  -4 44.2915 3.08733   7
   5  -3  -4 41.6033 2.76926  18
   5  -3  -4 44.2725 2.51071  16
   5  -3  -4 42.9772 2.40807  10
   5  -3  -4 44.9428 2.76049  15
   4  -3  -4 98.0880 5.39052  17
   4  -3  -4 107.966 5.87490   7
   4  -3  -4 101.651 5.34595   2
   4  -3  -4 91.7780 5.47439  18
   4  -3  -4 97.1055 5.33482  16
   4  -3  -4 98.5190 5.24119  10
   4  -3  -4 100.345 5.68097   3
   4  -3  -4 102.280 5.49031  15
   4  -3  -4 97.3870 5.54392  14
   4  -3  -4 90.9130 5.21131   9
   3  -3  -4 192.728 10.4848   6
   3  -3  -4 186.942 9.93050   2
   3  -3  -4 169.208 10.2863   3
   3  -3  -4 192.096 10.2895   7
   2  -3  -4 133.576 6.94162   2
   2  -3  -4 120.702 7.33126   3
   2  -3  -4 118.756 7.15168   3
   2  -3  -4 136.087 7.19720   7
   2  -3  -4 131.026 7.33073   6
   1  -3  -4 132.108 6.82867   6
   1  -3  -4 130.325 6.51996   2
   1  -3  -4 98.6157 6.66874   1
   1  -3  -4 121.128 6.61769   1
   1  -3  -4 114.535 6.92744   3
   1  -3  -4 120.881 6.70476   3
   1  -3  -4 132.952 6.64961   7
  -1   3   4 98.3834 6.71797   1
  -1   3   4 124.608 6.60092   1
   0  -3  -4 168.040 10.5387   3
   0  -3  -4 199.606 10.5509   1
   0  -3  -4 178.371 10.6030   1
   0  -3  -4 192.233 10.8841   3
   0  -3  -4 213.398 10.4362   2
   0  -3  -4 206.638 10.6522   6
   0   3   4 182.911 10.6783   1
   0   3   4 203.949 10.5148   1
  -1  -3  -4 107.035 5.71581   6
  -1  -3  -4 107.452 5.71800   1
  -1  -3  -4 103.506 6.01862   3
  -1  -3  -4 88.5552 5.65146   1
  -1  -3  -4 110.246 5.56293   2
  -1  -3  -4 86.2598 5.67237   3
   1   3   4 96.7807 5.73965   1
   1   3   4 107.990 5.67733   1
   1   3   4 88.2409 5.45798   2
   1   3   4 91.5340 5.72045   3
  -2  -3  -4 11.6995 1.26266   6
  -2  -3  -4 11.4384 1.19660   1
  -2  -3  -4 11.2650 1.20806   2
  -2  -3  -4 12.2728 1.73962   3
  -2  -3  -4 11.1811 1.30684   1
   2   3   4 10.1490 1.05923   2
   2   3   4 12.5525 1.40303   3
   2   3   4 10.3569 1.31260   1
   2   3   4 12.3389 1.31933   1
  -3  -3  -4 66.4207 4.39821   3
  -3  -3  -4 64.8618 3.72784   2
  -3  -3  -4 55.3778 3.72284   1
  -3  -3  -4 59.4503 3.86614   1
   3   3   4 57.3983 3.88655   3
   3   3   4 54.8161 3.78005   1
   3   3   4 61.1240 3.58904   2
   3   3   4 59.1466 3.84888   1
  -4  -3  -4 1200.38 62.6446   2
  -4  -3  -4 1206.94 62.8890   1
  -4  -3  -4 994.929 62.6693   1
  -4  -3  -4 1209.62 63.2117   3
   4   3   4 1107.24 62.7290   1
   4   3   4 1253.41 62.8873   3
   4   3   4 1258.31 62.5286   2
   4   3   4 1201.90 62.8309   1
   5   3   4 380.820 20.3521   3
   5   3   4 383.292 19.8645   2
   5   3   4 336.667 20.1688   1
   6   3   4 3.94148 1.20271   4
   6   3   4 3.18818 1.21856   3
   6   3   4 6.03201 1.01711   2
   7   3   4 26.6397 1.80229   9
   7   3   4 31.6526 2.88807   4
   7   3   4 29.4016 1.67008   8
   7   3   4 32.8937 3.05410   3
   7   3   4 31.2628 2.42877   2
   8   3   4 41.9581 4.00733   3
   8   3   4 49.5737 2.75627   9
   8   3   4 48.5558 2.61718   8
   8   3   4 46.3656 2.74625  10
   8   3   4 51.1132 4.08026   4
   8   3   4 43.7308 3.37441   2
   9   3   4 103.405 5.53232  10
   9   3   4 97.7344 5.51097   9
   9   3   4 99.0327 5.35015   8
   9   3   4 102.163 5.62555  11
  10   3   4 42.1017 2.36599   9
  10   3   4 39.8387 2.47157  11
  10   3   4 40.1266 2.40463  10
  11   3   4 2.47253 0.48620  10
  11   3   4 3.67445 0.53611  11
  12   3   4 58.5152 2.95041  10
  12   3   4 49.8685 3.02667  11
   9  -4  -4 42.9839 2.40391  17
   8  -4  -4 9.84508 0.80345  17
   8  -4  -4 9.10885 0.92731  18
   7  -4  -4 8.30252 1.15725  18
   7  -4  -4 5.96231 0.79728  17
   7  -4  -4 6.20171 0.73581  16
   6  -4  -4 53.6446 3.28681  18
   6  -4  -4 53.8230 3.10595  17
   6  -4  -4 52.5074 3.16610  15
   6  -4  -4 48.2672 2.77721  10
   6  -4  -4 52.7735 2.97459  16
   5  -4  -4 206.367 12.0746   7
   5  -4  -4 201.333 11.2314  10
   5  -4  -4 218.318 11.5525  15
   5  -4  -4 212.414 11.3799  16
   5  -4  -4 221.406 11.4519  17
   5  -4  -4 213.354 11.6253  18
   4  -4  -4 9.95630 0.77641  16
   4  -4  -4 9.02960 0.63301  10
   4  -4  -4 9.86218 1.07559  18
   4  -4  -4 10.7778 1.22192  14
   4  -4  -4 11.7173 1.13903  15
   4  -4  -4 10.9343 0.93112  17
   4  -4  -4 10.4972 1.35294   7
   3  -4  -4 49.8271 2.89962  15
   3  -4  -4 49.8572 3.46439   6
   3  -4  -4 48.0480 2.80797  17
   3  -4  -4 50.2085 2.76952  16
   3  -4  -4 49.6254 2.92881  14
   3  -4  -4 46.4683 2.64290  10
   3  -4  -4 51.2256 3.21678   7
   2  -4  -4 287.938 15.4243   7
   2  -4  -4 298.530 15.0650   2
   2  -4  -4 289.609 15.6664   6
   2  -4  -4 293.730 15.3140   3
   2  -4  -4 261.126 15.0749   2
   2  -4  -4 273.683 15.2210   3
   1  -4  -4 102.062 5.93021   3
   1  -4  -4 105.982 5.96098   7
   1  -4  -4 92.8499 5.77163   2
   1  -4  -4 114.000 6.19211   3
   1  -4  -4 110.129 6.22785   6
   1  -4  -4 111.793 5.76572   2
   0  -4  -4 257.143 13.5986   7
   0  -4  -4 269.211 13.9197   6
   0  -4  -4 272.082 14.0320   3
   0  -4  -4 221.906 13.5500   2
   0  -4  -4 259.079 13.5499   2
   0  -4  -4 238.869 13.7346   1
  -1  -4  -4 92.3638 5.16923   6
  -1  -4  -4 88.2161 5.35503   3
  -1  -4  -4 82.9133 4.74506   7
  -1  -4  -4 76.6332 4.96988   1
  -1  -4  -4 87.6009 5.06014   1
  -1  -4  -4 95.9115 4.91770   2
   1   4   4 87.0230 5.01631   1
   1   4   4 76.5102 5.01548   1
  -2  -4  -4 187.072 11.7762   1
  -2  -4  -4 230.620 11.9483   6
  -2  -4  -4 220.192 11.9495   1
  -2  -4  -4 216.017 12.2032   3
  -2  -4  -4 240.622 11.7936   2
   2   4   4 215.907 11.9054   1
   2   4   4 189.828 11.8296   1
  -3  -4  -4 53.8440 4.03933   1
  -3  -4  -4 66.7351 4.27919   1
  -3  -4  -4 73.2961 4.65983   3
  -3  -4  -4 76.0990 4.14718   2
  -3  -4  -4 74.4480 4.31081   6
   3   4   4 55.3126 4.09576   1
  -4  -4  -4 97.2657 6.15454   1
  -4  -4  -4 111.565 6.62508   3
  -4  -4  -4 105.208 5.96755   2
   4   4   4 88.2720 5.99098   1
   6   4   4 185.134 10.5862   2
   6   4   4 188.808 11.1592   3
   7   4   4 130.354 7.51831   2
   7   4   4 120.210 6.77181   8
   7   4   4 135.519 8.19118   4
   7   4   4 123.410 8.12221   3
   8   4   4 24.0496 1.35440   8
   8   4   4 21.2069 2.61381   4
   8   4   4 21.0485 2.31163   2
   8   4   4 22.3313 1.53333   9
   8   4   4 20.2242 2.88479   3
   9   4   4 38.1871 2.22050   8
   9   4   4 42.4383 2.42746   9
  10   4   4 69.8883 3.83217   8
  10   4   4 76.0190 4.03122   9
  10   4   4 66.7761 4.00451  10
  10   4   4 75.6096 4.09801  11
  11   4   4 44.6295 2.50473   9
  11   4   4 44.9903 2.61820  11
  11   4   4 43.9746 2.52999  10
  12   4   4 13.4794 1.00487  11
  12   4   4 15.9502 0.91562  10
   8  -5  -4 138.036 7.50355  17
   8  -5  -4 140.657 7.59302  18
   7  -5  -4 29.2359 1.82856  16
   7  -5  -4 30.9445 1.95170  17
   7  -5  -4 31.8009 2.07644  18
   6  -5  -4 78.2270 4.05296  17
   6  -5  -4 68.6088 4.13426  15
   6  -5  -4 64.7501 4.09674  18
   6  -5  -4 69.0774 3.94347  16
   5  -5  -4 0.77624 0.56137  17
   5  -5  -4 1.34434 0.75660  15
   5  -5  -4 2.87869 1.14601   7
   5  -5  -4 1.34961 0.40077  16
   5  -5  -4 1.52940 0.51271  18
   4  -5  -4 13.9173 1.29969  18
   4  -5  -4 13.3994 1.16975  15
   4  -5  -4 15.4532 1.48099  14
   4  -5  -4 15.3918 1.10512  16
   4  -5  -4 15.4157 1.18181  17
   4  -5  -4 13.2766 1.52113   7
   4  -5  -4 13.3916 0.77956  10
   3  -5  -4 103.767 6.19915   7
   3  -5  -4 100.247 5.56299  10
   3  -5  -4 98.8297 5.77336  13
   3  -5  -4 109.748 5.77443  17
   3  -5  -4 106.133 5.70397  16
   3  -5  -4 108.747 5.93143  14
   3  -5  -4 108.895 5.85855  15
   3  -5  -4 102.810 6.43606   6
   2  -5  -4 8.78131 1.04670   7
   2  -5  -4 8.38770 1.29163   6
   2  -5  -4 9.15186 1.04780  14
   2  -5  -4 8.35851 0.75783  17
   2  -5  -4 8.66014 0.85934  13
   2  -5  -4 8.36914 0.74483  16
   2  -5  -4 9.15517 0.92444  15
   2  -5  -4 8.89755 0.54244  10
   1  -5  -4 745.861 40.0661   2
   1  -5  -4 719.625 40.3502   7
   1  -5  -4 786.651 40.7531   6
   1  -5  -4 788.383 40.2258   3
   1  -5  -4 767.190 40.0678   2
   1  -5  -4 750.036 40.1783   3
   0  -5  -4 60.7626 3.20189   2
   0  -5  -4 46.8352 3.22329   7
   0  -5  -4 59.6175 3.55589   3
   0  -5  -4 58.0683 3.71998   6
  -1  -5  -4 8.23819 0.93795   2
  -1  -5  -4 8.27010 1.28605   3
  -1  -5  -4 8.95249 1.23806   6
  -2  -5  -4 21.7164 1.97033   6
  -2  -5  -4 21.5693 1.80036   2
  -2  -5  -4 21.7069 2.14266   3
  -3  -5  -4 1174.28 63.2318   3
  -3  -5  -4 1177.39 62.9909   6
  -3  -5  -4 1189.77 62.7503   2
  -4  -5  -4 131.711 7.54597   2
  -4  -5  -4 127.595 8.17604   3
  -4  -5  -4 128.005 7.75975   6
  -5  -5  -4 171.524 10.4355   3
  -5  -5  -4 165.867 9.73129   2
   7   5   4 41.4385 2.34330   8
   8   5   4 0.31264 0.32439   8
   8   5   4 0.92448 1.34406   4
   9   5   4 10.4221 0.78790   8
   9   5   4 10.1624 1.08503   9
  10   5   4 15.2132 0.90581   8
  10   5   4 13.8574 1.08064   9
  11   5   4 5.03361 0.65949  11
  11   5   4 4.79422 0.50462   9
  12   5   4 4.66588 0.54247  11
   6  -6  -4 185.014 10.9159  18
   6  -6  -4 206.172 10.8351  17
   6  -6  -4 211.242 10.7755  16
   5  -6  -4 -0.1869 0.70959  15
   5  -6  -4 0.23724 0.36890  16
   5  -6  -4 0.02495 0.39223  17
   4  -6  -4 64.9570 3.88046  14
   4  -6  -4 62.6815 3.68107  17
   4  -6  -4 63.8034 3.61260  16
   4  -6  -4 63.9026 3.74655  15
   3  -6  -4 1.65470 0.48795  15
   3  -6  -4 0.54013 0.44954  17
   3  -6  -4 0.83145 0.83709   6
   3  -6  -4 0.63221 0.69997  14
   3  -6  -4 0.74256 0.56137  13
   3  -6  -4 0.96602 0.32222  16
   2  -6  -4 0.43793 0.35023  16
   2  -6  -4 0.90306 0.36888  13
   2  -6  -4 0.40140 0.11697  10
   2  -6  -4 0.91211 0.68409   6
   2  -6  -4 0.54476 0.35810  17
   2  -6  -4 0.66777 0.47866  15
   2  -6  -4 0.39487 0.61068  14
   1  -6  -4 98.4844 6.05108  17
   1  -6  -4 118.610 6.15442  13
   1  -6  -4 114.417 6.16905  15
   1  -6  -4 105.545 6.04852  12
   1  -6  -4 117.011 6.84162   6
   1  -6  -4 112.838 6.05795  16
   1  -6  -4 118.308 6.27226  14
   0  -6  -4 29.9614 1.74100  16
   0  -6  -4 29.8255 1.85233  15
   0  -6  -4 28.6638 1.64078  10
   0  -6  -4 29.8342 1.88936  14
   0  -6  -4 25.8678 1.82832   3
   0  -6  -4 30.2345 1.92089   3
   0  -6  -4 31.5944 1.69906   2
   0  -6  -4 28.4727 1.57752   9
   0  -6  -4 26.6234 1.67462   2
   0  -6  -4 30.1008 2.44348   6
   0  -6  -4 30.2028 1.81918  13
  -1  -6  -4 334.795 16.7954  10
  -1  -6  -4 315.330 16.9538   2
  -1  -6  -4 298.471 16.8815  15
  -1  -6  -4 317.977 17.5313   6
  -1  -6  -4 314.127 17.3066   3
  -2  -6  -4 31.6431 2.18633   2
  -2  -6  -4 30.7479 2.52238   6
  -2  -6  -4 31.9303 2.73477   3
  -3  -6  -4 1.47294 1.02173   3
  -3  -6  -4 1.48558 0.72247   2
  -3  -6  -4 2.61629 1.00247   6
  -4  -6  -4 388.672 20.5275   2
  -4  -6  -4 344.030 19.7991   8
  -4  -6  -4 365.633 21.0506   3
  -4  -6  -4 403.845 20.9299   6
  -5  -6  -4 132.096 7.04918   8
  -5  -6  -4 129.601 8.52978   3
  -5  -6  -4 143.069 8.31813   6
  -5  -6  -4 139.145 7.88250   2
  -5  -6  -4 117.317 7.15226   9
  -6  -6  -4 50.1660 4.13078   6
  -6  -6  -4 49.9533 2.82173   8
  -7  -6  -4 20.4022 1.41513   8
   8   6   4 716.186 37.8366   8
   9   6   4 16.5823 1.10963   8
  10   6   4 13.4026 0.90631   8
  10   6   4 13.9545 1.20084   9
  11   6   4 16.5736 1.08486   9
  11   6   4 15.2262 1.10845  11
  11   6   4 15.7996 0.88895   8
  12   6   4 9.19885 0.72970  11
  12   6   4 9.93342 0.68849   9
   6  -7  -4 5.41232 0.56273  17
   6  -7  -4 5.68274 0.60437  16
   5  -7  -4 301.752 15.9258  16
   5  -7  -4 298.669 16.0295  15
   5  -7  -4 296.207 15.9607  17
   4  -7  -4 11.6029 1.05347  17
   4  -7  -4 11.4661 1.33745  14
   4  -7  -4 11.4665 0.92497  16
   4  -7  -4 11.5957 1.12249  15
   3  -7  -4 0.04429 0.62886  15
   3  -7  -4 0.94983 0.47249  17
   3  -7  -4 0.62945 0.34459  16
   3  -7  -4 0.83832 0.79900  14
   2  -7  -4 62.2514 3.29952  16
   2  -7  -4 62.2735 3.42238  15
   2  -7  -4 59.2633 3.56217  14
   2  -7  -4 57.6312 3.36408  13
   2  -7  -4 49.7692 3.27112  17
   2  -7  -4 54.8107 4.17534   6
   1  -7  -4 46.5428 2.58798  13
   1  -7  -4 41.6597 2.44820  16
   1  -7  -4 41.1391 2.53194  15
   1  -7  -4 43.5863 2.65269  14
   1  -7  -4 40.6212 2.25115  10
   1  -7  -4 35.7600 3.21614   6
   0  -7  -4 160.429 8.62181  13
   0  -7  -4 157.105 9.35521   6
   0  -7  -4 153.754 8.43500  10
   0  -7  -4 162.073 8.73138  14
   0  -7  -4 157.372 8.53712  16
   0  -7  -4 160.807 8.66219  15
  -1  -7  -4 159.892 8.45787   2
  -1  -7  -4 156.966 8.42086  16
  -1  -7  -4 154.530 8.68737   3
  -1  -7  -4 155.830 8.57683  14
  -1  -7  -4 148.217 8.29120   9
  -1  -7  -4 162.018 8.54784  15
  -1  -7  -4 157.703 9.27668   6
  -1  -7  -4 157.966 8.48455  13
  -1  -7  -4 155.559 8.37690  10
  -2  -7  -4 66.6966 4.28200   3
  -2  -7  -4 64.5651 3.72551  14
  -2  -7  -4 64.2518 3.54592  10
  -2  -7  -4 58.9460 3.53897  16
  -2  -7  -4 63.7911 3.65643  15
  -2  -7  -4 60.6398 3.48515   9
  -2  -7  -4 67.7577 4.46612   6
  -2  -7  -4 65.8435 3.60882  13
  -2  -7  -4 64.1507 3.84818   2
  -3  -7  -4 56.4846 4.24605   3
  -3  -7  -4 59.7482 3.37176  15
  -3  -7  -4 51.7055 3.31671  14
  -3  -7  -4 60.5898 4.29134   6
  -3  -7  -4 56.2322 3.21154  10
  -3  -7  -4 57.6001 3.04792   8
  -3  -7  -4 54.7604 3.22364  13
  -3  -7  -4 57.6393 3.21102   9
  -3  -7  -4 60.1172 3.76535   2
  -4  -7  -4 168.576 9.55612  10
  -4  -7  -4 188.078 10.3223   2
  -4  -7  -4 173.664 10.7809   3
  -4  -7  -4 189.937 10.7527   6
  -4  -7  -4 173.275 9.59175   9
  -5  -7  -4 -0.1131 1.23311   2
  -5  -7  -4 -0.0046 1.63995   3
  -5  -7  -4 1.38477 0.47562  10
  -5  -7  -4 -0.6488 1.13627   6
  -5  -7  -4 0.98848 0.34495   8
  -5  -7  -4 1.98426 0.43896   9
  -6  -7  -4 32.0696 1.85007   8
  -6  -7  -4 23.5544 2.83612   2
  -6  -7  -4 30.7745 2.03434   9
  -6  -7  -4 33.7387 3.12135   6
  -6  -7  -4 26.4213 3.60667   3
  -7  -7  -4 10.0539 2.18890   6
  -7  -7  -4 11.1211 0.88440   8
  -8  -7  -4 7.32230 0.74805   8
  -9  -7  -4 280.324 14.6842   8
   9   7   4 269.625 14.6028   8
 -10  -7  -4 6.58658 0.58113   8
  10   7   4 4.06578 0.47481   8
  11   7   4 14.7327 1.02784   9
  11   7   4 14.2035 0.87196   8
  11   7   4 15.6813 1.14178  11
   5  -8  -4 29.2882 1.88053  17
   5  -8  -4 36.7091 1.91542  16
   4  -8  -4 19.7863 1.53954  15
   4  -8  -4 21.7224 1.36933  16
   4  -8  -4 18.2231 1.24374  17
   3  -8  -4 52.5515 3.22154  14
   3  -8  -4 51.5703 3.00208  16
   3  -8  -4 55.0962 3.23246  15
   2  -8  -4 36.4214 2.37741  14
   2  -8  -4 36.7728 2.34678  13
   2  -8  -4 35.3836 2.11649  16
   2  -8  -4 34.9726 2.27506  15
   1  -8  -4 19.1235 1.60248  15
   1  -8  -4 18.8337 2.43716   6
   1  -8  -4 22.8396 1.62558  13
   1  -8  -4 19.7921 1.32922  16
   1  -8  -4 22.8421 1.79081  14
   0  -8  -4 193.157 10.7023  16
   0  -8  -4 208.630 10.9600  14
   0  -8  -4 205.701 10.8282  13
   0  -8  -4 204.107 10.8389  15
   0  -8  -4 183.090 11.5904   6
  -1  -8  -4 11.6093 0.92158  16
  -1  -8  -4 12.3134 1.17137  15
  -1  -8  -4 11.5302 0.84229  10
  -1  -8  -4 11.4114 0.98338  13
  -1  -8  -4 11.4071 1.80093   6
  -1  -8  -4 11.7694 1.29891  14
  -2  -8  -4 30.1459 2.91106   6
  -2  -8  -4 29.6410 1.68020   9
  -2  -8  -4 29.6271 2.08352  14
  -2  -8  -4 30.4687 1.80304  10
  -2  -8  -4 29.7166 1.92012  13
  -2  -8  -4 27.9039 1.79077  16
  -2  -8  -4 30.6814 2.02559  15
  -2  -8  -4 29.5893 1.94104   2
  -2  -8  -4 29.5946 2.23524   3
  -3  -8  -4 545.324 29.8368   6
  -3  -8  -4 570.997 28.8147  15
  -3  -8  -4 542.307 28.7971  14
  -3  -8  -4 518.261 29.3701   3
  -3  -8  -4 542.494 28.6760  13
  -3  -8  -4 560.011 28.6500  10
  -3  -8  -4 486.238 28.6046  16
  -3  -8  -4 559.119 28.6023   9
  -3  -8  -4 537.058 29.0266   2
  -4  -8  -4 198.741 10.6700  10
  -4  -8  -4 210.508 10.8385  15
  -4  -8  -4 198.946 10.4706   8
  -4  -8  -4 183.128 10.7376  14
  -4  -8  -4 203.294 10.6685   9
  -4  -8  -4 191.329 11.6968   3
  -4  -8  -4 200.289 11.9598   6
  -4  -8  -4 198.314 11.3061   2
  -5  -8  -4 20.5865 1.47839  15
  -5  -8  -4 20.1059 1.44622   9
  -5  -8  -4 19.9184 1.42429  10
  -5  -8  -4 15.1688 2.46292   3
  -5  -8  -4 13.8527 2.01762   2
  -5  -8  -4 18.4960 2.40964   6
  -6  -8  -4 33.8355 3.48411   2
  -6  -8  -4 44.0301 2.38340   8
  -6  -8  -4 41.1096 4.03062   6
  -6  -8  -4 41.5607 2.60069   9
  -7  -8  -4 32.7561 1.91381   8
  -7  -8  -4 29.6778 2.14516   9
  -8  -8  -4 129.406 7.01621   8
  -9  -8  -4 40.8237 2.41483   8
 -10  -8  -4 1.10942 0.46788   8
  10   8   4 0.97969 0.35207   8
  11   8   4 50.0090 2.81528  11
   4  -9  -4 11.9677 0.91954  15
   3  -9  -4 205.831 9.78093  16
   3  -9  -4 169.073 9.89746  14
   3  -9  -4 171.749 9.87216  15
   2  -9  -4 6.71234 0.63972  16
   2  -9  -4 5.25499 0.84833  15
   2  -9  -4 7.23554 0.91816  14
   1  -9  -4 62.4035 3.62481  15
   1  -9  -4 61.6931 3.60199  13
   1  -9  -4 62.2425 3.78107  14
   1  -9  -4 60.6445 3.46793  16
   0  -9  -4 11.2330 1.40767  14
   0  -9  -4 10.5862 0.92547  16
   0  -9  -4 11.9648 1.22715  13
   0  -9  -4 11.7799 1.23049  15
  -1  -9  -4 43.1827 2.41770  10
  -1  -9  -4 46.2264 2.78914  15
  -1  -9  -4 40.2184 2.53746  16
  -1  -9  -4 44.1057 2.79266  14
  -1  -9  -4 47.7672 2.74461  13
  -2  -9  -4 86.9059 4.83283  10
  -2  -9  -4 89.9370 5.15469  14
  -2  -9  -4 75.2278 5.91004   6
  -2  -9  -4 92.6935 5.11364  15
  -2  -9  -4 94.0773 5.01310  13
  -3  -9  -4 57.0305 3.23518   9
  -3  -9  -4 61.2808 3.62009  14
  -3  -9  -4 59.8498 3.46380  13
  -3  -9  -4 62.8894 3.56714  15
  -3  -9  -4 61.5534 3.39266  10
  -3  -9  -4 52.1207 4.38420   6
  -4  -9  -4 176.489 9.58913   9
  -4  -9  -4 189.212 9.85491  15
  -4  -9  -4 176.609 9.79052  14
  -4  -9  -4 180.311 9.66320  10
  -4  -9  -4 168.095 10.9370   6
  -5  -9  -4 0.45349 0.44100  15
  -5  -9  -4 0.52633 0.50612   9
  -5  -9  -4 0.38973 0.52689  10
  -5  -9  -4 0.78280 1.18374   6
  -6  -9  -4 58.5765 3.23196   8
  -6  -9  -4 58.7041 3.49446  10
  -6  -9  -4 63.9646 3.69587  15
  -6  -9  -4 58.6914 3.50771   9
  -7  -9  -4 268.384 14.0801   9
  -7  -9  -4 254.524 14.1881  15
  -8  -9  -4 127.454 7.02099   9
  -9  -9  -4 30.2369 1.94176   9
  10   9   4 34.7773 1.94911   8
   3 -10  -4 0.55933 0.37282  15
   2 -10  -4 153.520 7.78388  15
   2 -10  -4 131.787 7.79836  14
   1 -10  -4 92.4257 5.16173  15
   1 -10  -4 90.3618 5.21869  14
   0 -10  -4 22.6930 1.61137  15
   0 -10  -4 23.4418 1.69383  14
  -1 -10  -4 231.935 12.4025  15
  -1 -10  -4 229.232 12.3580  13
  -1 -10  -4 226.016 12.4877  14
  -2 -10  -4 141.047 7.82781  10
  -2 -10  -4 157.076 8.15062  15
  -2 -10  -4 144.076 8.03583  13
  -2 -10  -4 146.787 8.18682  14
  -3 -10  -4 10.3215 1.06004  15
  -3 -10  -4 10.6710 0.85655  10
  -3 -10  -4 10.7459 1.24269  14
  -4 -10  -4 84.0016 4.62727   9
  -4 -10  -4 93.9308 5.06987  15
  -4 -10  -4 89.3849 4.83485  10
  -4 -10  -4 82.1892 4.98257  14
  -5 -10  -4 25.0396 1.73499  15
  -5 -10  -4 22.7200 1.54570  10
  -5 -10  -4 23.2713 1.52179   9
  -6 -10  -4 45.5848 2.93433  15
  -6 -10  -4 47.8202 2.86404  10
  -6 -10  -4 49.5907 2.79713   9
  -7 -10  -4 43.2393 2.63667   9
  -7 -10  -4 42.6474 2.65775  10
  -7 -10  -4 45.5918 2.83378  15
  -8 -10  -4 9.61837 1.03845   9
  -8 -10  -4 7.97853 1.13210  15
  -9 -10  -4 278.307 14.9574  15
 -10 -10  -4 1.90465 0.38455  15
   1 -11  -4 10.1104 0.75886  15
   1 -11  -4 7.11297 0.79653  14
   0 -11  -4 0.49967 0.46884  14
   0 -11  -4 -0.0101 0.38712  15
  -1 -11  -4 1.71147 0.47437  15
  -1 -11  -4 1.69387 0.54998  14
  -2 -11  -4 26.9347 1.84836  15
  -2 -11  -4 26.5265 1.89449  14
  -3 -11  -4 252.828 13.6503  10
  -3 -11  -4 244.124 13.9071  14
  -3 -11  -4 278.296 13.9287  15
  -4 -11  -4 31.9525 1.88326  15
  -4 -11  -4 27.4915 1.63116  10
  -4 -11  -4 23.7758 1.76019  14
  -5 -11  -4 39.1658 2.35432  10
  -5 -11  -4 41.3811 2.58384  15
  -6 -11  -4 292.684 15.4111  15
  -6 -11  -4 279.338 15.2413  10
  -7 -11  -4 21.1614 1.49370  10
  -7 -11  -4 26.7635 1.65815  15
  -8 -11  -4 0.68931 0.39556  15
  -8 -11  -4 0.07948 0.45483  10
  -9 -11  -4 35.7370 2.12088  15
  -2 -12  -4 20.2007 1.28988  15
  -3 -12  -4 19.0470 1.19181  15
  -3 -12  -4 14.9817 1.15745  14
  -4 -12  -4 50.0416 2.87954  14
  -5 -12  -4 -0.0051 0.29784  15
  -5 -12  -4 0.04700 0.21369  10
  -6 -12  -4 1.65408 0.38381  15
  -7 -12  -4 4.02812 0.55940  15
  -7 -10   5 2.77622 0.50100  14
  -7 -10   5 2.34376 0.48826  10
  -6 -10   5 73.1055 3.99216  10
  -6 -10   5 71.3075 4.12807  14
  -5 -10   5 37.0291 2.00508  10
  -5 -10   5 30.3688 2.16093  14
  -4 -10   5 46.3750 2.83867  14
  -4 -10   5 47.2382 2.60687  10
  -3 -10   5 53.3286 3.03975  13
  -3 -10   5 51.2749 3.16627  14
  -3 -10   5 56.1881 2.93078  10
  -2 -10   5 18.9960 1.38997  14
  -1 -10   5 4.51440 0.62981  14
  -1 -10   5 4.93622 0.59635  13
   0 -10   5 26.9886 1.65369  13
   1 -10   5 61.0750 3.39079  13
  -8  -9   5 221.233 12.4214  14
  -8  -9   5 240.936 12.3749   9
  -7  -9   5 57.8370 3.36108  14
  -7  -9   5 57.5609 3.21531   9
  -7  -9   5 53.5519 3.16643  10
  -6  -9   5 3.09294 0.56586  10
  -6  -9   5 4.64531 0.64138   9
  -6  -9   5 4.23058 0.69987  14
  -5  -9   5 89.4145 5.02682  10
  -5  -9   5 93.3308 5.34071  14
  -5  -9   5 92.2495 5.03217   9
  -4  -9   5 2.95819 0.82159  14
  -4  -9   5 2.80978 0.37591   9
  -4  -9   5 2.93535 0.50241  10
  -3  -9   5 -0.1055 0.34640  10
  -3  -9   5 0.30699 0.68974  14
  -3  -9   5 0.07304 0.30765  13
  -2  -9   5 7.43556 0.99859  14
  -2  -9   5 7.59278 0.81795  12
  -2  -9   5 7.46442 0.95942  13
  -2  -9   5 6.56340 0.62004  10
  -1  -9   5 2.99407 0.46280  12
  -1  -9   5 4.46179 0.81209  14
  -1  -9   5 3.07357 0.31082  10
  -1  -9   5 3.08656 0.54037  13
   0  -9   5 7.07019 0.74546  12
   0  -9   5 6.45274 0.76138  13
   0  -9   5 6.75059 0.95327  14
   1  -9   5 2.26195 0.54766  14
   1  -9   5 3.97120 0.51853  13
   1  -9   5 2.81320 0.59149  12
   2  -9   5 51.9714 2.98507  13
   2  -9   5 51.5719 2.94003  12
   3  -9   5 75.9581 4.14242  13
   9   8  -5 60.0806 3.34589   8
  -9  -8   5 63.9585 3.34518   8
  -9  -8   5 61.1436 3.49294   9
  -8  -8   5 53.8283 3.13679   9
  -8  -8   5 54.2894 3.21308  14
  -8  -8   5 53.0677 2.96166   8
  -7  -8   5 55.1832 3.16435   8
  -7  -8   5 58.6319 3.35255   9
  -7  -8   5 58.4767 3.49227  14
  -6  -8   5 39.0958 2.37191  10
  -6  -8   5 40.1381 2.23873   8
  -6  -8   5 39.7945 2.65384  14
  -6  -8   5 43.1476 2.56670   9
  -5  -8   5 73.8895 4.16889   9
  -5  -8   5 68.3682 4.04000  10
  -5  -8   5 75.8711 4.42146  14
  -4  -8   5 153.284 8.29245  14
  -4  -8   5 143.077 7.99795  10
  -4  -8   5 146.864 8.03350   9
  -3  -8   5 92.4253 4.85828  10
  -3  -8   5 86.7221 5.12524  14
  -3  -8   5 85.7688 4.94438  13
  -3  -8   5 86.0986 4.81077   9
  -2  -8   5 38.4090 2.44270  12
  -2  -8   5 42.1833 2.40220  10
  -2  -8   5 40.9526 2.53360  13
  -2  -8   5 44.8708 2.80749  14
  -1  -8   5 71.4683 4.33841  14
  -1  -8   5 76.6287 4.29550  13
  -1  -8   5 72.2566 4.18430  12
  -1  -8   5 75.2884 4.04813  10
   0  -8   5 148.502 8.21331  14
   0  -8   5 152.319 8.12293  12
   0  -8   5 143.360 7.88162  10
   0  -8   5 150.449 8.17455  13
   1  -8   5 2.03139 0.46921  12
   1  -8   5 1.29603 0.61529  14
   1  -8   5 1.24602 0.44547  13
   2  -8   5 22.8272 1.57898  13
   2  -8   5 21.9370 1.49523  12
   2  -8   5 20.7088 1.61006  11
   3  -8   5 157.573 8.16709  12
   3  -8   5 138.943 8.22021  11
   3  -8   5 155.268 8.16378  13
   4  -8   5 1.89916 0.45103  11
   4  -8   5 1.72798 0.29381  13
   4  -8   5 0.81236 0.31366  12
  10   7  -5 39.0266 1.96681   8
 -10  -7   5 32.1971 2.00744   8
   9   7  -5 61.9877 3.57685   8
  -9  -7   5 69.9835 3.64627   8
  -9  -7   5 66.1963 3.76411  14
  -8  -7   5 0.14281 0.49113   8
  -8  -7   5 0.71075 0.47555  14
  -7  -7   5 1.22090 0.64768   9
  -7  -7   5 2.49443 0.57107   8
  -6  -7   5 0.20224 0.57840   9
  -6  -7   5 0.81612 0.46842   8
  -5  -7   5 125.128 6.73633   8
  -5  -7   5 117.309 6.80577  10
  -5  -7   5 132.644 6.91361   9
  -4  -7   5 0.64137 0.49634   9
  -4  -7   5 1.05893 0.40039  10
  -4  -7   5 1.40226 0.33006   8
  -4  -7   5 -0.0690 1.16550   5
  -4  -7   5 2.13041 0.74436  14
  -3  -7   5 309.773 16.8127   9
  -3  -7   5 318.897 16.8849  13
  -3  -7   5 322.291 16.7978  10
  -3  -7   5 302.038 18.1104   5
  -3  -7   5 321.143 17.0729  14
  -2  -7   5 68.8210 5.40979   5
  -2  -7   5 76.6022 4.36052  14
  -2  -7   5 72.0925 3.99532   9
  -2  -7   5 71.6039 4.51871   2
  -2  -7   5 67.8566 4.02821  12
  -2  -7   5 74.1397 4.01374  10
  -2  -7   5 74.0496 4.16699  13
  -1  -7   5 76.0709 5.73612   5
  -1  -7   5 85.3405 4.46553  10
  -1  -7   5 82.6115 4.37227   9
  -1  -7   5 74.1590 4.57349   2
  -1  -7   5 85.0260 4.79110  14
  -1  -7   5 81.9938 4.55556  12
  -1  -7   5 82.2840 4.62890  13
   0  -7   5 3.43975 1.49196   5
   0  -7   5 4.45981 0.61148  13
   0  -7   5 4.69281 0.80242  11
   0  -7   5 4.52293 0.63288  12
   0  -7   5 3.31747 0.76093  14
   0  -7   5 4.26326 0.46114  10
   1  -7   5 9.15045 1.05140  11
   1  -7   5 10.8924 0.95316  13
   1  -7   5 8.73172 1.06979  14
   1  -7   5 8.99793 0.60191  10
   1  -7   5 9.10190 1.04583  12
   2  -7   5 0.44319 0.58609  12
   2  -7   5 1.16015 0.54235  13
   2  -7   5 0.68800 0.51869  11
   3  -7   5 0.67556 0.55039  13
   3  -7   5 0.87834 0.69004  11
   3  -7   5 1.49081 0.44784  12
   4  -7   5 25.5951 1.75384  13
   4  -7   5 28.6409 1.90285  11
   4  -7   5 28.7942 1.84691  12
   5  -7   5 144.111 8.09821  12
   5  -7   5 156.949 8.20582  11
   6  -7   5 -0.0398 0.29731  11
  10   6  -5 13.1850 0.73291   8
  10   6  -5 9.10000 0.84168  18
 -10  -6   5 13.2515 0.97017   8
   9   6  -5 249.705 12.8261   8
  -9  -6   5 233.196 12.8937   8
   8   6  -5 73.8891 4.18511   8
  -8  -6   5 79.8018 4.31162   8
  -7  -6   5 0.27838 0.47686   8
  -6  -6   5 0.64847 0.44668   8
  -5  -6   5 689.631 34.0791   8
  -5  -6   5 667.884 34.1827   9
  -5  -6   5 586.213 35.2453   3
  -5  -6   5 625.881 34.8941   2
  -4  -6   5 22.8364 1.53676   9
  -4  -6   5 23.4109 1.47073  10
  -4  -6   5 22.4325 1.41170   8
  -4  -6   5 20.8817 2.42398   5
  -3  -6   5 71.3411 3.94896   9
  -3  -6   5 70.5225 3.82967   8
  -3  -6   5 73.2658 4.63330   2
  -3  -6   5 69.4341 3.97112  13
  -3  -6   5 72.9055 5.09384   5
  -3  -6   5 68.0066 3.89829  10
  -3  -6   5 68.6746 4.90304   3
  -2  -6   5 467.191 26.1839   8
  -2  -6   5 496.642 26.4283  13
  -2  -6   5 518.127 27.6509   5
  -2  -6   5 516.640 26.5655  14
  -2  -6   5 507.975 27.0485   3
  -2  -6   5 443.892 26.3165  12
  -2  -6   5 497.595 26.3407   9
  -2  -6   5 510.267 26.8547   2
  -2  -6   5 520.116 26.3290  10
  -1  -6   5 158.371 9.78683   5
  -1  -6   5 153.799 8.53669  12
  -1  -6   5 159.222 8.73762  14
  -1  -6   5 165.927 8.49337  10
  -1  -6   5 166.740 8.66967  11
  -1  -6   5 153.084 9.01186   3
  -1  -6   5 158.936 8.85794   2
  -1  -6   5 157.004 8.62972  13
  -1  -6   5 151.221 8.47234   9
   0  -6   5 47.6750 2.60746   9
   0  -6   5 47.9583 2.77019  12
   0  -6   5 50.9412 2.89687  11
   0  -6   5 49.2715 2.96288  14
   0  -6   5 49.6820 2.86418  13
   0  -6   5 48.4490 2.67623  10
   0  -6   5 42.2188 2.87408   3
   0  -6   5 48.5259 2.81044   2
   0  -6   5 47.5751 3.84124   5
   1  -6   5 41.5681 2.33899  10
   1  -6   5 43.7932 2.61389  13
   1  -6   5 43.9622 2.55427  12
   1  -6   5 45.0543 2.69315  11
   1  -6   5 39.8707 3.46467   5
   1  -6   5 37.8034 2.59398  14
   2  -6   5 139.797 7.64586  10
   2  -6   5 143.201 7.89428  12
   2  -6   5 128.797 8.80404   5
   2  -6   5 154.129 7.93831  13
   2  -6   5 151.817 8.02718  11
   3  -6   5 181.268 10.2524  11
   3  -6   5 194.486 10.3557  18
   3  -6   5 188.691 10.1467  12
   3  -6   5 182.728 10.1396  13
   4  -6   5 68.9511 3.62767  12
   4  -6   5 60.3901 3.67107  11
   4  -6   5 62.0735 3.80488  18
   4  -6   5 56.4829 3.54165  13
   5  -6   5 90.9852 4.86016  12
   5  -6   5 84.0441 4.92141  11
   5  -6   5 85.2983 4.97365  18
   6  -6   5 1.35312 0.58079  11
   6  -6   5 1.66712 0.33822  12
   6  -6   5 2.09849 0.55218  18
   7  -6   5 43.5059 2.49956  11
  10   5  -5 9.14170 0.59731   8
  10   5  -5 8.86785 0.92761   9
   9   5  -5 5.27815 0.68858  18
   9   5  -5 3.26523 0.42398   8
   8   5  -5 167.674 8.95927   8
   7   5  -5 17.4638 1.18298   8
  -7  -5   5 18.3079 1.31947   8
  -6  -5   5 20.4807 1.38922   8
  -5  -5   5 12.8497 0.98742   8
  -4  -5   5 216.506 12.3079   9
  -4  -5   5 225.481 12.2405   8
  -4  -5   5 238.940 13.3861   3
  -4  -5   5 239.172 13.1582   5
  -4  -5   5 232.986 12.9236   2
  -3  -5   5 165.486 9.38259   8
  -3  -5   5 170.382 9.43173  10
  -3  -5   5 180.122 10.3674   3
  -3  -5   5 179.265 9.47477   9
  -3  -5   5 196.172 10.0395   2
  -3  -5   5 161.903 9.47009  13
  -3  -5   5 188.041 10.4520   5
  -2  -5   5 196.339 10.8445   8
  -2  -5   5 192.389 10.9791  13
  -2  -5   5 211.286 11.7190   3
  -2  -5   5 199.577 10.9267   9
  -2  -5   5 216.082 11.9555   5
  -2  -5   5 226.039 11.4449   2
  -2  -5   5 196.993 10.9010  10
  -1  -5   5 13.9369 1.12569  11
  -1  -5   5 14.0636 0.97983   9
  -1  -5   5 13.9293 0.95936  10
  -1  -5   5 12.8729 0.78703   8
  -1  -5   5 13.3056 0.95438  12
  -1  -5   5 15.0759 1.73334   3
  -1  -5   5 16.1721 1.44715   2
  -1  -5   5 13.5234 1.17866  14
  -1  -5   5 13.7084 1.06494  13
  -1  -5   5 14.6715 1.93040   5
   0  -5   5 93.2598 5.02773  11
   0  -5   5 92.5433 4.85290  10
   0  -5   5 88.1371 4.98528  13
   0  -5   5 84.5490 4.83500   9
   0  -5   5 92.8401 5.35922   3
   0  -5   5 94.8409 5.98361   5
   0  -5   5 94.2517 5.15502   2
   0  -5   5 86.4368 4.91111  12
   0  -5   5 83.6146 5.03597  14
   1  -5   5 40.9404 2.56269   3
   1  -5   5 41.0133 2.33219   9
   1  -5   5 45.0582 2.58620  13
   1  -5   5 45.5055 3.77443   4
   1  -5   5 39.4806 2.59359  14
   1  -5   5 44.7053 2.65338  11
   1  -5   5 43.8998 2.39850  10
   1  -5   5 45.0214 2.54874  12
   1  -5   5 44.4616 3.51777   5
   1  -5   5 44.3367 2.48900   2
   2  -5   5 233.299 12.6756  11
   2  -5   5 225.890 12.4244  10
   2  -5   5 243.753 12.7765  18
   2  -5   5 241.318 12.6239  13
   2  -5   5 234.254 12.5863  12
   2  -5   5 232.001 13.5451   5
   2  -5   5 228.555 14.1222   4
   3  -5   5 444.414 23.0875  13
   3  -5   5 390.704 24.6440   4
   3  -5   5 454.684 23.2752  18
   3  -5   5 415.295 22.8575  10
   3  -5   5 436.599 23.0814  12
   3  -5   5 452.859 23.1997  11
   4  -5   5 0.99427 1.66136   4
   4  -5   5 1.73520 0.81085  18
   4  -5   5 1.63493 0.67800  11
   4  -5   5 2.00241 0.55385  12
   4  -5   5 1.67181 0.50170  13
   5  -5   5 2.43707 0.73454  11
   5  -5   5 1.87865 0.84591  18
   5  -5   5 3.77794 0.53888  12
   6  -5   5 151.481 8.09015  12
   6  -5   5 144.020 8.23578  18
   6  -5   5 151.489 8.22160  11
   7  -5   5 1.62635 0.69701  18
   7  -5   5 1.40225 0.44621  11
   7  -5   5 0.60785 0.36567  12
   8  -5   5 24.8957 1.56754  18
  11   4  -5 1.78634 0.26544   9
  10   4  -5 205.324 12.1759  18
  10   4  -5 245.443 12.0504   9
   9   4  -5 0.46870 0.51616   9
   9   4  -5 1.32482 0.29158   8
   9   4  -5 0.64013 0.48274  18
   8   4  -5 91.0449 4.91960   8
   7   4  -5 143.090 7.66517   8
  -5  -4   5 36.1319 2.10851   8
  -4  -4   5 18.2325 1.19930   8
  -4  -4   5 20.0021 2.33401   3
  -4  -4   5 19.4984 1.76750   5
  -4  -4   5 19.1010 1.74617   2
  -3  -4   5 3.07770 0.75914   2
  -3  -4   5 2.54298 0.75105   5
  -3  -4   5 2.94481 1.21739   3
  -2  -4   5 102.121 5.78794   2
  -2  -4   5 100.886 6.11116   3
  -2  -4   5 95.1353 6.16070   5
  -1  -4   5 45.3665 3.41515   5
  -1  -4   5 47.4164 2.95253   2
  -1  -4   5 46.6617 3.20479   3
   0  -4   5 8.58201 0.97034   2
   0  -4   5 10.3156 1.69735   4
   0  -4   5 11.1673 1.56040   5
   0  -4   5 9.94009 1.22705   3
   1  -4   5 285.085 14.7729  18
   1  -4   5 288.178 14.6602  12
   1  -4   5 276.967 15.7517   4
   1  -4   5 287.359 15.4850   5
   1  -4   5 269.856 14.7297   2
   1  -4   5 237.999 14.4910   9
   1  -4   5 267.726 14.6301  13
   1  -4   5 273.851 14.5184  10
   1  -4   5 281.125 14.8913   3
   2  -4   5 190.904 10.2977  12
   2  -4   5 198.350 11.5979   4
   2  -4   5 188.193 10.1784  10
   2  -4   5 192.628 10.3787  11
   2  -4   5 192.481 10.3427   3
   2  -4   5 200.992 10.4834  18
   2  -4   5 190.863 10.3122  13
   2  -4   5 197.948 10.2491   2
   2  -4   5 189.321 11.0847   5
   2  -4   5 175.608 10.1215   9
   3  -4   5 15.8059 2.44152   4
   3  -4   5 15.2773 1.82574   5
   3  -4   5 15.8988 1.20057  12
   3  -4   5 16.4159 0.99375  10
   3  -4   5 17.7042 1.50779  18
   3  -4   5 15.9717 1.12846  13
   3  -4   5 16.4473 1.35083  11
   4  -4   5 53.8349 3.04775  10
   4  -4   5 51.9526 3.22238  13
   4  -4   5 60.2639 3.51582  18
   4  -4   5 58.4403 3.40803  11
   4  -4   5 55.7921 4.74921   4
   4  -4   5 58.8456 3.28749  12
   4  -4   5 56.7924 3.21933  17
   5  -4   5 56.9756 3.35665  11
   5  -4   5 58.6106 3.22203  12
   5  -4   5 49.7487 2.91152  10
   5  -4   5 54.7771 3.37354  18
   5  -4   5 50.7275 4.71740   4
   5  -4   5 58.6272 3.21920  17
   6  -4   5 28.7466 2.18030  18
   6  -4   5 30.2836 2.00105  11
   6  -4   5 29.6922 1.90319  12
   7  -4   5 24.1707 1.54326  12
   7  -4   5 25.4989 1.83689  11
   7  -4   5 24.5728 1.75679  18
   8  -4   5 105.697 5.67378  11
   8  -4   5 99.3976 5.69765  18
  11   3  -5 29.2907 1.77920  18
  10   3  -5 6.83722 0.66226  10
  10   3  -5 6.37744 0.79443  18
  10   3  -5 6.47873 0.73148   9
   9   3  -5 61.6882 3.30308   9
   9   3  -5 56.4400 3.10230   8
   9   3  -5 55.2459 3.44931  18
   8   3  -5 43.6264 2.67009   9
   8   3  -5 46.3383 2.49802   8
   7   3  -5 275.868 15.3196   9
   7   3  -5 297.830 15.2165   8
   6   3  -5 25.5140 1.47269   8
   4   3  -5 36.1087 2.40831   7
  -4  -3   5 38.4503 2.68878   5
   3   3  -5 35.6746 2.37537   7
  -3  -3   5 40.9006 2.80869   5
  -3  -3   5 37.4324 2.55464   2
  -3  -3   5 38.8753 3.00553   3
  -2  -3   5 1363.19 69.3568   2
  -2  -3   5 1303.64 69.6595   5
  -2  -3   5 1259.20 69.6231   3
  -1  -3   5 15.9859 1.33685   2
  -1  -3   5 12.6569 1.43535   5
  -1  -3   5 15.1906 1.76689   3
   0  -3   5 40.6087 2.85800   3
   0  -3   5 41.3734 2.59584   2
   0  -3   5 42.1283 2.96877   5
   0  -3   5 43.7064 3.17595   4
   1  -3   5 285.025 16.4416   5
   1  -3   5 309.388 16.1880   3
   1  -3   5 298.263 16.7179   4
   1  -3   5 297.410 15.9999   2
   2  -3   5 84.1839 5.33778   5
   2  -3   5 86.4230 4.80235   2
   2  -3   5 84.1308 4.97344   3
   2  -3   5 87.4172 5.71555   4
   3  -3   5 18.1610 1.15136   2
   3  -3   5 16.1082 0.95853   9
   3  -3   5 17.4839 1.71021   5
   3  -3   5 16.7923 1.00848  10
   3  -3   5 16.1601 1.30440   3
   3  -3   5 17.1705 1.20137  17
   3  -3   5 16.7398 1.40397  18
   3  -3   5 16.1256 2.17213   4
   3  -3   5 15.5490 1.26073  11
   3  -3   5 17.0536 1.14119  12
   4  -3   5 90.7049 4.97837  12
   4  -3   5 91.9195 5.07754  11
   4  -3   5 78.5733 4.93781  13
   4  -3   5 91.3832 6.31215   4
   4  -3   5 87.7180 4.84494  10
   4  -3   5 94.4056 5.15039  18
   4  -3   5 97.4875 4.99570  17
   5  -3   5 54.9416 4.73846   4
   5  -3   5 61.2785 3.27610  10
   5  -3   5 64.1295 3.47446  17
   5  -3   5 58.4233 3.64817  18
   5  -3   5 61.4726 3.45652  12
   5  -3   5 58.4896 3.54909  11
   6  -3   5 27.1697 1.88684  11
   6  -3   5 26.5959 1.48525  10
   6  -3   5 19.6590 2.72977   4
   6  -3   5 26.7253 2.02064  18
   6  -3   5 26.0385 1.66904  12
   6  -3   5 27.9194 1.80295  17
   7  -3   5 8.02719 0.90859  11
   7  -3   5 6.68066 1.01066  18
   7  -3   5 6.56338 0.81636  12
   8  -3   5 132.958 7.05197  11
   8  -3   5 122.391 7.12306  18
   9  -3   5 7.97003 0.79021  18
   9  -3   5 8.70772 0.83455  11
  11   2  -5 138.890 7.39476  10
  10   2  -5 3.36008 0.60063  18
  10   2  -5 3.28748 0.38347   9
  10   2  -5 2.33775 0.48929  10
   9   2  -5 3.61811 0.71135  18
   9   2  -5 3.33228 0.43022   9
   9   2  -5 2.87652 0.55450  10
   8   2  -5 350.288 19.0289   8
   8   2  -5 350.416 19.1601  10
   8   2  -5 369.067 19.1630   9
   8   2  -5 371.348 19.4180  18
   7   2  -5 17.8029 1.23947   9
   7   2  -5 18.5659 1.04507   8
   7   2  -5 12.9867 2.48184   3
   7   2  -5 11.7032 1.63894   2
   6   2  -5 159.509 8.40827   8
   6   2  -5 163.307 9.03454   2
   6   2  -5 145.099 8.47939   9
   6   2  -5 162.003 9.94851   3
   6   2  -5 163.511 8.99065   7
   5   2  -5 19.2617 2.45440   3
   5   2  -5 17.2629 1.66767   2
   5   2  -5 17.7068 1.09751   8
   5   2  -5 19.7631 1.65208   7
   4   2  -5 285.229 16.0032   3
   4   2  -5 289.218 15.3533   7
   4   2  -5 282.706 15.4127   2
  -4  -2   5 273.842 15.4642   5
   3   2  -5 48.1655 3.48645   3
   3   2  -5 36.9600 3.00112   1
   3   2  -5 50.0492 2.87900   7
   3   2  -5 45.8252 2.89479   2
  -3  -2   5 42.0141 3.11250   1
  -3  -2   5 48.4726 2.96482   2
  -3  -2   5 49.2022 3.36620   3
  -3  -2   5 48.8301 3.10326   5
   2   2  -5 13.5087 1.70311   3
   2   2  -5 11.9985 1.30596   1
   2   2  -5 12.6722 1.18110   2
  -2  -2   5 15.2143 1.63294   3
  -2  -2   5 14.8944 1.22150   2
  -2  -2   5 13.8174 1.30950   1
  -2  -2   5 14.3804 1.45561   5
  -2  -2   5 12.9089 1.33179   1
   1   2  -5 465.991 26.2054   1
   1   2  -5 471.447 26.2599   1
  -1  -2   5 452.016 26.2436   1
  -1  -2   5 532.351 26.4071   3
  -1  -2   5 484.769 26.2125   1
  -1  -2   5 483.704 26.3633   5
  -1  -2   5 530.767 26.1107   2
   0   2  -5 342.892 20.1898   1
   0  -2   5 341.495 20.1909   1
   0  -2   5 373.939 20.3624   5
   0  -2   5 371.009 20.1826   1
   0  -2   5 403.840 20.0583   2
   0  -2   5 387.350 20.4669   4
   0  -2   5 400.829 20.2779   3
   1  -2   5 0.78939 0.72417   4
   1  -2   5 1.01793 0.43066   2
   1  -2   5 0.44265 0.40944   1
   1  -2   5 1.25460 0.65127   5
   1  -2   5 0.26464 0.70411   3
   2  -2   5 31.1479 2.41066   5
   2  -2   5 32.6401 2.34995   3
   2  -2   5 32.8519 2.06767   2
   2  -2   5 33.3807 2.70851   4
   3  -2   5 3164.25 165.042   2
   3  -2   5 3066.47 164.819   3
   3  -2   5 3210.90 167.105   4
   3  -2   5 3051.75 165.017   5
   4  -2   5 3.14006 0.66585   3
   4  -2   5 2.89398 1.19140   4
   4  -2   5 3.41249 0.37464  10
   4  -2   5 2.81011 0.43085  12
   4  -2   5 3.40436 0.50578   2
   4  -2   5 2.21824 0.41518  11
   4  -2   5 4.02425 0.55578  17
   4  -2   5 2.75046 0.60998  18
   4  -2   5 3.57440 0.35533   9
   5  -2   5 70.8104 5.14566   4
   5  -2   5 70.1194 3.86961  12
   5  -2   5 69.1819 3.86297  17
   5  -2   5 66.8077 3.98325   3
   5  -2   5 71.7200 4.07024  18
   5  -2   5 67.1853 3.95036  11
   5  -2   5 70.4719 3.82408   2
   5  -2   5 69.2290 3.75585  10
   5  -2   5 67.6037 3.68843   9
   6  -2   5 172.865 9.00157  10
   6  -2   5 167.569 9.30200  18
   6  -2   5 173.444 9.12930  12
   6  -2   5 179.028 9.16018  17
   6  -2   5 150.010 10.4106   4
   6  -2   5 165.715 9.21623  11
   7  -2   5 13.5379 1.05353  12
   7  -2   5 12.6813 1.36253  18
   7  -2   5 12.3774 0.86106  10
   7  -2   5 13.7306 1.24805  11
   7  -2   5 13.4847 1.05603  17
   8  -2   5 2.11279 0.45873  12
   8  -2   5 2.90580 0.30683  10
   8  -2   5 2.41056 0.69075  11
   8  -2   5 3.63063 0.82900  18
   9  -2   5 35.8010 2.14529  11
   9  -2   5 32.1060 2.13125  18
  10  -2   5 0.67633 0.32089  18
  10  -2   5 1.22921 0.38979  11
  10   1  -5 166.940 8.56777  10
  10   1  -5 152.976 8.78549  18
   9   1  -5 7.73703 0.73359   9
   9   1  -5 9.08844 1.23370  18
   9   1  -5 8.99488 0.83733  10
   8   1  -5 10.6794 1.11958  18
   8   1  -5 10.4879 0.91950  10
   8   1  -5 10.0310 0.88779   9
   7   1  -5 188.706 11.0746   7
   7   1  -5 202.112 10.4638   9
   7   1  -5 178.111 10.9257   2
   7   1  -5 204.495 10.3489   8
   7   1  -5 197.867 10.4542  10
   6   1  -5 124.072 6.83406   9
   6   1  -5 134.841 7.41692   7
   6   1  -5 117.521 6.82229  10
   6   1  -5 127.598 6.74721   8
   6   1  -5 123.693 8.16406   3
   6   1  -5 135.584 7.33104   2
   5   1  -5 335.279 18.1584   3
   5   1  -5 323.314 17.3921   2
   5   1  -5 293.071 16.9139   8
   5   1  -5 333.107 17.4781   7
   4   1  -5 263.315 14.4508   2
   4   1  -5 264.942 15.0546   3
   4   1  -5 268.018 14.4758   7
   3   1  -5 395.666 22.2750   1
   3   1  -5 429.065 22.5956   3
   3   1  -5 434.998 22.0890   2
   3   1  -5 427.435 22.0866   7
  -3  -1   5 370.728 22.2889   1
   2   1  -5 1.73528 0.53164   2
   2   1  -5 1.40161 0.59123   1
   2   1  -5 1.03033 0.83880   3
   2   1  -5 0.48321 0.46505   1
  -2  -1   5 1.53601 0.50210   2
  -2  -1   5 1.31905 0.59244   1
  -2  -1   5 0.49686 0.72487   3
  -2  -1   5 1.28085 0.51099   1
   1   1  -5 122.184 7.20573   1
   1   1  -5 134.204 7.27654   1
   1   1  -5 129.533 7.46293   3
   1   1  -5 123.375 7.08409   2
  -1  -1   5 125.970 7.36627   3
  -1  -1   5 135.375 7.09502   2
  -1  -1   5 129.858 7.22336   1
  -1  -1   5 126.186 7.28406   1
   0   1  -5 97.0553 6.44184   2
   0   1  -5 112.934 6.82524   3
   0   1  -5 113.571 6.63583   1
   0   1  -5 118.028 6.65477   1
   0  -1   5 131.814 6.77154   3
   0  -1   5 120.022 6.67215   1
   0  -1   5 124.371 6.73761   4
   0  -1   5 117.967 6.45744   2
   0  -1   5 116.724 6.57172   1
  -1   1  -5 763.623 41.0837   1
  -1   1  -5 764.615 41.1177   1
   1  -1   5 828.676 41.2867   4
   1  -1   5 810.548 41.1347   3
   1  -1   5 740.605 41.0403   1
   1  -1   5 726.413 41.1043   1
   1  -1   5 766.517 40.8972   2
  -2   1  -5 20.1926 1.69520   1
   2  -1   5 18.4304 1.64021   1
   2  -1   5 23.6938 1.79913   3
   2  -1   5 20.9310 1.60931   1
   2  -1   5 21.8747 1.87066   4
   2  -1   5 23.1770 1.51074   2
   3  -1   5 156.135 8.60155   3
   3  -1   5 153.829 8.35155   2
   3  -1   5 150.272 8.58009   5
   3  -1   5 149.634 8.94719   4
   4  -1   5 28.6737 2.47311   4
   4  -1   5 25.4141 1.66139   2
   4  -1   5 26.4661 2.00601   3
   4  -1   5 20.7252 1.77946   5
   5  -1   5 13.7302 0.86544   9
   5  -1   5 14.7770 1.97686   4
   5  -1   5 14.0598 1.54272   3
   5  -1   5 14.7574 1.16032   2
   5  -1   5 12.3546 0.95012  12
   5  -1   5 14.6398 0.98773  17
   5  -1   5 14.6144 0.91965  10
   5  -1   5 12.7474 1.17402  18
   5  -1   5 13.0474 1.06507  11
   6  -1   5 88.2927 4.89705   9
   6  -1   5 92.5286 5.09706  11
   6  -1   5 90.6722 5.21153  18
   6  -1   5 94.4535 5.02939  12
   6  -1   5 90.3004 5.12974   2
   6  -1   5 88.6916 6.16159   4
   6  -1   5 89.8206 5.43751   3
   6  -1   5 91.3172 4.94265  10
   6  -1   5 95.7616 5.07088  17
   7  -1   5 394.460 19.3499  17
   7  -1   5 371.960 19.4148  11
   7  -1   5 361.583 19.3033  12
   7  -1   5 373.255 19.2160  10
   7  -1   5 352.202 19.1102   9
   7  -1   5 322.643 20.6368   4
   7  -1   5 357.504 19.4965  18
   8  -1   5 224.571 11.5160  11
   8  -1   5 198.675 11.3305  12
   8  -1   5 214.474 11.2582  10
   8  -1   5 208.948 11.5462  18
   9  -1   5 1.70191 0.69120  18
   9  -1   5 1.20784 0.48488  11
   9  -1   5 1.43087 0.28194  10
  10  -1   5 2.86800 0.46696  18
  10  -1   5 2.10438 0.47836  11
  10   0  -5 22.1812 1.29393  10
  10   0  -5 21.7972 1.63787  18
   9   0  -5 5.39082 0.90032  18
   9   0  -5 3.91935 0.29435   9
   9   0  -5 5.68176 0.63150  10
   8   0  -5 33.8156 2.37258  18
   8   0  -5 32.9017 1.88530   9
   8   0  -5 34.4404 1.94158  10
   8   0  -5 28.8270 1.98055  17
   7   0  -5 5.14686 0.84446  18
   7   0  -5 2.69465 1.08676   7
   7   0  -5 4.13647 0.47122   9
   7   0  -5 3.55329 0.84814   2
   7   0  -5 3.61907 0.54768  17
   7   0  -5 4.00136 0.48881  10
   6   0  -5 20.0340 1.21530   9
   6   0  -5 21.2128 1.88504   7
   6   0  -5 17.6321 1.29395  17
   6   0  -5 16.5920 2.42324   3
   6   0  -5 18.9040 1.21525  10
   6   0  -5 18.8995 1.64316   2
   6   0  -5 20.0783 1.09453   8
   5   0  -5 98.1612 5.16139   9
   5   0  -5 91.4706 5.08022   8
   5   0  -5 98.0823 6.28862   3
   5   0  -5 105.237 5.58170   2
   5   0  -5 89.3187 5.20059  17
   5   0  -5 101.021 5.72679   7
   5   0  -5 89.9920 5.14872  10
   4   0  -5 310.683 17.0755   3
   4   0  -5 306.753 16.5016   2
   4   0  -5 298.446 16.5889   7
   3   0  -5 496.362 26.3641   3
   3   0  -5 519.295 25.9014   2
   3   0  -5 472.010 25.9178   7
   3   0  -5 450.973 26.0558   1
   2   0  -5 24.8503 1.87745   1
   2   0  -5 26.1458 2.14667   3
   2   0  -5 26.2273 1.69907   2
   2   0  -5 21.2481 1.69733   1
  -2   0   5 20.6003 1.95168   3
  -2   0   5 21.9859 1.70669   1
  -2   0   5 22.3124 1.61507   2
  -2   0   5 21.6996 1.82690   1
   1   0  -5 949.880 50.7960   2
   1   0  -5 972.809 50.9661   1
  -1   0   5 991.619 51.0601   3
  -1   0   5 928.148 50.7866   2
  -1   0   5 947.412 51.0044   1
  -1   0   5 966.928 50.9243   1
   0   0  -5 5.44597 0.82368   1
   0   0  -5 5.73821 1.04668   3
   0   0  -5 5.64280 0.61014   6
   0   0  -5 5.19485 0.71149   2
   0   0  -5 6.44446 0.87073   1
   0   0   5 6.60548 0.98562   3
   0   0   5 6.00583 0.75034   4
   0   0   5 5.04457 0.66456   2
   0   0   5 6.14015 0.80378   1
   0   0   5 4.29936 0.78609   1
  -1   0  -5 287.169 16.8763   2
  -1   0  -5 308.883 17.2418   3
  -1   0  -5 316.066 17.0663   1
  -1   0  -5 303.691 17.0261   1
   1   0   5 344.772 17.1102   3
   1   0   5 324.657 16.8729   2
   1   0   5 316.435 17.0606   4
   1   0   5 321.626 17.1010   1
   1   0   5 309.513 16.9948   1
  -2   0  -5 210.912 11.9325   1
  -2   0  -5 218.603 11.9635   1
   2   0   5 201.425 11.9342   1
   2   0   5 233.644 11.9871   3
   2   0   5 217.083 12.0155   4
   3   0   5 -0.1740 0.60412   3
   3   0   5 -0.5735 0.55282   2
   3   0   5 -0.3803 0.64297   1
   3   0   5 0.77710 0.69842   4
   4   0   5 51.1959 3.13200   2
   4   0   5 52.0219 3.50717   3
   4   0   5 49.6546 3.15881   5
   4   0   5 56.2284 3.67118   4
   5   0   5 197.939 11.1698   3
   5   0   5 202.673 10.8785   2
   5   0   5 194.935 11.4919   4
   6   0   5 32.3126 1.86921   9
   6   0   5 34.1471 1.94502  17
   6   0   5 33.0166 1.87597  10
   6   0   5 31.6614 2.59411   3
   6   0   5 32.3610 1.91419  12
   6   0   5 30.7574 2.07890  18
   6   0   5 33.2330 2.99577   4
   6   0   5 32.1239 2.25278   2
   6   0   5 32.4328 2.01204  11
   7   0   5 252.691 13.2760  17
   7   0   5 246.178 13.4261  18
   7   0   5 257.178 13.2106  10
   7   0   5 240.556 14.5323   4
   7   0   5 250.660 13.2524  12
   7   0   5 239.229 13.8992   3
   7   0   5 247.192 13.3399  11
   8   0   5 4.48564 0.44171   9
   8   0   5 4.53930 0.65297  11
   8   0   5 4.99613 0.58589  10
   8   0   5 4.59075 0.80087  18
   8   0   5 3.67341 0.53758  12
   9   0   5 358.168 20.5762  18
   9   0   5 404.512 20.3721  10
   9   0   5 390.469 20.5585  11
  10   0   5 32.5586 1.93163  10
  10   0   5 37.9758 2.17802  11
  11   0   5 8.98955 0.73142  11
  10  -1  -5 6.64148 0.71780  18
   9  -1  -5 2.64925 0.41416  17
   9  -1  -5 1.59903 0.34260  10
   9  -1  -5 3.04979 0.64676  18
   8  -1  -5 70.3481 4.16839  17
   8  -1  -5 74.7603 4.05573  10
   8  -1  -5 76.9453 4.42630  18
   7  -1  -5 7.72750 1.04154  18
   7  -1  -5 6.33085 1.17398   7
   7  -1  -5 7.29006 0.66705  10
   7  -1  -5 7.15594 0.64924   9
   7  -1  -5 6.60977 0.83344  17
   7  -1  -5 6.34348 0.77555  16
   6  -1  -5 58.5385 3.30327   9
   6  -1  -5 66.7873 3.69074  18
   6  -1  -5 64.9041 3.45428  17
   6  -1  -5 54.5790 3.35617  16
   6  -1  -5 59.6256 4.04178   7
   6  -1  -5 57.2507 3.64829   2
   6  -1  -5 60.4610 3.32410  10
   5  -1  -5 174.586 9.00584  17
   5  -1  -5 173.675 9.22398   2
   5  -1  -5 174.335 9.51061   7
   5  -1  -5 166.338 8.82722   8
   5  -1  -5 167.716 8.91180  10
   5  -1  -5 148.143 8.92186  16
   5  -1  -5 166.964 8.90486   9
   4  -1  -5 323.880 17.6257   2
   4  -1  -5 315.109 17.7936   7
   4  -1  -5 343.704 18.2107   3
   3  -1  -5 13.3999 1.19459   7
   3  -1  -5 15.0254 1.24904   2
   2  -1  -5 4.16841 0.70756   1
   2  -1  -5 3.65115 0.61233   2
   2  -1  -5 3.20724 0.61706   7
   2  -1  -5 3.41351 0.66213   6
  -2   1   5 3.41851 0.73942   1
   1  -1  -5 108.945 5.74017   2
   1  -1  -5 110.319 6.14334   3
   1  -1  -5 99.4173 5.88456   1
   1  -1  -5 107.645 5.83713   6
   1  -1  -5 103.869 5.87785   1
  -1   1   5 105.073 5.82747   1
  -1   1   5 95.0180 5.95109   3
  -1   1   5 91.2736 5.68409   2
  -1   1   5 105.138 5.96600   1
   0  -1  -5 43.4138 2.57282   2
   0  -1  -5 45.2224 2.56362   6
   0  -1  -5 39.6350 2.66888   1
   0  -1  -5 47.3523 3.01202   3
   0  -1  -5 43.3194 2.72726   1
   0   1   5 40.8367 2.77759   1
   0   1   5 41.4664 2.65707   1
   0   1   5 40.8755 2.81713   3
   0   1   5 38.9891 2.43072   4
   0   1   5 41.2755 2.52902   2
  -1  -1  -5 132.848 7.63111   3
  -1  -1  -5 123.160 7.36979   1
  -1  -1  -5 128.230 7.23375   2
  -1  -1  -5 123.660 7.12737   6
  -1  -1  -5 134.587 7.42505   1
   1   1   5 131.875 7.31594   1
   1   1   5 136.558 7.19816   2
   1   1   5 126.526 7.22045   4
   1   1   5 139.100 7.44034   3
   1   1   5 131.574 7.44227   1
  -2  -1  -5 45.8219 3.00656   1
  -2  -1  -5 45.8926 3.36520   3
  -2  -1  -5 44.9514 2.85897   2
  -2  -1  -5 40.9116 2.67824   6
  -2  -1  -5 50.4818 3.09377   1
   2   1   5 47.0611 3.02189   1
   2   1   5 46.9600 2.79865   2
   2   1   5 48.3768 3.17080   3
   2   1   5 43.7851 3.01344   1
   2   1   5 45.1574 2.90541   4
  -3  -1  -5 6.39029 0.99587   1
  -3  -1  -5 7.92016 1.13169   1
   3   1   5 9.10071 1.16929   4
   3   1   5 6.97682 1.03742   1
   3   1   5 8.54146 0.98034   2
   3   1   5 8.14867 1.06754   1
   3   1   5 11.3082 1.32536   3
   4   1   5 9.36877 1.31963   3
   4   1   5 7.85092 1.23921   4
   4   1   5 8.49344 0.96790   2
   5   1   5 17.0029 1.52363   2
   5   1   5 16.8612 1.81290   3
   5   1   5 17.0156 1.72842   4
   6   1   5 298.661 16.0782   4
   6   1   5 264.257 14.9785  10
   6   1   5 284.814 14.9817   9
   6   1   5 296.155 15.3723   2
   6   1   5 270.475 14.8904   8
   6   1   5 290.318 15.8487   3
   6   1   5 274.231 15.0511  11
   7   1   5 389.010 21.4773   8
   7   1   5 408.354 21.7139  11
   7   1   5 403.034 21.5961   9
   7   1   5 410.149 22.4893   3
   7   1   5 418.847 21.6161  10
   7   1   5 417.340 22.8722   4
   7   1   5 414.757 22.0098   2
   7   1   5 400.949 21.6138  12
   8   1   5 38.0479 2.13113  10
   8   1   5 36.9053 2.31445  11
   8   1   5 36.8510 2.07462   9
   8   1   5 34.4573 3.51272   4
   8   1   5 32.4215 2.10501  12
   9   1   5 35.0786 2.26186  11
   9   1   5 36.7673 2.13340  10
  10   1   5 309.530 16.2296  11
  10   1   5 296.233 16.0587  10
  11   1   5 26.5508 1.47741  10
   9  -2  -5 10.1510 0.94941  18
   9  -2  -5 7.18728 0.77086  17
   9  -2  -5 8.90828 0.52227  10
   8  -2  -5 115.081 6.71958  16
   8  -2  -5 119.552 6.66734  10
   8  -2  -5 139.098 7.07885  18
   8  -2  -5 126.186 6.81010  17
   7  -2  -5 164.064 8.68233  17
   7  -2  -5 151.002 8.58749  16
   7  -2  -5 159.148 8.51844  10
   7  -2  -5 163.837 8.94154  18
   6  -2  -5 50.7224 2.90945  16
   6  -2  -5 53.6367 3.15840  18
   6  -2  -5 51.2638 3.64464   7
   6  -2  -5 44.6354 3.54177   3
   6  -2  -5 52.6627 2.81867  10
   6  -2  -5 47.7588 2.99955   2
   6  -2  -5 49.5784 2.76593   9
   6  -2  -5 52.8506 2.94751  17
   5  -2  -5 18.6333 1.25586  16
   5  -2  -5 19.4876 1.85843   7
   5  -2  -5 18.2215 1.43115   2
   5  -2  -5 19.3913 1.15564  10
   5  -2  -5 18.7229 1.13660   9
   5  -2  -5 20.9286 1.47657  15
   5  -2  -5 18.5980 1.32031  17
   5  -2  -5 19.4099 1.42469  18
   5  -2  -5 17.4169 2.12460   3
   4  -2  -5 958.205 49.5447   7
   4  -2  -5 859.774 48.9676   9
   4  -2  -5 935.442 48.9780  10
   4  -2  -5 882.274 49.0670  17
   4  -2  -5 945.992 49.1564  15
   4  -2  -5 973.089 49.2351   2
   4  -2  -5 950.603 49.8272   3
   3  -2  -5 3214.25 164.315   2
   3  -2  -5 3088.10 163.871   6
   3  -2  -5 2937.24 163.671   7
   3  -2  -5 3163.82 164.010   3
   2  -2  -5 20.0349 1.48424   2
   2  -2  -5 20.2814 1.58924   7
   2  -2  -5 22.6867 1.79861   6
   2  -2  -5 21.8875 2.11777   3
   1  -2  -5 318.346 16.5352   6
   1  -2  -5 340.386 16.8154   3
   1  -2  -5 286.407 16.4539   1
   1  -2  -5 306.505 16.3300   2
  -1   2   5 291.619 16.5947   1
  -1   2   5 286.686 16.4170   1
   0  -2  -5 7.63735 0.99225   1
   0  -2  -5 9.44974 0.99710   2
   0  -2  -5 8.46322 1.00161   1
   0  -2  -5 8.25049 0.95825   6
   0  -2  -5 10.0095 1.44398   3
   0   2   5 7.62855 0.90801   1
   0   2   5 6.75291 0.80165   2
   0   2   5 8.12010 1.12878   3
   0   2   5 7.95199 1.13502   1
  -1  -2  -5 86.6719 5.12390   1
  -1  -2  -5 89.3744 4.96443   2
  -1  -2  -5 85.4237 5.12518   1
  -1  -2  -5 87.7575 5.42600   3
  -1  -2  -5 87.4650 4.97991   6
   1   2   5 81.1178 4.80337   4
   1   2   5 92.9005 5.24133   1
   1   2   5 90.4646 5.12052   1
   1   2   5 84.8022 5.18411   3
   1   2   5 84.3669 4.91256   2
  -2  -2  -5 26.5404 1.91217   2
  -2  -2  -5 24.9883 1.82219   6
  -2  -2  -5 24.8918 1.99668   1
  -2  -2  -5 28.2259 2.13054   1
  -2  -2  -5 28.1080 2.49346   3
   2   2   5 25.7449 1.84789   4
   2   2   5 23.4873 2.05725   1
   2   2   5 26.1913 2.13033   3
   2   2   5 27.2860 2.05402   1
   2   2   5 27.8146 1.82452   2
  -3  -2  -5 185.825 10.2896   6
  -3  -2  -5 162.570 10.3883   1
  -3  -2  -5 190.176 10.8602   3
  -3  -2  -5 179.164 10.4961   1
  -3  -2  -5 178.536 10.2980   2
   3   2   5 196.686 10.4604   1
   3   2   5 187.878 10.4128   4
   3   2   5 204.007 10.5584   3
   3   2   5 180.677 10.4522   1
   3   2   5 193.466 10.2071   2
  -4  -2  -5 60.0547 4.16441   1
   4   2   5 68.5957 4.31747   3
   4   2   5 66.0972 4.26717   4
   4   2   5 63.5551 4.19612   1
   4   2   5 68.7378 3.94639   2
   5   2   5 6.63620 1.25971   4
   5   2   5 7.41499 1.29838   3
   5   2   5 5.99241 0.94587   2
   6   2   5 97.9936 5.36992   8
   6   2   5 92.7096 5.45674   9
   6   2   5 109.138 5.98665   2
   6   2   5 103.709 6.43251   3
   6   2   5 104.634 6.48365   4
   7   2   5 4.37944 0.56191  10
   7   2   5 5.36027 1.34812   4
   7   2   5 4.81558 1.40040   3
   7   2   5 3.89722 0.99034   2
   7   2   5 6.49148 0.77489  11
   7   2   5 5.77857 0.68292   9
   7   2   5 6.13511 0.48787   8
   8   2   5 516.330 28.8027  12
   8   2   5 534.866 30.2248   4
   8   2   5 524.535 28.8293  10
   8   2   5 565.443 28.9486  11
   8   2   5 565.764 28.8260   9
   8   2   5 557.288 28.6902   8
   9   2   5 8.31647 0.86936  10
   9   2   5 7.69214 0.86769   9
   9   2   5 8.52370 1.06730  11
  10   2   5 88.5081 4.98630  11
  10   2   5 87.9672 4.83404  10
  11   2   5 35.7716 2.04046  10
  11   2   5 37.3218 2.19145  11
   9  -3  -5 6.18958 0.56116  17
   9  -3  -5 7.69631 0.73678  18
   8  -3  -5 35.1223 2.06056  16
   8  -3  -5 38.6845 2.41698  18
   8  -3  -5 33.1263 2.12447  17
   7  -3  -5 31.4769 1.92488  16
   7  -3  -5 32.9391 1.80347  10
   7  -3  -5 32.6705 2.21906  18
   7  -3  -5 30.2514 2.05366  17
   6  -3  -5 150.711 8.07334  16
   6  -3  -5 144.950 7.94885  10
   6  -3  -5 139.051 8.81291   7
   6  -3  -5 155.746 8.37161  18
   6  -3  -5 153.101 8.15669  17
   5  -3  -5 21.4526 1.73795   3
   5  -3  -5 26.0999 2.26792   7
   5  -3  -5 27.7931 1.42244  10
   5  -3  -5 24.8749 1.87928  15
   5  -3  -5 23.5877 1.81867  18
   5  -3  -5 23.8076 1.46715   2
   5  -3  -5 24.0103 1.57142  16
   5  -3  -5 26.4040 1.66288  17
   5  -3  -5 23.3875 1.33990   9
   4  -3  -5 96.7914 5.62227   7
   4  -3  -5 86.8040 5.22684  18
   4  -3  -5 96.1484 5.13863   2
   4  -3  -5 94.9837 5.69678   3
   4  -3  -5 91.4423 4.96872  10
   4  -3  -5 92.0755 5.06056  16
   4  -3  -5 86.5409 4.94468   9
   4  -3  -5 96.1765 5.12692  17
   4  -3  -5 96.5230 5.23645  15
   3  -3  -5 3.92691 1.01370   6
   3  -3  -5 4.21333 1.08879   3
   3  -3  -5 4.60674 0.77378   7
   3  -3  -5 4.21801 0.56616   2
   2  -3  -5 91.3999 5.39999   6
   2  -3  -5 87.5874 5.55015   3
   2  -3  -5 88.0495 4.96318   2
   2  -3  -5 89.8378 5.19845   7
   1  -3  -5 235.866 12.7373   2
   1  -3  -5 240.135 12.8604   7
   1  -3  -5 228.456 13.2698   3
   1  -3  -5 242.217 13.0463   6
   0  -3  -5 123.800 6.60013   6
   0  -3  -5 118.780 6.36074   2
   0  -3  -5 113.284 6.50363   1
   0  -3  -5 126.064 7.03240   3
   0  -3  -5 102.998 6.58987   1
   0   3   5 113.910 6.47303   1
   0   3   5 105.128 6.68411   1
  -1  -3  -5 263.385 13.7708   6
  -1  -3  -5 225.686 13.7846   1
  -1  -3  -5 263.004 13.6176   2
  -1  -3  -5 255.034 13.8045   1
  -1  -3  -5 266.715 14.2046   3
   1   3   5 228.751 13.8634   1
   1   3   5 256.401 13.7800   1
  -2  -3  -5 5.54730 0.98432   1
  -2  -3  -5 7.30239 0.97417   2
  -2  -3  -5 6.78215 1.43430   3
  -2  -3  -5 8.72399 1.07206   6
  -2  -3  -5 5.09382 0.88961   1
   2   3   5 5.22244 0.79087   2
   2   3   5 6.29567 0.96362   1
   2   3   5 6.69040 1.11210   3
   2   3   5 4.17244 0.94961   1
   2   3   5 5.99948 0.83928   4
  -3  -3  -5 6.97781 1.00496   2
  -3  -3  -5 5.11274 1.04708   1
  -3  -3  -5 7.18508 1.00789   6
  -3  -3  -5 6.49609 1.45982   3
  -3  -3  -5 4.20130 0.84887   1
   3   3   5 4.88701 0.81959   2
   3   3   5 6.30212 1.00333   4
   3   3   5 4.91954 0.98631   1
   3   3   5 4.21890 0.94040   1
   3   3   5 4.23861 1.08645   3
  -4  -3  -5 72.7124 4.52279   2
  -4  -3  -5 74.1783 5.17327   3
  -4  -3  -5 59.1485 4.51900   1
   4   3   5 81.2151 4.70216   4
   4   3   5 72.3332 4.71454   1
   4   3   5 69.6292 4.71685   1
   4   3   5 78.4490 4.42313   2
   4   3   5 78.1169 4.81100   3
   5   3   5 639.514 33.3590   3
   5   3   5 587.417 32.8859   2
   5   3   5 616.697 33.3370   4
   6   3   5 20.6916 1.28494   8
   6   3   5 26.1700 2.59163   3
   6   3   5 23.8520 2.44210   4
   6   3   5 21.9436 1.95205   2
   7   3   5 3.77445 1.42921   3
   7   3   5 4.23636 0.57164   9
   7   3   5 6.30201 0.49723   8
   7   3   5 2.99220 1.05469   2
   7   3   5 5.08641 1.51425   4
   8   3   5 66.5708 3.43335   8
   8   3   5 62.5847 3.57422  10
   8   3   5 65.3595 3.65723  11
   8   3   5 57.4597 4.75984   3
   8   3   5 63.5158 5.00437   4
   8   3   5 63.7602 3.58506   9
   8   3   5 59.1192 4.17897   2
   9   3   5 0.75561 0.19717   8
   9   3   5 0.89252 0.45188   9
   9   3   5 0.21170 0.38732  11
   9   3   5 0.81267 0.34605  10
  10   3   5 22.9716 1.50034  10
  10   3   5 22.5835 1.63052  11
  10   3   5 22.1343 1.42599   9
  11   3   5 14.6354 1.05196  10
  11   3   5 15.1684 0.88930   9
  11   3   5 15.2912 1.23742  11
   8  -4  -5 93.3103 5.04645  17
   8  -4  -5 92.3173 4.98118  16
   8  -4  -5 90.0262 5.17838  18
   7  -4  -5 17.8510 1.39076  17
   7  -4  -5 18.2958 1.43019  18
   7  -4  -5 18.1436 1.33498  16
   6  -4  -5 14.6623 1.32811  18
   6  -4  -5 17.9258 1.34262  17
   6  -4  -5 15.2400 1.24749  16
   6  -4  -5 14.9111 0.89712  10
   5  -4  -5 48.4506 2.72194  16
   5  -4  -5 46.0446 3.00372  18
   5  -4  -5 44.6408 3.52177   7
   5  -4  -5 47.8273 2.84871  17
   5  -4  -5 47.7213 3.00180  15
   5  -4  -5 47.6325 2.57834  10
   4  -4  -5 21.4343 1.23903  10
   4  -4  -5 24.2576 1.51917  17
   4  -4  -5 21.3303 1.42503  16
   4  -4  -5 21.5576 1.66885  15
   4  -4  -5 20.6165 1.62791  18
   4  -4  -5 22.3562 1.90427   7
   3  -4  -5 83.8615 4.56152  17
   3  -4  -5 75.0673 4.37566   9
   3  -4  -5 82.8098 4.47833   2
   3  -4  -5 83.9153 5.28222   6
   3  -4  -5 87.6360 5.04244   7
   3  -4  -5 85.0386 4.76739  14
   3  -4  -5 82.1854 4.41925  10
   3  -4  -5 83.6737 4.78593   3
   3  -4  -5 81.7557 4.65291  15
   3  -4  -5 82.4405 4.52499  16
   2  -4  -5 192.381 11.1746   3
   2  -4  -5 201.714 11.2822   6
   2  -4  -5 199.358 11.0375   7
   2  -4  -5 203.398 10.7007   2
   1  -4  -5 165.618 10.2289   3
   1  -4  -5 182.598 9.90031   7
   1  -4  -5 186.322 10.1574   6
   1  -4  -5 182.595 9.70281   2
   0  -4  -5 18.6843 1.73906   6
   0  -4  -5 18.9093 2.02348   3
   0  -4  -5 21.0552 1.46537   2
   0  -4  -5 20.6028 1.51148   7
  -1  -4  -5 52.1248 3.36478   6
  -1  -4  -5 52.7559 3.12956   2
  -1  -4  -5 45.9474 3.74296   3
  -2  -4  -5 448.900 23.9338   6
  -2  -4  -5 417.144 23.9590   1
  -2  -4  -5 429.611 24.3397   3
  -2  -4  -5 471.010 23.7910   2
  -3  -4  -5 1058.67 53.5431   2
  -3  -4  -5 1014.80 53.6592   6
  -3  -4  -5 1023.57 54.1335   3
  -3  -4  -5 924.145 53.7132   1
  -4  -4  -5 184.581 10.3342   2
  -4  -4  -5 197.951 10.5579   6
  -4  -4  -5 193.580 11.0493   3
   4   4   5 156.423 10.4087   1
   6   4   5 149.587 8.46724   4
   6   4   5 126.865 7.28694   8
   7   4   5 64.9475 3.50916   8
   7   4   5 64.8999 4.91814   4
   7   4   5 61.9858 4.96937   3
   8   4   5 26.3524 3.31760   3
   8   4   5 29.9481 1.90486   9
   8   4   5 28.8726 2.88329   2
   8   4   5 28.2936 3.31002   4
   8   4   5 31.6594 1.72824   8
   9   4   5 154.947 8.39329  11
   9   4   5 154.908 8.33238   9
   9   4   5 152.247 8.19291   8
  10   4   5 26.5959 1.68179  10
  10   4   5 25.2444 1.77116  11
  10   4   5 24.0292 1.39049   8
  10   4   5 28.8144 1.67722   9
  11   4   5 -0.1989 0.34665  11
  11   4   5 0.15349 0.30225  10
  11   4   5 0.09830 0.32954   9
  12   4   5 8.58764 0.68228  11
   7  -5  -5 0.66553 0.55658  17
   7  -5  -5 0.60184 0.54659  18
   7  -5  -5 1.53262 0.37768  16
   6  -5  -5 3.40053 0.49528  16
   6  -5  -5 2.81619 0.65189  17
   6  -5  -5 2.97257 0.70748  18
   5  -5  -5 92.1046 5.27617  15
   5  -5  -5 92.4097 5.07776  16
   5  -5  -5 96.0653 5.13953  17
   5  -5  -5 86.3932 5.26650  18
   4  -5  -5 393.638 20.9742  10
   4  -5  -5 363.567 21.7164   7
   4  -5  -5 406.863 21.2726  15
   4  -5  -5 411.443 21.1318  16
   4  -5  -5 402.447 21.2034  17
   4  -5  -5 404.001 21.3575  14
   3  -5  -5 187.811 9.73015  17
   3  -5  -5 173.577 10.1601   7
   3  -5  -5 176.398 10.4983   6
   3  -5  -5 174.142 9.53118  10
   3  -5  -5 181.429 9.80828  15
   3  -5  -5 183.372 9.90251  14
   3  -5  -5 181.577 9.66009  16
   2  -5  -5 17.3834 1.14302  16
   2  -5  -5 17.0008 0.97984  10
   2  -5  -5 15.8773 1.10453  17
   2  -5  -5 16.7941 1.51362   7
   2  -5  -5 16.5205 1.86464   6
   2  -5  -5 16.1776 1.42349  14
   2  -5  -5 17.3395 1.30094  15
   1  -5  -5 21.3067 1.30178   2
   1  -5  -5 22.1232 1.74542   3
   1  -5  -5 19.9003 1.36073  15
   1  -5  -5 19.1681 1.11149   9
   1  -5  -5 18.7038 1.54161   7
   1  -5  -5 18.6329 1.21748  16
   1  -5  -5 20.2886 1.93839   6
   1  -5  -5 19.5305 1.48814  14
   1  -5  -5 20.2560 1.36937  13
   0  -5  -5 1012.00 51.5332   2
   0  -5  -5 1014.06 52.0293   6
   0  -5  -5 910.822 51.6080   7
   0  -5  -5 958.064 52.0107   3
  -1  -5  -5 112.795 6.85154   7
  -1  -5  -5 124.664 7.53623   3
  -1  -5  -5 134.066 6.99250   2
  -1  -5  -5 130.023 7.40351   6
  -2  -5  -5 3.31648 0.84917   2
  -2  -5  -5 2.86481 1.11701   3
  -2  -5  -5 4.22548 1.00062   6
  -3  -5  -5 529.250 27.4741   6
  -3  -5  -5 474.776 27.7400   3
  -3  -5  -5 508.448 27.2067   2
  -4  -5  -5 51.4478 4.19387   3
  -4  -5  -5 53.6673 3.78565   6
  -4  -5  -5 50.5539 3.59032   2
  -5  -5  -5 2.07273 1.33477   3
  -5  -5  -5 3.29098 1.15004   6
  -5  -5  -5 3.35332 1.03618   2
   7   5   5 103.261 5.75380   8
   7   5   5 112.004 7.10415   4
   8   5   5 0.97520 1.49826   4
   8   5   5 -0.1806 0.31510   8
   9   5   5 35.9409 2.31810   9
   9   5   5 38.5375 2.12042   8
  10   5   5 0.22922 0.50746   9
  10   5   5 0.16735 0.22996   8
  10   5   5 0.30174 0.36000  11
  11   5   5 179.501 9.67693  11
  12   5   5 3.94495 0.49822  11
   7  -6  -5 57.6070 3.17463  16
   6  -6  -5 5.21193 0.74208  17
   6  -6  -5 5.57639 0.65849  16
   5  -6  -5 3.11783 0.47267  16
   5  -6  -5 2.79504 0.62961  15
   5  -6  -5 3.37082 0.65822  17
   4  -6  -5 81.3322 4.45635  16
   4  -6  -5 78.9495 4.71406  14
   4  -6  -5 76.7727 4.63039  15
   4  -6  -5 82.2537 4.53155  17
   3  -6  -5 31.6783 1.92280  16
   3  -6  -5 33.6364 2.29547  14
   3  -6  -5 32.1164 2.03773  15
   3  -6  -5 26.0152 2.84745   6
   3  -6  -5 31.5734 1.96152  17
   3  -6  -5 29.3129 1.65788  10
   2  -6  -5 6.34458 0.73425  13
   2  -6  -5 6.56399 0.88832  14
   2  -6  -5 4.33497 0.56606  16
   2  -6  -5 4.60220 0.58780  17
   2  -6  -5 4.29681 0.68162  15
   2  -6  -5 4.26543 1.23049   6
   2  -6  -5 4.16558 0.37584  10
   1  -6  -5 24.5585 1.64404  15
   1  -6  -5 23.6992 2.30816   6
   1  -6  -5 25.3380 1.49109  16
   1  -6  -5 21.1598 1.48696  17
   1  -6  -5 23.3531 1.36678  10
   1  -6  -5 25.1385 1.69453  14
   1  -6  -5 26.6326 1.64927  13
   0  -6  -5 1.83483 0.24101   9
   0  -6  -5 1.69205 0.28182  10
   0  -6  -5 1.71905 0.55429  14
   0  -6  -5 1.84695 0.44197  15
   0  -6  -5 2.12559 0.40416  16
   0  -6  -5 2.44940 0.77286   3
   0  -6  -5 2.40827 0.92428   6
   0  -6  -5 1.95777 0.44325   2
  -1  -6  -5 430.857 22.4430  16
  -1  -6  -5 426.833 22.4661  13
  -1  -6  -5 433.749 23.2001   6
  -1  -6  -5 431.505 22.6326   2
  -1  -6  -5 413.987 22.5134  15
  -1  -6  -5 427.240 22.4041  10
  -1  -6  -5 435.151 23.1206   3
  -1  -6  -5 395.768 22.3564   9
  -1  -6  -5 414.699 22.5728  14
  -2  -6  -5 34.4505 2.01050   8
  -2  -6  -5 42.0820 2.62497   2
  -2  -6  -5 38.2201 3.11567   3
  -2  -6  -5 38.0441 2.90248   6
  -2  -6  -5 37.1954 2.14180   9
  -2  -6  -5 37.5579 2.27394  15
  -3  -6  -5 137.760 8.07263   6
  -3  -6  -5 123.720 7.16316   9
  -3  -6  -5 127.658 7.23926  15
  -3  -6  -5 142.510 7.73318   2
  -3  -6  -5 126.740 7.04816   8
  -3  -6  -5 144.582 8.41656   3
  -4  -6  -5 376.331 20.3871   8
  -4  -6  -5 414.904 21.5058   6
  -4  -6  -5 350.949 20.4862   9
  -4  -6  -5 401.256 21.1381   2
  -4  -6  -5 389.522 21.8294   3
  -5  -6  -5 41.3862 2.35632   8
  -5  -6  -5 40.1854 4.16033   3
  -5  -6  -5 48.4302 3.50236   6
  -5  -6  -5 40.4479 3.18526   2
  -5  -6  -5 38.2884 2.50090   9
  -6  -6  -5 84.1091 4.75740   8
  -6  -6  -5 91.6597 6.11711   6
  -7  -6  -5 4.59328 1.59466   6
  -7  -6  -5 6.83662 0.69323   8
  -8  -6  -5 510.451 29.5212   6
   8   6   5 525.671 29.6063   4
   8   6   5 550.609 28.0387   8
   9   6   5 1.89862 0.37811   8
  10   6   5 5.79005 0.56279   8
  10   6   5 6.74501 0.74080   9
  11   6   5 19.6111 1.37238  11
  11   6   5 18.5823 1.04637   8
  11   6   5 19.9580 1.31004   9
   6  -7  -5 2.33764 0.37524  16
   6  -7  -5 3.19753 0.41471  17
   5  -7  -5 217.486 12.3413  17
   5  -7  -5 233.225 12.3003  16
   5  -7  -5 240.202 12.4410  15
   4  -7  -5 14.4688 1.12967  17
   4  -7  -5 16.3595 1.29862  15
   4  -7  -5 16.3083 1.12303  16
   3  -7  -5 10.2744 0.96836  17
   3  -7  -5 9.93416 0.85783  16
   3  -7  -5 9.69070 1.36755  14
   3  -7  -5 11.7010 1.27271  15
   2  -7  -5 32.9708 1.91490  16
   2  -7  -5 31.4722 2.08530  15
   2  -7  -5 26.3907 2.82164   6
   2  -7  -5 32.0787 2.11318  14
   2  -7  -5 27.6166 1.84067  17
   1  -7  -5 31.9107 2.28764  14
   1  -7  -5 33.5320 2.08165  15
   1  -7  -5 31.9806 1.78971  10
   1  -7  -5 33.2686 2.95564   6
   1  -7  -5 34.4314 2.14397  13
   1  -7  -5 31.5867 1.99261  16
   0  -7  -5 23.9024 1.55043  16
   0  -7  -5 26.2437 1.87028  14
   0  -7  -5 24.9879 1.72356  15
   0  -7  -5 24.1680 2.47503   6
   0  -7  -5 27.4389 1.73410  13
   0  -7  -5 24.7674 1.45068  10
  -1  -7  -5 6.23360 1.20625   6
  -1  -7  -5 6.63234 0.52179   9
  -1  -7  -5 7.31718 0.71030  13
  -1  -7  -5 7.31617 1.08742   3
  -1  -7  -5 6.31974 0.61127  10
  -1  -7  -5 6.26123 0.70300  16
  -1  -7  -5 5.30718 0.78673  14
  -1  -7  -5 6.27811 0.73019  15
  -1  -7  -5 7.28537 0.82802   2
  -2  -7  -5 135.426 7.45518  15
  -2  -7  -5 135.528 8.16461   3
  -2  -7  -5 139.891 7.33655  10
  -2  -7  -5 137.541 7.34716  16
  -2  -7  -5 125.537 7.43067  14
  -2  -7  -5 142.143 8.35854   6
  -2  -7  -5 135.225 7.64053   2
  -2  -7  -5 137.675 7.38716  13
  -2  -7  -5 133.582 7.27602   9
  -3  -7  -5 39.3727 2.31065   9
  -3  -7  -5 40.4776 2.31371  10
  -3  -7  -5 41.5097 3.43220   6
  -3  -7  -5 40.3351 2.44235  15
  -3  -7  -5 34.3380 2.40213  14
  -3  -7  -5 36.0307 2.30953  13
  -3  -7  -5 39.5787 2.10166   8
  -3  -7  -5 43.1828 2.94519   2
  -3  -7  -5 36.7097 3.35856   3
  -4  -7  -5 150.665 8.07080  15
  -4  -7  -5 138.828 9.22921   3
  -4  -7  -5 132.842 7.91551  10
  -4  -7  -5 148.694 7.80561   8
  -4  -7  -5 147.280 9.01110   6
  -4  -7  -5 154.044 8.65938   2
  -4  -7  -5 152.137 7.96505   9
  -5  -7  -5 22.8337 2.67845   6
  -5  -7  -5 17.2594 2.12930   2
  -5  -7  -5 19.5810 1.22612   8
  -5  -7  -5 16.3092 2.64140   3
  -5  -7  -5 18.9336 1.42639   9
  -6  -7  -5 1080.87 60.7926   9
  -6  -7  -5 1193.05 60.6732   8
  -6  -7  -5 1176.39 62.1255   6
  -7  -7  -5 90.5586 4.98813   8
  -8  -7  -5 9.48740 0.97016   8
  -9  -7  -5 5.79058 0.61619   8
   9   7   5 6.88693 0.69448   8
 -10  -7  -5 29.9382 1.96145   8
  10   7   5 33.1987 1.80133   8
 -11  -7  -5 0.35323 0.30844   8
  11   7   5 0.42362 0.18687   8
  11   7   5 1.54894 0.36398  11
  11   7   5 0.62270 0.34544   9
   5  -8  -5 3.75421 0.41303  17
   5  -8  -5 3.86734 0.43124  16
   4  -8  -5 17.7706 1.25695  16
   4  -8  -5 15.9283 1.16002  17
   4  -8  -5 17.7929 1.28444  15
   3  -8  -5 38.8424 2.33791  15
   3  -8  -5 32.0129 2.14088  17
   3  -8  -5 37.2703 2.39726  14
   3  -8  -5 39.6256 2.18264  16
   2  -8  -5 51.9855 3.14978  15
   2  -8  -5 52.6528 2.93735  16
   2  -8  -5 49.1229 3.15122  14
   1  -8  -5 299.654 16.1288  14
   1  -8  -5 291.087 16.0409  15
   1  -8  -5 304.118 15.9153  16
   0  -8  -5 67.0464 3.82367  13
   0  -8  -5 68.8521 3.91184  14
   0  -8  -5 61.7992 4.53720   6
   0  -8  -5 62.4449 3.65355  16
   0  -8  -5 65.2722 3.78679  15
  -1  -8  -5 -0.1011 1.07571   6
  -1  -8  -5 -0.1165 0.47949  15
  -1  -8  -5 0.41265 0.26762  10
  -1  -8  -5 0.17860 0.39766  13
  -1  -8  -5 -0.0509 0.24698  16
  -1  -8  -5 0.67025 0.61095  14
  -2  -8  -5 4.32913 1.05252   3
  -2  -8  -5 3.34866 0.51763  16
  -2  -8  -5 3.22129 0.67971  14
  -2  -8  -5 3.59666 0.37603   9
  -2  -8  -5 3.70584 0.65149  13
  -2  -8  -5 3.20648 0.63888  15
  -2  -8  -5 2.56949 0.63511   2
  -2  -8  -5 3.33909 0.49603  10
  -2  -8  -5 2.72749 1.32103   6
  -3  -8  -5 455.358 25.6790   6
  -3  -8  -5 476.646 24.4471   9
  -3  -8  -5 434.629 25.3269   3
  -3  -8  -5 435.082 24.5970  14
  -3  -8  -5 455.703 24.4832  16
  -3  -8  -5 454.384 24.8836   2
  -3  -8  -5 482.789 24.5051  10
  -3  -8  -5 491.837 24.6618  15
  -4  -8  -5 3.14827 1.05372   2
  -4  -8  -5 3.59905 0.51164  16
  -4  -8  -5 2.11290 1.42500   6
  -4  -8  -5 3.43825 0.68215  15
  -4  -8  -5 4.07362 0.61493  10
  -4  -8  -5 4.79646 0.59238   9
  -4  -8  -5 3.60505 0.33676   8
  -4  -8  -5 1.74737 1.29333   3
  -5  -8  -5 2.63427 0.64430  15
  -5  -8  -5 0.15061 1.48439   3
  -5  -8  -5 2.32169 0.35730   8
  -5  -8  -5 1.02321 1.35488   6
  -5  -8  -5 2.62622 0.57933  10
  -5  -8  -5 1.56385 1.23415   2
  -5  -8  -5 1.90132 0.58358   9
  -6  -8  -5 10.8194 1.12099   9
  -6  -8  -5 7.90342 2.00604   6
  -7  -8  -5 103.864 5.41739   8
  -7  -8  -5 93.9002 5.57837   9
  -8  -8  -5 31.1129 1.93043   8
  -9  -8  -5 -0.3376 0.45973   8
   9   8   5 -0.1836 0.36446   8
 -10  -8  -5 166.382 8.90132   8
  11   8   5 14.9978 1.06758  11
  11   8   5 14.8473 0.85803   8
   4  -9  -5 73.9605 4.12872  15
   4  -9  -5 74.6133 4.03622  16
   3  -9  -5 2.67328 0.53686  15
   3  -9  -5 1.83366 0.37550  16
   2  -9  -5 0.61095 0.31417  16
   2  -9  -5 0.35347 0.59075  14
   2  -9  -5 0.67727 0.47587  15
   1  -9  -5 27.4103 1.91546  15
   1  -9  -5 26.7430 1.63034  16
   1  -9  -5 25.2735 1.88345  14
   0  -9  -5 22.8377 1.50202  16
   0  -9  -5 21.3006 1.68383  14
   0  -9  -5 23.3057 1.72691  15
  -1  -9  -5 529.911 28.1853  10
  -1  -9  -5 505.369 28.2924  16
  -1  -9  -5 537.814 28.4178  13
  -1  -9  -5 550.258 28.4676  15
  -1  -9  -5 546.492 28.5376  14
  -2  -9  -5 3.71607 0.73566  15
  -2  -9  -5 4.24788 0.48367  10
  -2  -9  -5 3.63202 0.80046  14
  -2  -9  -5 4.27587 0.53045  16
  -3  -9  -5 -0.4924 0.57917  14
  -3  -9  -5 0.49243 0.45510  10
  -3  -9  -5 0.64079 1.00598   6
  -3  -9  -5 0.27999 0.27979   9
  -3  -9  -5 0.31945 0.42183  15
  -3  -9  -5 0.05339 0.24760  16
  -4  -9  -5 117.875 6.34833  10
  -4  -9  -5 112.827 6.26036   9
  -4  -9  -5 112.886 7.72264   6
  -4  -9  -5 116.979 6.48557  15
  -5  -9  -5 16.1845 1.35306  15
  -5  -9  -5 17.0220 1.29464   9
  -5  -9  -5 15.8910 1.33790  10
  -6  -9  -5 34.9989 1.95881   8
  -6  -9  -5 36.4234 2.27950   9
  -6  -9  -5 36.0223 2.34370  15
  -6  -9  -5 34.5964 2.26715  10
  -7  -9  -5 78.5853 4.50236   9
  -7  -9  -5 74.7345 4.25932   8
  -7  -9  -5 83.3124 4.65683  15
  -8  -9  -5 94.8214 5.24131   8
  -8  -9  -5 99.7664 5.57609  15
  -9  -9  -5 19.4931 1.43134   9
  -9  -9  -5 21.1204 1.49721  15
  -9  -9  -5 20.7726 1.22816   8
 -10  -9  -5 6.96675 0.55023   8
 -10  -9  -5 7.06106 0.73812  15
  10   9   5 7.44019 0.55969   8
   3 -10  -5 45.5793 2.59276  15
   2 -10  -5 252.232 14.1934  16
   2 -10  -5 273.636 14.3379  15
   2 -10  -5 276.913 14.3720  14
   1 -10  -5 2.08383 0.51881  15
   1 -10  -5 0.78385 0.78653  14
   1 -10  -5 2.05108 0.33954  16
   0 -10  -5 46.3551 2.67689  16
   0 -10  -5 46.4743 2.84031  15
   0 -10  -5 49.1061 2.99974  14
  -1 -10  -5 46.5101 2.87014  16
  -1 -10  -5 53.5356 3.15741  14
  -1 -10  -5 55.4799 3.17347  15
  -2 -10  -5 348.314 19.2332  14
  -2 -10  -5 364.167 18.9341  10
  -2 -10  -5 361.288 19.1936  15
  -3 -10  -5 1.04359 0.38624  10
  -3 -10  -5 1.32451 0.64985  15
  -3 -10  -5 1.64274 0.51195  14
  -4 -10  -5 0.60501 0.49167  10
  -4 -10  -5 0.33972 0.22576   9
  -4 -10  -5 0.19340 0.60949  15
  -4 -10  -5 2.17094 0.60548  14
  -5 -10  -5 66.5426 3.81860  10
  -5 -10  -5 66.8590 3.94058  15
  -5 -10  -5 67.2042 3.69565   9
  -6 -10  -5 26.7130 1.84712  10
  -6 -10  -5 27.3496 1.77036   9
  -6 -10  -5 28.2439 1.90557  15
  -7 -10  -5 8.33928 1.11718  15
  -7 -10  -5 9.56422 0.98530   9
  -7 -10  -5 6.29459 0.80570  10
  -8 -10  -5 0.66134 0.54365   9
  -8 -10  -5 0.08394 0.56941  15
  -9 -10  -5 524.350 27.7895   9
 -10 -10  -5 0.10018 0.27971   9
 -10 -10  -5 0.55754 0.27830  15
   1 -11  -5 11.4622 0.90165  15
   1 -11  -5 12.3838 0.95844  14
   0 -11  -5 98.0221 5.45348  14
   0 -11  -5 98.0343 5.41160  15
  -1 -11  -5 0.59960 0.40997  15
  -1 -11  -5 0.70610 0.49901  14
  -2 -11  -5 39.4216 2.34421  15
  -2 -11  -5 36.5010 2.34090  14
  -3 -11  -5 99.0621 5.47743  15
  -3 -11  -5 95.6709 5.46405  14
  -4 -11  -5 81.6039 4.72499  15
  -4 -11  -5 84.6830 4.52408  10
  -5 -11  -5 4.12027 0.48180  10
  -5 -11  -5 4.02068 0.64345  15
  -6 -11  -5 140.652 7.74042  15
  -7 -11  -5 68.8741 3.54233  10
  -7 -11  -5 57.6445 3.62209  15
  -8 -11  -5 28.1471 1.77856  15
  -9 -11  -5 7.03492 0.65075  15
  -2 -12  -5 8.75391 0.82122  14
  -2 -12  -5 12.3305 0.84166  15
  -3 -12  -5 16.5275 1.13963  15
  -4 -12  -5 113.295 6.19022  15
  -5 -12  -5 8.25540 0.55761  10
  -5 -12  -5 9.53941 0.79930  15
  -6 -12  -5 3.04687 0.45406  15
  -6 -12  -5 2.51838 0.35518  10
  -7 -12  -5 6.08765 0.54277  10
  -7 -12  -5 4.73286 0.56829  15
  -6 -10   6 13.3060 1.01585  14
  -5 -10   6 14.3892 0.93526  10
  -5 -10   6 14.7771 1.13522  14
  -4 -10   6 18.0219 0.99680  10
  -4 -10   6 12.4560 1.15087  14
  -3 -10   6 3.29716 0.67158  14
  -3 -10   6 4.21322 0.39181  10
  -2 -10   6 244.489 13.0492  13
  -1 -10   6 1.54627 0.35970  14
  -1 -10   6 1.72545 0.35641  13
   0 -10   6 -0.0686 0.27672  13
  -8  -9   6 72.9153 4.02011   9
  -7  -9   6 22.7389 1.49797   9
  -7  -9   6 22.7223 1.40532  10
  -7  -9   6 22.2022 1.65299  14
  -6  -9   6 15.7037 1.31329  14
  -6  -9   6 16.1178 1.17561   9
  -5  -9   6 77.5093 4.36850  10
  -5  -9   6 82.1131 4.60412  14
  -5  -9   6 78.7268 4.33737   9
  -4  -9   6 17.3562 1.14496  10
  -4  -9   6 17.0608 1.39342  14
  -3  -9   6 0.36839 0.48841  14
  -3  -9   6 0.56666 0.32063  13
  -3  -9   6 0.43151 0.34636  10
  -2  -9   6 37.6966 2.07544  10
  -2  -9   6 36.4787 2.24427  13
  -2  -9   6 36.2255 2.34098  14
  -1  -9   6 41.5099 2.38085  12
  -1  -9   6 43.8903 2.52708  13
  -1  -9   6 37.6273 2.49503  14
   0  -9   6 20.7710 1.48130  14
   0  -9   6 20.8271 1.40961  13
   0  -9   6 21.6346 1.44870  12
   1  -9   6 37.7703 2.35293  13
   1  -9   6 43.2870 2.36678  12
   2  -9   6 54.8031 3.06545  13
  -8  -8   6 1.36370 0.44139   9
  -8  -8   6 2.39988 0.26443   8
  -8  -8   6 1.70892 0.49403  14
  -7  -8   6 204.676 10.7993   9
  -7  -8   6 205.370 10.9603  14
  -7  -8   6 190.776 10.5827   8
  -6  -8   6 2.34231 0.66616   9
  -6  -8   6 2.68838 0.81454  14
  -6  -8   6 2.56105 0.44921  10
  -5  -8   6 2.44077 0.64471  14
  -5  -8   6 2.13858 0.50321  10
  -5  -8   6 1.55847 0.60913   9
  -4  -8   6 6.98767 0.71113  10
  -4  -8   6 5.89354 0.79663   9
  -4  -8   6 4.68920 0.97507  14
  -3  -8   6 436.458 22.6314  14
  -3  -8   6 422.851 22.3026   9
  -3  -8   6 416.768 22.3360  10
  -3  -8   6 407.154 22.4240  13
  -2  -8   6 23.3855 1.64922  12
  -2  -8   6 26.5927 1.87181  14
  -2  -8   6 26.4667 1.81370  13
  -2  -8   6 26.4729 1.61053  10
  -1  -8   6 7.08296 0.68822  10
  -1  -8   6 6.36135 0.80519  13
  -1  -8   6 6.34206 0.93153  14
  -1  -8   6 6.88293 0.75622  12
   0  -8   6 6.04641 0.48865  10
   0  -8   6 5.97510 0.84831  14
   0  -8   6 6.03430 0.67747  12
   0  -8   6 6.62522 0.73458  13
   1  -8   6 30.9253 1.95408  12
   1  -8   6 31.3005 1.97611  13
   2  -8   6 8.46836 0.80810  13
   2  -8   6 8.55773 0.83132  12
   3  -8   6 0.62556 0.34025  13
   3  -8   6 1.38736 0.37891  12
   4  -8   6 98.5328 5.34058  12
   9   7  -6 1.01008 0.31388   8
   9   7  -6 0.95106 0.31585  18
  -9  -7   6 0.63057 0.34176  14
  -9  -7   6 1.06818 0.41080   8
  -8  -7   6 1.01274 0.47669   8
  -8  -7   6 1.07063 0.51594  14
  -7  -7   6 1.16979 0.46501   8
  -7  -7   6 0.83584 0.63410   9
  -6  -7   6 1.16471 0.48595   9
  -6  -7   6 1.00993 0.44166   8
  -5  -7   6 216.158 11.4344   8
  -5  -7   6 205.023 11.5300  10
  -5  -7   6 222.821 11.6115   9
  -4  -7   6 36.5393 2.24962   9
  -4  -7   6 35.9262 2.50235  14
  -4  -7   6 35.5149 1.99892   8
  -4  -7   6 34.8350 2.12441  10
  -3  -7   6 36.2289 2.31181  13
  -3  -7   6 37.3304 2.21850  10
  -3  -7   6 39.3301 2.55973  14
  -3  -7   6 37.7886 2.25190   9
  -3  -7   6 31.8979 3.29524   5
  -2  -7   6 4.13789 0.53168  10
  -2  -7   6 3.98434 0.81356  14
  -2  -7   6 3.84770 0.57214  13
  -2  -7   6 3.30995 0.47263   9
  -2  -7   6 2.68189 1.52115   5
  -1  -7   6 0.97012 0.54069  13
  -1  -7   6 0.45032 0.33946  10
  -1  -7   6 -0.0789 1.35213   5
  -1  -7   6 0.47671 0.30703  12
  -1  -7   6 0.75907 0.26104   9
  -1  -7   6 0.58474 0.62159  14
   0  -7   6 1.71193 0.58315  13
   0  -7   6 2.05477 0.34585  10
   0  -7   6 2.45889 0.45713  12
   0  -7   6 2.39350 0.55438  14
   1  -7   6 31.2464 2.11147  14
   1  -7   6 33.8724 1.86025  10
   1  -7   6 32.0776 2.09201  12
   1  -7   6 35.1933 2.23783  11
   1  -7   6 35.3846 2.21687  13
   2  -7   6 8.50652 1.04621  12
   2  -7   6 8.49048 0.99394  13
   2  -7   6 7.22103 0.96614  11
   3  -7   6 48.4945 3.04069  11
   3  -7   6 49.5424 2.85786  13
   3  -7   6 48.2043 2.86445  12
   4  -7   6 70.4142 4.22412  11
   4  -7   6 69.4077 4.12026  13
   4  -7   6 84.4910 4.21823  12
  10   6  -6 2.71158 0.27917   8
 -10  -6   6 3.19947 0.38223   8
   9   6  -6 9.76250 0.72911   8
   9   6  -6 8.71815 0.84612  18
  -9  -6   6 9.48854 0.81233   8
   8   6  -6 288.320 15.8477   8
  -8  -6   6 309.668 15.9341   8
  -7  -6   6 0.15537 0.48764   8
  -6  -6   6 9.14417 0.94531   8
  -5  -6   6 286.519 15.3691   8
  -5  -6   6 290.854 15.4926   9
  -4  -6   6 66.8555 4.83596   5
  -4  -6   6 68.6000 4.66131   2
  -4  -6   6 71.3546 3.88367   9
  -4  -6   6 63.2723 3.78512  10
  -4  -6   6 67.9566 3.74381   8
  -3  -6   6 6.47544 0.70600   9
  -3  -6   6 6.10658 0.65943  13
  -3  -6   6 3.66310 1.31241   3
  -3  -6   6 6.26151 0.69893  10
  -3  -6   6 6.04717 1.27391   2
  -3  -6   6 5.56956 1.36872   5
  -3  -6   6 5.52646 0.60429   8
  -2  -6   6 216.637 12.5885   2
  -2  -6   6 231.929 12.1421  13
  -2  -6   6 226.871 12.0195  10
  -2  -6   6 220.443 13.3716   5
  -2  -6   6 225.201 12.0417   9
  -2  -6   6 229.504 12.2594  14
  -2  -6   6 219.228 12.7616   3
  -1  -6   6 11.6224 1.86885   5
  -1  -6   6 10.9905 0.95054  13
  -1  -6   6 10.9501 1.19287  14
  -1  -6   6 10.5800 0.83411  10
  -1  -6   6 10.2001 0.89629  12
  -1  -6   6 8.47021 1.36072   3
  -1  -6   6 12.3606 1.38334   2
  -1  -6   6 10.4877 0.87392   9
   0  -6   6 6.09020 1.44668   5
   0  -6   6 5.80323 0.78456  14
   0  -6   6 5.67958 0.63023  12
   0  -6   6 6.17754 0.74086  13
   0  -6   6 4.69918 0.73265   2
   0  -6   6 4.39832 0.78294   3
   0  -6   6 5.73558 0.50513   9
   0  -6   6 5.88967 0.79105  11
   0  -6   6 5.60495 0.57819  10
   1  -6   6 4.89193 0.70403  14
   1  -6   6 4.94369 0.69384  12
   1  -6   6 4.65371 0.79163  11
   1  -6   6 4.77252 0.62900  13
   1  -6   6 5.41681 0.50517  10
   1  -6   6 4.45331 1.25294   5
   2  -6   6 108.368 6.02122  11
   2  -6   6 91.8079 6.83194   5
   2  -6   6 112.984 5.98402  13
   2  -6   6 107.539 5.69339  10
   2  -6   6 107.663 5.94473  12
   3  -6   6 605.261 32.0223  12
   3  -6   6 598.881 32.0294  13
   3  -6   6 604.386 32.1211  11
   4  -6   6 230.340 12.1243  11
   4  -6   6 230.819 12.0150  12
   4  -6   6 207.553 11.9674  13
   5  -6   6 0.91223 0.48604  12
   5  -6   6 1.85653 0.64957  11
   6  -6   6 41.6910 2.47343  11
  10   5  -6 171.587 8.56102   9
  10   5  -6 147.336 8.62207  18
   9   5  -6 43.4040 2.39831   8
   9   5  -6 43.1493 2.64091  18
   8   5  -6 2.82432 0.42412   8
  -8  -5   6 3.94861 0.50726   8
   7   5  -6 77.7276 4.23209   8
  -7  -5   6 76.6494 4.31825   8
  -6  -5   6 30.9233 1.92795   8
  -5  -5   6 2.02027 0.45202   8
  -4  -5   6 508.704 27.6893   2
  -4  -5   6 488.188 27.0438   9
  -4  -5   6 527.764 28.0466   5
  -4  -5   6 495.001 28.1466   3
  -4  -5   6 527.135 26.9657   8
  -3  -5   6 121.505 6.84122   2
  -3  -5   6 114.310 6.21492   9
  -3  -5   6 110.676 6.11290   8
  -3  -5   6 112.557 7.26880   3
  -3  -5   6 120.479 7.32780   5
  -3  -5   6 107.891 6.15678  10
  -3  -5   6 112.660 6.23016  13
  -2  -5   6 8.38377 1.47154   3
  -2  -5   6 9.84836 0.86693  13
  -2  -5   6 9.90661 1.31534   2
  -2  -5   6 7.95437 0.78375   9
  -2  -5   6 7.66604 0.71748  10
  -2  -5   6 8.77024 1.55984   5
  -2  -5   6 9.25722 0.68390   8
  -1  -5   6 0.50825 0.37253  13
  -1  -5   6 1.24901 1.02421   3
  -1  -5   6 0.34359 0.30220  12
  -1  -5   6 1.30070 0.46402  11
  -1  -5   6 0.34374 0.65314   2
  -1  -5   6 0.27408 0.96460   5
  -1  -5   6 0.82254 0.48973  14
  -1  -5   6 0.77623 0.31000  10
  -1  -5   6 0.47430 0.32608   9
  -1  -5   6 1.08081 0.18723   8
   0  -5   6 248.241 13.4786   2
   0  -5   6 247.024 13.2062  12
   0  -5   6 250.302 13.2778  13
   0  -5   6 251.482 13.2998  11
   0  -5   6 254.723 13.1434  10
   0  -5   6 232.698 13.3081  14
   0  -5   6 236.755 13.1176   9
   0  -5   6 255.666 14.3873   5
   0  -5   6 246.465 13.6558   3
   1  -5   6 37.0812 2.05833   9
   1  -5   6 35.9933 2.47200   3
   1  -5   6 36.6545 2.25966  12
   1  -5   6 38.0470 2.29111   2
   1  -5   6 38.7582 2.32266  11
   1  -5   6 38.7738 2.32261  13
   1  -5   6 34.2899 2.31555  14
   1  -5   6 37.9971 3.30400   5
   1  -5   6 37.8556 2.14002  10
   2  -5   6 5.63260 0.61447  12
   2  -5   6 2.83471 1.21226   5
   2  -5   6 3.54329 1.40517   4
   2  -5   6 5.41137 0.67374  13
   2  -5   6 4.15321 0.73851  11
   2  -5   6 4.10823 0.44630  10
   3  -5   6 162.224 8.66251  13
   3  -5   6 150.818 8.42909  10
   3  -5   6 159.265 8.73414  11
   3  -5   6 162.577 8.82892  18
   3  -5   6 158.710 8.63491  12
   4  -5   6 54.8369 3.34608  11
   4  -5   6 53.0832 3.34402  18
   4  -5   6 52.7699 3.17523  13
   4  -5   6 56.3520 3.17121  12
   5  -5   6 13.3235 1.18782  11
   5  -5   6 12.6586 1.24511  18
   5  -5   6 13.4875 1.19022  12
   6  -5   6 10.7583 1.23360  18
   6  -5   6 11.4229 1.02040  12
   6  -5   6 11.2646 1.03688  11
   7  -5   6 15.8595 1.17006  11
   7  -5   6 16.0425 1.22204  18
   7  -5   6 16.9493 1.05995  12
  10   4  -6 102.629 5.68418  18
   9   4  -6 163.393 8.72765  18
   9   4  -6 157.396 8.42689   8
   9   4  -6 155.262 8.54573   9
   8   4  -6 1.68888 0.35867   8
   7   4  -6 53.1275 2.96070   8
   6   4  -6 2.64184 0.40837   8
  -5  -4   6 10.4914 0.88251   8
  -4  -4   6 3.77575 1.36058   3
  -4  -4   6 3.49127 0.97362   5
  -4  -4   6 4.52851 0.48262   8
  -3  -4   6 1.46103 0.74784   2
  -3  -4   6 0.73178 0.37001   9
  -3  -4   6 1.33938 0.83123   5
  -3  -4   6 1.37957 1.07104   3
  -3  -4   6 1.19742 0.32991  13
  -3  -4   6 1.11340 0.32995   8
  -2  -4   6 577.603 32.3300   9
  -2  -4   6 649.649 33.3621   5
  -2  -4   6 586.006 32.3874  13
  -2  -4   6 629.824 33.1643   3
  -2  -4   6 656.272 32.8308   2
  -2  -4   6 575.520 32.2652   8
  -1  -4   6 110.080 6.82150   5
  -1  -4   6 104.439 5.83190   9
  -1  -4   6 119.189 6.30148   2
  -1  -4   6 98.0728 5.75133   8
  -1  -4   6 115.561 6.54865   3
  -1  -4   6 105.275 5.91254  13
   0  -4   6 30.9381 1.76434  10
   0  -4   6 31.1883 1.87688  13
   0  -4   6 28.9915 1.75178   9
   0  -4   6 29.6409 2.12361   2
   0  -4   6 31.7150 2.40451   3
   0  -4   6 27.9981 1.63788   8
   0  -4   6 33.0077 2.78628   5
   1  -4   6 432.035 23.5236   4
   1  -4   6 417.650 22.2183  12
   1  -4   6 424.319 22.1433  10
   1  -4   6 430.245 22.2685  13
   1  -4   6 436.863 23.2296   5
   1  -4   6 437.891 22.6317   3
   1  -4   6 411.573 22.4201   2
   1  -4   6 405.276 22.2761  11
   1  -4   6 373.135 22.1133   9
   2  -4   6 165.457 8.83977  10
   2  -4   6 167.010 9.03775  11
   2  -4   6 164.519 9.84837   5
   2  -4   6 163.599 8.95291  12
   2  -4   6 164.516 9.13622   3
   2  -4   6 174.869 9.16441  18
   2  -4   6 164.708 8.97369  13
   2  -4   6 167.084 8.99315   2
   2  -4   6 167.431 10.4076   4
   2  -4   6 157.225 8.78548   9
   3  -4   6 54.0709 4.70144   4
   3  -4   6 55.8942 3.33221  11
   3  -4   6 55.0016 3.18962  13
   3  -4   6 60.2883 3.24366  12
   3  -4   6 58.5012 3.46489  18
   3  -4   6 49.8111 3.97437   5
   3  -4   6 53.0123 3.04341  10
   4  -4   6 69.3341 5.77637   4
   4  -4   6 79.7013 4.56427  11
   4  -4   6 83.0553 4.67752  18
   4  -4   6 84.8670 4.46574  12
   4  -4   6 80.2752 4.24005  10
   4  -4   6 70.9235 4.39217  13
   5  -4   6 65.0852 3.75982  11
   5  -4   6 64.3419 3.64906  12
   5  -4   6 60.6465 3.40998  10
   5  -4   6 66.0629 3.84385  18
   6  -4   6 23.9046 1.84541  18
   6  -4   6 23.3824 1.61131  12
   6  -4   6 23.0111 1.78400  11
   7  -4   6 6.92998 0.68149  12
   7  -4   6 8.65868 1.08701  18
   7  -4   6 7.31498 0.87564  11
   8  -4   6 1.53729 0.46253  18
   8  -4   6 2.31790 0.47637  11
  10   3  -6 1.19556 0.46147  18
  10   3  -6 0.86629 0.38339   9
  10   3  -6 0.95014 0.33242  10
   9   3  -6 25.8966 1.46307   8
   9   3  -6 25.6775 1.81643  18
   9   3  -6 28.8227 1.71525   9
   8   3  -6 9.47386 0.72368   8
   8   3  -6 11.3352 1.06291   9
   7   3  -6 68.2088 3.61216   8
   7   3  -6 63.6236 3.75213   9
   6   3  -6 87.6950 4.74709   8
   4   3  -6 41.9732 2.91856   7
  -4  -3   6 50.3738 3.32022   5
   3   3  -6 110.331 6.65686   7
  -3  -3   6 121.859 7.33422   3
  -3  -3   6 112.703 6.81793   2
  -3  -3   6 129.057 7.20141   5
  -2  -3   6 347.327 19.4877   3
  -2  -3   6 360.427 19.5397   5
  -2  -3   6 351.053 19.1235   2
  -1  -3   6 114.157 6.32547   2
  -1  -3   6 106.436 6.72720   5
  -1  -3   6 109.771 6.62966   3
   0  -3   6 23.3837 1.76692   2
   0  -3   6 22.2178 2.14636   5
   0  -3   6 23.7459 2.02607   3
   0  -3   6 22.2033 2.24942   4
   1  -3   6 0.36583 0.44524   2
   1  -3   6 -0.1190 0.68604   5
   1  -3   6 -0.5112 0.71904   3
   1  -3   6 0.96116 0.71652   4
   2  -3   6 37.1411 2.22956   9
   2  -3   6 44.2253 3.40962   4
   2  -3   6 38.3101 2.35084  13
   2  -3   6 42.4487 2.54816   2
   2  -3   6 39.4261 2.32607  12
   2  -3   6 40.9885 3.01143   5
   2  -3   6 42.0048 2.56253  18
   2  -3   6 42.2304 2.81768   3
   2  -3   6 38.3457 2.24391  10
   3  -3   6 19.8395 1.31747   2
   3  -3   6 16.8550 1.03711   9
   3  -3   6 17.4738 1.54661   3
   3  -3   6 17.8520 1.11326  10
   3  -3   6 18.5646 1.50031  18
   3  -3   6 17.8861 1.21281  12
   3  -3   6 16.0910 1.20126  13
   3  -3   6 17.2864 1.75437   5
   3  -3   6 18.0565 2.18227   4
   3  -3   6 17.0374 1.33230  11
   4  -3   6 48.2018 3.03480  13
   4  -3   6 55.5727 3.24768  18
   4  -3   6 55.3353 3.08425  12
   4  -3   6 53.4924 3.18318  11
   4  -3   6 53.6875 4.33603   4
   4  -3   6 54.0357 2.94189  10
   5  -3   6 2.29515 1.51946   4
   5  -3   6 3.80290 0.58361  11
   5  -3   6 3.94555 0.41040  10
   5  -3   6 3.33097 0.78016  18
   5  -3   6 4.16136 0.61161  12
   6  -3   6 185.262 10.0705  10
   6  -3   6 195.370 10.2686  12
   6  -3   6 186.313 10.3565  11
   6  -3   6 192.492 10.4649  18
   7  -3   6 110.858 6.31171  18
   7  -3   6 113.559 6.24781  11
   7  -3   6 109.491 6.09425  12
   8  -3   6 0.04487 0.59086  11
   8  -3   6 0.15794 0.26705  12
   8  -3   6 0.54330 0.47761  18
   9  -3   6 27.2856 1.59058  18
   9  -3   6 22.3046 1.54545  11
  10   2  -6 0.12122 0.28181  10
  10   2  -6 0.54957 0.28120   9
  10   2  -6 0.27189 0.41981  18
   9   2  -6 63.9656 3.47545   9
   9   2  -6 59.9384 3.68559  18
   9   2  -6 62.6654 3.50091  10
   8   2  -6 151.706 8.49049  18
   8   2  -6 153.495 8.27696  10
   8   2  -6 153.624 8.26752   9
   8   2  -6 153.143 8.12608   8
   7   2  -6 67.0045 3.74784   9
   7   2  -6 65.8964 3.60314   8
   6   2  -6 4.95066 1.07987   2
   6   2  -6 2.71701 1.66779   3
   6   2  -6 4.14989 0.95651   7
   6   2  -6 2.86862 0.36305   8
   6   2  -6 3.80037 0.53465   9
   5   2  -6 100.992 5.53979   8
   5   2  -6 99.1180 6.96216   3
   5   2  -6 103.989 6.14008   2
   5   2  -6 108.867 6.13187   7
   4   2  -6 140.334 7.94579   7
  -4  -2   6 140.893 8.15531   5
   3   2  -6 159.379 8.99358   7
  -3  -2   6 164.213 9.30510   5
   2   2  -6 0.90331 0.61650   1
  -2  -2   6 2.16038 0.61436   2
  -2  -2   6 1.99402 0.65723   5
  -2  -2   6 2.01916 0.92993   3
  -2  -2   6 1.74542 0.65896   1
  -1  -2   6 337.772 18.7404   5
  -1  -2   6 364.429 18.7427   3
  -1  -2   6 303.081 18.5144   1
  -1  -2   6 359.853 18.4267   2
   0  -2   6 365.358 19.9498   5
   0  -2   6 360.263 19.5730   2
   0  -2   6 372.014 19.8658   3
   0  -2   6 359.209 20.0073   4
   1  -2   6 5.67220 0.99351   3
   1  -2   6 6.68079 0.79807   2
   1  -2   6 4.98031 0.97576   5
   1  -2   6 4.34552 1.09819   4
   2  -2   6 1.07928 0.43224   2
   2  -2   6 0.22222 0.63701   3
   2  -2   6 0.13745 0.75600   4
   2  -2   6 -0.3273 0.58517   5
   3  -2   6 172.699 9.35782   3
   3  -2   6 159.926 8.90539  12
   3  -2   6 169.646 9.10722   2
   3  -2   6 159.555 8.83865   9
   3  -2   6 164.711 9.52837   5
   3  -2   6 171.542 10.0193   4
   4  -2   6 1.22969 0.54568  18
   4  -2   6 1.80955 0.46985  11
   4  -2   6 1.69609 0.51137   2
   4  -2   6 1.21507 0.31370  13
   4  -2   6 1.56177 0.37582  12
   4  -2   6 1.58066 0.26931   9
   4  -2   6 1.56624 0.67295   3
   4  -2   6 4.57248 1.36695   4
   4  -2   6 1.71315 0.29320  10
   5  -2   6 80.3974 4.37464  10
   5  -2   6 84.5945 4.49344  12
   5  -2   6 81.1366 4.30837   9
   5  -2   6 79.8708 4.48694   2
   5  -2   6 78.1174 4.68267   3
   5  -2   6 77.0555 5.76147   4
   5  -2   6 80.6918 4.67288  18
   5  -2   6 80.9777 4.56591  11
   6  -2   6 7.81703 1.71479   4
   6  -2   6 8.34198 1.00384  11
   6  -2   6 7.45178 0.73304  12
   6  -2   6 7.74144 0.62791  10
   6  -2   6 9.25115 1.13664  18
   7  -2   6 2.16523 0.64238  11
   7  -2   6 2.02310 0.59263  18
   7  -2   6 1.64212 0.33364  10
   7  -2   6 2.35496 0.42056  12
   8  -2   6 41.1026 2.60983  18
   8  -2   6 38.3401 2.33010  12
   8  -2   6 40.3778 2.48756  11
   8  -2   6 40.7786 2.17600  10
   9  -2   6 23.3911 1.51146  11
   9  -2   6 20.8611 1.47084  18
  10   1  -6 103.683 5.75977  18
   9   1  -6 44.0613 2.49364   9
   9   1  -6 45.6301 2.86755  18
   9   1  -6 43.9848 2.52384  10
   8   1  -6 0.12043 0.48559  18
   8   1  -6 -0.3709 0.29115  10
   8   1  -6 0.57071 0.38672   9
   7   1  -6 139.712 7.39973  10
   7   1  -6 126.933 7.99740   7
   7   1  -6 140.764 7.27553   8
   7   1  -6 137.071 7.39987   9
   6   1  -6 106.290 5.74850   9
   6   1  -6 113.483 5.64905   8
   6   1  -6 106.704 6.35052   7
   6   1  -6 106.945 6.26280   2
   6   1  -6 99.2181 5.73183  10
   6   1  -6 97.3721 7.14363   3
   5   1  -6 63.2972 3.87652   7
   5   1  -6 56.6043 3.29387  17
   5   1  -6 58.1919 3.20007   8
   5   1  -6 58.0454 3.29116   9
   5   1  -6 58.3784 4.62691   3
   5   1  -6 62.1851 3.80153   2
   4   1  -6 5.34938 1.42079   3
   4   1  -6 2.82771 0.74296   2
   4   1  -6 4.75817 0.83405   7
   3   1  -6 156.246 8.99852   3
   3   1  -6 151.530 8.38545   7
   3   1  -6 142.134 8.34414   2
   2   1  -6 49.6126 3.39015   3
   2   1  -6 43.7011 2.79036   2
   2   1  -6 43.7920 2.96286   1
   2   1  -6 42.3777 3.03929   1
  -2  -1   6 41.3917 3.03332   1
  -2  -1   6 44.9666 2.79635   2
  -2  -1   6 43.4727 3.19853   3
   1   1  -6 38.0565 2.61570   1
   1   1  -6 36.5075 2.40005   2
  -1  -1   6 36.9778 2.37814   2
  -1  -1   6 33.2950 2.57670   1
  -1  -1   6 38.4044 2.55944   1
  -1  -1   6 38.8300 2.75342   3
   0   1  -6 72.4962 4.68454   1
   0  -1   6 80.0492 4.74369   4
   0  -1   6 73.1982 4.58098   1
   0  -1   6 79.2579 4.46689   2
   0  -1   6 83.1189 4.81256   3
   0  -1   6 74.3512 4.69181   1
   1  -1   6 2130.47 110.796   3
   1  -1   6 1927.41 110.228   1
   1  -1   6 2164.00 110.492   4
   1  -1   6 2117.20 110.298   2
   2  -1   6 424.016 22.5853   4
   2  -1   6 411.919 22.3059   3
   2  -1   6 398.476 22.0208   2
   3  -1   6 145.587 8.11453   3
   3  -1   6 136.907 8.09002   5
   3  -1   6 141.944 8.47774   4
   3  -1   6 140.836 7.82960   2
   4  -1   6 194.457 11.3641   5
   4  -1   6 205.739 10.8671  10
   4  -1   6 207.544 11.4415   3
   4  -1   6 203.343 10.9011  12
   4  -1   6 192.171 10.8448   9
   4  -1   6 219.483 12.0463   4
   4  -1   6 209.032 11.1497   2
   5  -1   6 228.949 12.5299  11
   5  -1   6 228.330 12.4016  10
   5  -1   6 232.154 12.3795   9
   5  -1   6 239.096 12.6748   2
   5  -1   6 230.285 12.6133  18
   5  -1   6 237.647 12.4648  12
   5  -1   6 233.705 13.6837   4
   5  -1   6 236.442 12.9916   3
   6  -1   6 49.4614 2.76430   9
   6  -1   6 54.2501 2.92025  12
   6  -1   6 51.1072 3.09865  18
   6  -1   6 50.1713 3.36259   3
   6  -1   6 48.2975 3.03426   2
   6  -1   6 51.2003 2.97381  11
   6  -1   6 48.9358 2.81199  10
   6  -1   6 50.6844 4.10057   4
   7  -1   6 11.9123 2.05579   4
   7  -1   6 13.5706 1.06419  12
   7  -1   6 11.2158 0.67768   9
   7  -1   6 13.7208 1.25090  11
   7  -1   6 13.5726 0.90148  10
   7  -1   6 12.7961 1.30997  18
   8  -1   6 268.288 14.0645  11
   8  -1   6 255.827 14.1303  18
   8  -1   6 255.014 13.9539  12
   8  -1   6 264.570 13.8547  10
   9  -1   6 14.1154 1.25941  18
   9  -1   6 15.8687 0.91845  10
   9  -1   6 14.6819 1.35128  11
  10  -1   6 23.9651 1.54147  11
  10   0  -6 15.1525 0.82821  10
  10   0  -6 10.7886 0.99303  18
   9   0  -6 0.18859 0.70030  18
   9   0  -6 0.26925 0.35679  10
   8   0  -6 45.5025 2.92890  17
   8   0  -6 52.4370 3.19900  18
   8   0  -6 53.0323 2.90211  10
   8   0  -6 53.1127 2.84524   9
   7   0  -6 15.6323 1.18352  17
   7   0  -6 16.8319 1.39237  18
   7   0  -6 13.4173 1.80739   7
   7   0  -6 16.4429 1.12366  10
   7   0  -6 16.3033 1.11205   9
   6   0  -6 15.4721 0.90146   8
   6   0  -6 15.2411 1.55646   7
   6   0  -6 14.5105 1.12082  17
   6   0  -6 15.2907 1.04354   9
   6   0  -6 14.5482 1.52390   2
   6   0  -6 15.3188 1.04312  10
   5   0  -6 28.5998 1.80193  17
   5   0  -6 29.7232 1.74484  10
   5   0  -6 29.3150 1.64735   8
   5   0  -6 31.3308 2.39511   7
   5   0  -6 27.7518 3.06118   3
   5   0  -6 32.1941 2.23245   2
   5   0  -6 29.8782 1.75500   9
   4   0  -6 158.333 8.77710   7
   4   0  -6 139.362 8.23192   8
   4   0  -6 161.393 8.71161   2
   4   0  -6 167.106 9.39167   3
   3   0  -6 5.53924 0.82557   2
   3   0  -6 7.14088 1.35195   3
   3   0  -6 5.18463 0.80205   7
   2   0  -6 451.354 24.8551   1
   2   0  -6 508.065 24.6868   2
  -2   0   6 421.534 24.9030   1
   1   0  -6 685.084 38.6994   1
   1   0  -6 727.490 38.7005   1
   1   0  -6 781.151 39.0032   3
   1   0  -6 733.296 38.4944   2
  -1   0   6 671.611 38.7239   1
  -1   0   6 753.516 38.8138   3
  -1   0   6 731.376 38.6593   1
  -1   0   6 709.654 38.4798   2
   0   0  -6 176.998 9.93429   1
   0   0  -6 183.442 10.1923   3
   0   0  -6 167.000 9.88608   1
   0   0  -6 174.489 9.73325   2
   0   0   6 188.126 10.0450   3
   0   0   6 166.321 9.93285   1
   0   0   6 180.979 9.69317   2
   0   0   6 177.838 9.85317   1
   0   0   6 180.108 9.81934   4
  -1   0  -6 22.0560 2.09000   3
  -1   0  -6 20.3293 1.80199   1
  -1   0  -6 17.8642 1.57882   2
  -1   0  -6 22.5617 1.80287   1
   1   0   6 23.1355 1.89328   3
   1   0   6 22.8629 1.58690   2
   1   0   6 22.1071 1.72648   1
   1   0   6 22.7821 1.75501   4
   1   0   6 19.7446 1.85115   1
  -2   0  -6 787.191 46.0372   1
   2   0   6 903.848 45.8136   2
   2   0   6 914.619 46.1173   3
   2   0   6 812.808 45.9554   1
   2   0   6 895.010 46.1699   4
   3   0   6 109.705 6.42276   3
   3   0   6 106.490 6.10719   2
   3   0   6 109.112 6.59091   4
   4   0   6 2.73600 0.70642   5
   4   0   6 4.83865 1.12204   4
   4   0   6 3.81138 0.96748   3
   5   0   6 67.8034 3.69808   8
   5   0   6 73.1913 4.87795   4
   5   0   6 76.2157 4.58078   3
   5   0   6 68.8901 3.79910  10
   5   0   6 64.8553 3.87939  11
   6   0   6 111.145 6.72007   3
   6   0   6 111.483 5.91644  10
   6   0   6 116.125 5.95678  12
   6   0   6 105.771 6.02143  11
   6   0   6 109.622 7.18398   4
   6   0   6 101.989 6.08516  18
   7   0   6 16.5313 2.22403   4
   7   0   6 16.0858 1.42999  18
   7   0   6 16.7484 1.25939  11
   7   0   6 17.9006 1.22057  12
   7   0   6 17.2535 1.07166   9
   7   0   6 17.9682 1.15511  10
   7   0   6 17.0578 1.40998   2
   8   0   6 73.6439 4.22214  11
   8   0   6 74.0874 4.06098  10
   8   0   6 77.2026 3.96262   9
   8   0   6 72.2014 4.29476  18
   8   0   6 70.7925 4.11925  12
   9   0   6 382.600 19.3036  10
   9   0   6 318.874 19.4889  18
   9   0   6 391.384 19.5134  11
  10   0   6 5.69548 0.48827  10
  10   0   6 5.76485 0.73510  11
  10  -1  -6 0.75553 0.30807  18
   9  -1  -6 0.22860 0.28050  10
   9  -1  -6 0.37668 0.40144  17
   9  -1  -6 -0.0573 0.48324  18
   8  -1  -6 0.21180 0.48192  17
   8  -1  -6 0.12429 0.33273  10
   8  -1  -6 0.63644 0.75539  18
   7  -1  -6 5.94241 0.65526  10
   7  -1  -6 6.34197 0.97177  18
   7  -1  -6 6.07757 0.71735  17
   7  -1  -6 6.59013 0.57832   9
   6  -1  -6 22.8350 2.22102   7
   6  -1  -6 17.9550 1.83491   2
   6  -1  -6 24.4798 1.70978  18
   6  -1  -6 23.5414 1.55776  17
   6  -1  -6 24.1622 1.41995  10
   6  -1  -6 23.4800 1.39808   9
   6  -1  -6 20.4567 2.54235   3
   5  -1  -6 21.9954 1.91105   7
   5  -1  -6 21.3684 1.35246  10
   5  -1  -6 20.7109 1.23501   8
   5  -1  -6 21.3303 2.55805   3
   5  -1  -6 25.7818 1.49391  17
   5  -1  -6 22.6214 1.38215   9
   5  -1  -6 23.7141 1.83871   2
   4  -1  -6 348.731 18.1789   3
   4  -1  -6 341.419 17.6519   7
   4  -1  -6 338.494 17.4403   2
   4  -1  -6 304.430 17.0082   8
   4  -1  -6 313.728 17.0673  10
   4  -1  -6 314.155 17.1362  17
   4  -1  -6 302.514 17.0726   9
   3  -1  -6 14.9933 1.94012   3
   3  -1  -6 10.4728 1.23436   7
   3  -1  -6 11.8984 1.14652   2
   2  -1  -6 38.1249 2.67530   7
   2  -1  -6 44.4969 2.64812   2
   2  -1  -6 37.0895 2.80089   1
   2  -1  -6 43.3326 2.86825   6
   2  -1  -6 48.2832 3.27612   3
   1  -1  -6 159.724 8.42807   6
   1  -1  -6 150.987 8.51161   1
   1  -1  -6 165.170 8.87001   3
   1  -1  -6 128.559 8.46214   1
   1  -1  -6 162.838 8.34754   2
  -1   1   6 138.243 8.56885   1
   0  -1  -6 774.163 39.1702   1
   0  -1  -6 728.556 38.9093   6
   0  -1  -6 762.059 38.9473   2
   0  -1  -6 733.922 39.3678   3
   0  -1  -6 718.873 39.1154   1
   0   1   6 724.281 39.2063   1
   0   1   6 746.306 39.0960   1
   0   1   6 682.972 39.1698   3
   0   1   6 722.220 38.9013   2
  -1  -1  -6 3.04940 0.75537   1
  -1  -1  -6 5.32238 0.99589   1
  -1  -1  -6 4.06753 1.13105   3
  -1  -1  -6 4.71245 0.75915   2
  -1  -1  -6 3.82413 0.53833   6
   1   1   6 4.40451 0.75995   1
   1   1   6 2.53186 0.60438   4
   1   1   6 4.04690 0.64172   2
   1   1   6 3.38443 0.81373   1
   1   1   6 2.98937 0.83802   3
  -2  -1  -6 18.2118 1.67302   1
  -2  -1  -6 16.5578 1.45360   2
  -2  -1  -6 17.3260 2.06710   3
  -2  -1  -6 14.9034 1.67996   1
   2   1   6 15.2886 1.68318   3
   2   1   6 16.9026 1.48471   4
   2   1   6 14.2098 1.55858   1
  -3  -1  -6 139.611 9.09902   1
   3   1   6 177.867 9.23261   3
   3   1   6 147.861 9.09366   1
   3   1   6 165.000 8.88451   2
   3   1   6 168.403 9.16910   4
   4   1   6 3.05538 0.96734   3
   4   1   6 2.79950 0.69563   2
   4   1   6 2.62776 0.74286   4
   5   1   6 15.2141 1.76873   3
   5   1   6 12.7559 0.82359   8
   5   1   6 16.2249 1.49419   2
   5   1   6 14.1529 1.59216   4
   6   1   6 40.0985 3.30530   4
   6   1   6 43.7706 2.74442   2
   6   1   6 39.7166 2.15513   8
   6   1   6 37.3673 2.35104  11
   6   1   6 39.2120 3.19450   3
   6   1   6 38.9465 2.27366  10
   6   1   6 40.3196 2.26999   9
   7   1   6 288.043 16.0298  10
   7   1   6 307.582 16.0511  12
   7   1   6 304.184 16.4751   2
   7   1   6 292.775 16.9249   3
   7   1   6 317.187 16.0251   9
   7   1   6 302.476 15.8905   8
   7   1   6 306.820 16.1350  11
   7   1   6 289.139 17.3128   4
   8   1   6 122.791 8.61870   4
   8   1   6 136.386 7.16522  12
   8   1   6 135.002 7.29029  11
   8   1   6 130.807 7.14027  10
   9   1   6 80.1119 4.50365   9
   9   1   6 85.0464 4.78679  11
   9   1   6 86.9243 4.60831  10
  10   1   6 37.1380 2.24143  11
  10   1   6 35.5724 2.07508  10
  11   1   6 41.8453 2.37508  11
  11   1   6 40.2757 2.21250  10
   9  -2  -6 7.56843 0.61379  17
   9  -2  -6 7.02081 0.79789  18
   8  -2  -6 0.56983 0.27209  10
   8  -2  -6 0.57242 0.51649  18
   8  -2  -6 -0.4617 0.48937  17
   7  -2  -6 225.106 12.9368  16
   7  -2  -6 249.327 13.2616  18
   7  -2  -6 242.645 12.8958  10
   7  -2  -6 253.536 13.0503  17
   6  -2  -6 40.3366 2.56454  18
   6  -2  -6 36.1399 2.11107  10
   6  -2  -6 34.3379 2.19665  16
   6  -2  -6 37.9607 2.29934  17
   6  -2  -6 34.6583 2.93923   7
   6  -2  -6 37.9624 2.07888   9
   5  -2  -6 193.442 10.5819   2
   5  -2  -6 203.317 10.2981  10
   5  -2  -6 204.115 10.4291  17
   5  -2  -6 199.398 11.0056   7
   5  -2  -6 183.830 10.3306  16
   5  -2  -6 203.323 10.5926  18
   5  -2  -6 184.157 10.2697   9
   5  -2  -6 171.446 11.2396   3
   4  -2  -6 484.311 25.0098   7
   4  -2  -6 467.780 24.3689  10
   4  -2  -6 467.168 24.5438  15
   4  -2  -6 442.916 24.5663  18
   4  -2  -6 454.593 25.3858   3
   4  -2  -6 432.713 24.3985  16
   4  -2  -6 467.740 24.3660   9
   4  -2  -6 457.389 24.4697  17
   4  -2  -6 445.807 24.2849   8
   4  -2  -6 492.429 24.6996   2
   3  -2  -6 1892.35 101.470   3
   3  -2  -6 1939.22 101.264   6
   3  -2  -6 1926.45 100.839   2
   3  -2  -6 1876.55 101.045   7
   2  -2  -6 -0.0432 0.42209   2
   2  -2  -6 0.24369 0.47285   7
   2  -2  -6 0.83586 0.87417   3
   2  -2  -6 0.85788 0.52278   6
   1  -2  -6 57.6867 3.39152   2
   1  -2  -6 51.9527 3.52348   1
   1  -2  -6 60.7337 3.99491   3
   1  -2  -6 58.1156 3.59110   6
   0  -2  -6 113.453 6.23675   3
   0  -2  -6 88.9487 5.79350   1
   0  -2  -6 105.308 5.71985   6
   0  -2  -6 103.551 5.62027   2
   0  -2  -6 99.5726 5.80502   1
   0   2   6 91.7233 5.73799   1
   0   2   6 92.0786 5.89679   1
  -1  -2  -6 1.59876 0.70841   1
  -1  -2  -6 2.34678 0.64987   2
   1   2   6 2.25861 0.56184   2
   1   2   6 2.91056 0.85564   3
   1   2   6 2.60872 0.66671   1
  -2  -2  -6 -0.4566 0.48313   1
  -2  -2  -6 -0.4225 0.81527   1
  -2  -2  -6 0.09011 0.40749   6
  -2  -2  -6 -0.3766 0.56908   2
  -2  -2  -6 0.60712 1.03088   3
   2   2   6 0.66414 0.64406   1
   2   2   6 -0.0010 0.69502   3
   2   2   6 -0.1176 0.62164   1
   2   2   6 0.39014 0.53259   2
   2   2   6 -0.2237 0.44809   4
  -3  -2  -6 4.05991 0.69599   6
  -3  -2  -6 5.52001 1.39016   3
  -3  -2  -6 2.77458 0.82259   1
  -3  -2  -6 3.70428 0.82499   2
   3   2   6 3.51888 0.83799   1
   3   2   6 3.95849 1.00526   3
   3   2   6 4.65301 0.80665   2
   3   2   6 5.19761 0.89393   4
   3   2   6 3.27386 0.88894   1
  -4  -2  -6 102.990 6.52282   6
   4   2   6 121.766 6.54682   2
   4   2   6 115.248 6.93589   3
   4   2   6 117.259 6.83941   4
   5   2   6 62.1354 3.92707   2
   5   2   6 63.9618 4.36753   4
   5   2   6 65.3904 4.36928   3
   6   2   6 73.6682 4.01062   8
   6   2   6 78.2172 5.10773   4
   6   2   6 72.7542 4.10998  10
   6   2   6 80.0961 4.61586   2
   6   2   6 74.6847 5.11427   3
   6   2   6 73.0241 4.11657   9
   6   2   6 73.6488 4.15525  11
   7   2   6 564.765 30.5086   2
   7   2   6 569.225 29.9140   8
   7   2   6 575.036 30.0278  10
   7   2   6 547.605 30.0184   9
   7   2   6 561.737 30.0993  11
   7   2   6 587.644 31.3249   4
   7   2   6 564.551 31.0738   3
   8   2   6 719.679 38.9187  12
   8   2   6 730.330 39.0305  11
   8   2   6 764.331 38.9227   9
   8   2   6 756.467 38.9384  10
   8   2   6 709.887 38.7783   8
   9   2   6 89.5855 4.92182   9
   9   2   6 93.5199 5.11400  11
   9   2   6 87.9182 4.97102  10
  10   2   6 13.7862 0.85821   9
  10   2   6 13.6092 1.01301  10
  10   2   6 12.8118 1.24095  11
  11   2   6 51.4625 2.80214  10
  11   2   6 50.3985 2.96000  11
   9  -3  -6 14.9376 0.98195  17
   8  -3  -6 2.59408 0.36684  16
   8  -3  -6 2.42486 0.57416  17
   8  -3  -6 3.93937 0.73839  18
   7  -3  -6 14.0580 1.41617  18
   7  -3  -6 11.9554 1.07612  16
   7  -3  -6 12.1880 0.84592  10
   7  -3  -6 13.7259 1.16597  17
   6  -3  -6 210.936 11.4204  18
   6  -3  -6 202.705 11.1208  16
   6  -3  -6 211.329 11.0263  10
   6  -3  -6 204.532 11.2139  17
   5  -3  -6 1194.90 59.5755  15
   5  -3  -6 1063.28 59.4425   2
   5  -3  -6 1145.91 59.6379  18
   5  -3  -6 1136.40 59.3456   9
   5  -3  -6 1130.88 59.3949  16
   5  -3  -6 1101.82 60.0599   7
   5  -3  -6 1144.98 59.4780  17
   5  -3  -6 1034.39 59.8597   3
   5  -3  -6 1170.34 59.5164  10
   4  -3  -6 150.896 9.33617   3
   4  -3  -6 155.183 8.52713  16
   4  -3  -6 158.011 8.43745   9
   4  -3  -6 163.790 9.15744   7
   4  -3  -6 158.673 8.67291   2
   4  -3  -6 162.733 8.45763  10
   4  -3  -6 145.118 8.69665  18
   4  -3  -6 160.678 8.69513  15
   4  -3  -6 172.623 8.62032  17
   3  -3  -6 46.7243 2.87337  15
   3  -3  -6 49.8488 3.53721   6
   3  -3  -6 51.4337 2.93916   2
   3  -3  -6 48.9100 3.75355   3
   3  -3  -6 45.9108 2.72677  16
   3  -3  -6 49.3131 2.78827  17
   3  -3  -6 51.1549 3.29378   7
   3  -3  -6 48.7986 2.65774  10
   3  -3  -6 46.7472 2.64617   9
   2  -3  -6 79.2356 5.05442   6
   2  -3  -6 80.6049 4.65495   2
   2  -3  -6 85.3465 5.37779   3
   2  -3  -6 81.4330 4.86444   7
   1  -3  -6 427.347 23.0333   3
   1  -3  -6 420.100 22.6569   6
   1  -3  -6 419.974 22.4872   7
   1  -3  -6 406.062 22.3495   2
   0  -3  -6 1.11409 0.50343   2
   0  -3  -6 1.22776 0.64510   6
   0  -3  -6 1.32805 1.02914   3
  -1  -3  -6 253.750 13.6033   3
  -1  -3  -6 250.996 12.8971   2
  -1  -3  -6 228.155 13.0813   1
  -1  -3  -6 251.718 13.0225   6
   1   3   6 196.614 13.1218   1
  -2  -3  -6 25.3813 2.54604   3
  -2  -3  -6 23.5886 1.84940   6
  -2  -3  -6 22.3103 2.05566   1
  -2  -3  -6 19.4079 1.88158   1
  -2  -3  -6 25.0674 1.85783   2
   2   3   6 22.9418 1.66927   4
   2   3   6 21.5998 2.05403   1
  -3  -3  -6 84.6786 5.45588   1
  -3  -3  -6 97.5553 5.99089   3
  -3  -3  -6 88.1808 5.19080   2
  -3  -3  -6 90.0524 5.21296   6
  -3  -3  -6 74.8889 5.29355   1
   3   3   6 86.8711 5.22586   4
   3   3   6 84.2107 5.40662   1
   3   3   6 86.9942 5.47735   3
   3   3   6 87.0504 5.07877   2
  -4  -3  -6 -0.4720 0.50461   6
   4   3   6 0.16725 0.58388   2
   4   3   6 1.16840 0.86384   3
   4   3   6 0.81521 0.68177   4
   5   3   6 57.3376 3.94135   4
   5   3   6 52.8553 3.93398   3
   5   3   6 53.0278 3.49486   2
   6   3   6 184.138 10.9635   3
   6   3   6 194.461 11.0071   4
   6   3   6 184.396 9.78835   8
   6   3   6 168.919 9.87333   9
   6   3   6 193.019 10.4159   2
   7   3   6 286.521 17.1987   3
   7   3   6 303.498 16.0752   9
   7   3   6 306.075 15.9638   8
   7   3   6 321.367 17.4259   4
   7   3   6 288.972 16.6006   2
   8   3   6 3.42315 0.54067  10
   8   3   6 4.21429 0.54325  11
   8   3   6 2.66588 1.41502   4
   8   3   6 2.84013 0.53529   9
   8   3   6 1.91699 1.13104   2
   8   3   6 3.54293 0.38699   8
   9   3   6 20.3929 1.13712   8
   9   3   6 19.2697 1.33915  10
   9   3   6 23.1394 1.41013   9
   9   3   6 18.5841 1.29134  12
   9   3   6 21.6422 1.45691  11
  10   3   6 -0.8752 0.44177  10
  10   3   6 -0.3993 0.51534  11
  10   3   6 -0.3563 0.34486   9
  11   3   6 45.4611 2.58200  10
  11   3   6 45.2759 2.47011   9
  11   3   6 48.9523 2.70271  11
   8  -4  -6 55.2000 3.03948  18
   8  -4  -6 49.3459 2.97456  17
   7  -4  -6 1.16669 0.56810  17
   7  -4  -6 0.78459 0.35698  16
   7  -4  -6 0.43430 0.43876  18
   6  -4  -6 201.356 10.9522  16
   6  -4  -6 198.291 11.1831  18
   6  -4  -6 206.986 11.0290  17
   6  -4  -6 209.256 10.8165  10
   5  -4  -6 58.4689 3.30315  16
   5  -4  -6 61.1017 3.41416  17
   5  -4  -6 52.4119 4.06183   7
   5  -4  -6 55.7757 3.47977  18
   5  -4  -6 59.1601 3.46902  15
   5  -4  -6 57.8511 3.14366  10
   4  -4  -6 3.38265 0.36918  10
   4  -4  -6 4.71628 0.63696  17
   4  -4  -6 6.32280 1.15572   7
   4  -4  -6 3.72286 0.76287  15
   4  -4  -6 3.80881 0.47055  16
   3  -4  -6 4.17447 1.11318   3
   3  -4  -6 4.27252 0.51580  16
   3  -4  -6 4.55634 0.58872   2
   3  -4  -6 4.80834 0.42172  10
   3  -4  -6 4.14213 0.68383  15
   3  -4  -6 4.22968 0.39703   9
   3  -4  -6 5.51015 0.94011  14
   3  -4  -6 5.43736 0.98219   7
   3  -4  -6 5.25572 0.59919  17
   3  -4  -6 4.10662 1.24502   6
   2  -4  -6 5.67446 0.87401   7
   2  -4  -6 5.91029 0.49312   9
   2  -4  -6 6.06248 0.80676  15
   2  -4  -6 6.98081 1.18922   6
   2  -4  -6 5.79219 0.51100  10
   2  -4  -6 5.55062 0.62756  16
   2  -4  -6 6.65007 0.68019  17
   2  -4  -6 6.51615 0.70950   2
   2  -4  -6 8.39926 0.91582  14
   2  -4  -6 5.10661 1.31394   3
   1  -4  -6 266.860 13.6759   2
   1  -4  -6 215.811 14.2941   3
   1  -4  -6 261.926 14.1026   6
   1  -4  -6 266.565 13.8724   7
   0  -4  -6 87.9359 6.01577   3
   0  -4  -6 95.9777 5.26973   2
   0  -4  -6 92.4139 5.58224   6
   0  -4  -6 93.7432 5.34434   7
  -1  -4  -6 31.7543 2.09782   2
  -1  -4  -6 30.0688 2.32639   6
  -1  -4  -6 27.9952 2.81334   3
  -2  -4  -6 376.957 20.5536   3
  -2  -4  -6 363.250 19.9649   6
  -2  -4  -6 357.855 19.7921   2
  -3  -4  -6 1564.59 80.3136   6
  -3  -4  -6 1600.28 80.1983   2
  -3  -4  -6 1496.18 80.8744   3
   3   4   6 1384.64 80.0903   4
  -4  -4  -6 29.7465 3.14914   3
  -4  -4  -6 33.6949 2.58093   6
  -4  -4  -6 31.0539 2.46508   2
   4   4   6 30.5741 2.46788   4
  -5  -4  -6 24.2509 2.24430   6
   5   4   6 22.0999 2.23899   4
   6   4   6 173.487 10.1303   8
   6   4   6 212.804 11.4601   4
   7   4   6 23.3153 2.80533   4
   7   4   6 24.1305 1.42055   8
   8   4   6 -0.0817 0.30903   9
   8   4   6 -0.1431 0.27451   8
   8   4   6 0.38671 1.30221   4
   9   4   6 0.98017 0.38180   9
   9   4   6 1.38557 0.41256  11
   9   4   6 1.21590 0.31964   8
  10   4   6 66.8678 3.89730  10
  10   4   6 73.6392 3.87700   9
  10   4   6 67.7247 3.97343  11
  11   4   6 9.19495 0.95111  11
  11   4   6 8.33685 0.79552  10
   7  -5  -6 13.5681 0.98383  16
   7  -5  -6 15.0891 1.03789  17
   6  -5  -6 39.6955 2.40332  17
   6  -5  -6 37.5765 2.25607  16
   5  -5  -6 1.10178 0.59221  17
   5  -5  -6 0.20968 0.77364  15
   5  -5  -6 0.69624 0.37248  16
   5  -5  -6 1.39563 0.17815  10
   4  -5  -6 131.913 7.19847  15
   4  -5  -6 115.778 7.63651   7
   4  -5  -6 134.836 7.08189  17
   4  -5  -6 131.490 7.01036  16
   4  -5  -6 127.031 6.85439  10
   3  -5  -6 7.54726 1.58685   6
   3  -5  -6 10.4520 1.02878  15
   3  -5  -6 13.0960 1.49365   7
   3  -5  -6 10.3260 0.69827  10
   3  -5  -6 10.7096 0.93525  16
   3  -5  -6 12.5028 1.41275  14
   3  -5  -6 10.4575 0.97983  17
   2  -5  -6 114.371 6.95960   6
   2  -5  -6 110.299 6.09212   2
   2  -5  -6 111.582 6.01675  10
   2  -5  -6 108.538 6.39748   3
   2  -5  -6 106.021 5.97231   9
   2  -5  -6 113.927 6.24569  15
   2  -5  -6 112.909 6.12624  16
   2  -5  -6 119.820 6.37234  14
   2  -5  -6 119.803 6.17775  17
   2  -5  -6 110.247 6.58267   7
   1  -5  -6 0.96735 0.25408  10
   1  -5  -6 0.60440 0.54000  14
   1  -5  -6 0.70190 0.51498   7
   1  -5  -6 0.95158 0.34028  17
   1  -5  -6 1.10859 0.43529   2
   1  -5  -6 0.61742 0.89012   3
   1  -5  -6 1.58664 0.70241   6
   1  -5  -6 0.49039 0.33694  16
   1  -5  -6 0.88303 0.40760  15
   1  -5  -6 0.89948 0.22233   9
   0  -5  -6 69.5719 3.78072  10
   0  -5  -6 66.2694 3.74183   9
   0  -5  -6 69.9097 3.83293  16
   0  -5  -6 71.3447 4.52020   6
   0  -5  -6 66.3174 4.11120   7
   0  -5  -6 67.0057 4.76017   3
   0  -5  -6 74.5616 4.04714   2
  -1  -5  -6 546.210 30.3804   7
  -1  -5  -6 576.512 30.4434   2
  -1  -5  -6 555.971 31.1913   3
  -1  -5  -6 602.000 30.8662   6
  -2  -5  -6 304.750 15.5994   2
  -2  -5  -6 256.250 16.2178   3
  -2  -5  -6 292.765 15.9067   6
  -3  -5  -6 22.5544 2.14752   6
  -3  -5  -6 19.6554 2.56805   3
  -3  -5  -6 21.8942 1.92653   2
  -4  -5  -6 99.5548 6.20998   2
  -4  -5  -6 106.484 6.41233   6
  -4  -5  -6 100.675 6.97027   3
  -5  -5  -6 15.7276 1.02575   8
  -5  -5  -6 16.9547 1.83272   6
   5   5   6 14.8649 1.86960   4
  -6  -5  -6 98.9548 6.40491   6
   6   5   6 95.6585 6.40048   4
  -7  -5  -6 1.26641 1.15703   6
   7   5   6 1.36264 0.34022   8
   7   5   6 0.37958 1.30403   4
   8   5   6 79.6329 5.89574   4
   8   5   6 77.8188 4.25421   8
   9   5   6 28.6169 1.64361   8
   9   5   6 27.9578 1.85562   9
  10   5   6 34.2257 1.87758   8
  10   5   6 32.9670 2.08727   9
  10   5   6 34.3233 2.08001  11
  11   5   6 134.431 7.19617   9
  11   5   6 133.635 7.26493  11
   7  -6  -6 2.28366 0.33678  16
   6  -6  -6 11.9130 1.03321  17
   6  -6  -6 11.2445 0.87081  16
   5  -6  -6 16.9435 1.37775  15
   5  -6  -6 18.4136 1.22112  16
   5  -6  -6 17.4383 1.36132  17
   4  -6  -6 2.14867 0.54716  16
   4  -6  -6 2.04679 0.47219  17
   4  -6  -6 1.97659 0.77351  15
   3  -6  -6 13.3212 1.06369  17
   3  -6  -6 15.0061 1.37412  14
   3  -6  -6 14.4362 1.39416  15
   3  -6  -6 14.1723 0.81909  10
   3  -6  -6 10.5245 1.93096   6
   3  -6  -6 14.5788 1.12332  16
   2  -6  -6 438.117 25.8900   6
   2  -6  -6 479.938 25.0578  16
   2  -6  -6 493.667 25.2752  14
   2  -6  -6 465.309 24.9193  10
   2  -6  -6 469.774 25.0809  17
   2  -6  -6 482.948 25.1776  15
   1  -6  -6 33.3309 2.05831  15
   1  -6  -6 30.0705 1.68078   9
   1  -6  -6 31.8457 1.73891   2
   1  -6  -6 32.8750 1.77693  10
   1  -6  -6 32.0489 2.64914   6
   1  -6  -6 29.7766 1.91114   3
   1  -6  -6 31.7222 1.92290  16
   1  -6  -6 30.3421 1.89836  17
   1  -6  -6 32.6922 2.08997  14
   0  -6  -6 88.6075 4.76682  16
   0  -6  -6 83.4294 4.82786  15
   0  -6  -6 89.0065 5.57755   6
   0  -6  -6 85.6584 4.67225  10
   0  -6  -6 86.9875 4.91993  14
   0  -6  -6 88.4638 5.36762   3
   0  -6  -6 85.3156 4.86159   2
   0  -6  -6 85.0141 4.63264   9
  -1  -6  -6 404.692 22.1929  10
  -1  -6  -6 433.324 23.1532   3
  -1  -6  -6 429.660 23.0400   6
  -1  -6  -6 405.951 22.1608   9
  -1  -6  -6 427.855 22.4716   2
  -1  -6  -6 433.189 22.2460  16
  -1  -6  -6 401.634 22.3275  14
  -1  -6  -6 418.543 22.3146  15
  -2  -6  -6 159.573 9.45860   3
  -2  -6  -6 145.535 8.34620  15
  -2  -6  -6 158.007 9.17456   6
  -2  -6  -6 152.209 8.28534  10
  -2  -6  -6 152.425 8.15186   8
  -2  -6  -6 161.897 8.69585   2
  -2  -6  -6 151.667 8.25620   9
  -3  -6  -6 2.68152 0.91230   6
  -3  -6  -6 0.51927 0.91769   2
  -3  -6  -6 2.10840 1.35816   3
  -3  -6  -6 1.35699 0.41867  15
  -3  -6  -6 2.03892 0.45688  10
  -3  -6  -6 1.75190 0.44058   9
  -3  -6  -6 1.56108 0.29367   8
  -4  -6  -6 60.0532 4.21567   6
  -4  -6  -6 57.9956 3.85930   2
  -4  -6  -6 52.4809 3.21415  15
  -4  -6  -6 53.8966 3.17560   9
  -4  -6  -6 54.5691 4.67486   3
  -4  -6  -6 55.1393 3.03033   8
  -5  -6  -6 174.242 9.46257   8
  -5  -6  -6 175.104 10.3099   2
  -5  -6  -6 199.434 10.7695   6
  -5  -6  -6 158.963 11.0766   3
  -6  -6  -6 1.03130 0.42662   8
  -6  -6  -6 1.97076 1.24137   6
   6   6   6 0.51588 1.04930   4
  -7  -6  -6 54.0116 3.10725   8
  -7  -6  -6 54.9543 4.44006   6
   7   6   6 53.4428 4.26876   4
  -8  -6  -6 0.13698 1.50461   6
   8   6   6 1.65746 0.38253   8
   9   6   6 81.7884 4.44201   8
  10   6   6 61.1431 3.29423   8
  10   6   6 60.6169 3.47547   9
  10   6   6 60.5227 3.45262  11
  11   6   6 17.1775 1.04129   9
  11   6   6 13.8477 1.08084  11
   6  -7  -6 0.71347 0.30365  17
   6  -7  -6 0.54410 0.27593  16
   5  -7  -6 104.619 5.87003  15
   5  -7  -6 111.839 5.76592  16
   5  -7  -6 100.087 5.77247  17
   4  -7  -6 0.54786 0.50252  15
   4  -7  -6 -0.1621 0.49360  17
   4  -7  -6 0.53151 0.35454  16
   3  -7  -6 64.1421 3.91807  15
   3  -7  -6 68.0917 4.05340  14
   3  -7  -6 65.0586 3.77863  17
   3  -7  -6 67.9596 3.75809  16
   2  -7  -6 16.1826 1.28988  15
   2  -7  -6 16.1991 0.91100  10
   2  -7  -6 16.5292 1.14652  16
   2  -7  -6 17.8517 1.64122  14
   2  -7  -6 14.8789 1.19222  17
   2  -7  -6 16.3529 2.02051   6
   1  -7  -6 69.7095 3.94763  14
   1  -7  -6 55.5524 4.55051   6
   1  -7  -6 67.4279 3.67420  16
   1  -7  -6 64.6361 3.80110  15
   1  -7  -6 63.1854 3.49115  10
   0  -7  -6 99.9597 6.42335   6
   0  -7  -6 100.953 5.57196  16
   0  -7  -6 103.110 5.73554  14
   0  -7  -6 100.941 5.64765  15
  -1  -7  -6 25.3038 1.75676   2
  -1  -7  -6 25.0129 1.53331  10
  -1  -7  -6 26.0271 1.75300  15
  -1  -7  -6 25.7674 1.81650  14
  -1  -7  -6 21.5225 2.20010   3
  -1  -7  -6 26.5783 1.46985   9
  -1  -7  -6 25.3778 2.54320   6
  -1  -7  -6 25.5107 1.59147  16
  -2  -7  -6 94.9206 6.11264   6
  -2  -7  -6 84.9131 5.14929  14
  -2  -7  -6 98.7413 5.11659  16
  -2  -7  -6 92.9219 5.43437   2
  -2  -7  -6 93.3718 5.20780  15
  -2  -7  -6 88.9812 6.07365   3
  -2  -7  -6 96.5940 5.07895  10
  -2  -7  -6 89.4616 5.02072   9
  -3  -7  -6 4.63995 1.76052   3
  -3  -7  -6 6.16383 0.74789   9
  -3  -7  -6 8.34131 0.91839  15
  -3  -7  -6 6.91004 0.72185  10
  -3  -7  -6 7.18800 0.49406   8
  -3  -7  -6 5.32123 1.10983   2
  -3  -7  -6 7.37033 1.59339   6
  -4  -7  -6 127.650 7.79819   6
  -4  -7  -6 121.869 6.42302   8
  -4  -7  -6 108.850 7.93475   3
  -4  -7  -6 121.246 6.67818  15
  -4  -7  -6 119.325 6.57138   9
  -4  -7  -6 120.459 6.57030  10
  -4  -7  -6 117.727 7.20676   2
  -5  -7  -6 41.6543 2.55390   9
  -5  -7  -6 36.2404 3.29888   2
  -5  -7  -6 43.0881 2.35049   8
  -5  -7  -6 33.5466 4.09944   3
  -5  -7  -6 42.6852 2.62308  15
  -5  -7  -6 45.9481 3.83882   6
  -6  -7  -6 1193.93 61.3171   8
  -6  -7  -6 1169.25 62.7272   6
  -6  -7  -6 1122.53 61.4424   9
  -7  -7  -6 -0.0524 0.45933   8
  -7  -7  -6 1.05770 1.07852   6
  -8  -7  -6 15.0709 1.21466   8
  -9  -7  -6 99.1250 5.39316   8
   9   7   6 97.2644 5.30948   8
 -10  -7  -6 -0.1226 0.32369   8
  10   7   6 0.12754 0.30612   8
  11   7   6 25.8209 1.65205   9
  11   7   6 27.0925 1.46273   8
  11   7   6 27.1805 1.62667  11
   5  -8  -6 12.6932 0.86600  16
   4  -8  -6 5.27342 0.53932  16
   4  -8  -6 3.97079 0.54421  17
   4  -8  -6 4.86237 0.63956  15
   3  -8  -6 22.2054 1.55703  17
   3  -8  -6 27.9812 1.63013  16
   3  -8  -6 23.4642 1.67296  15
   2  -8  -6 1.19172 0.66556  15
   2  -8  -6 1.59963 0.38827  16
   2  -8  -6 0.00843 0.88439  14
   1  -8  -6 6.62479 0.41279  10
   1  -8  -6 7.99509 1.07139  14
   1  -8  -6 7.06617 0.73087  16
   1  -8  -6 6.58211 0.87939  15
   0  -8  -6 171.337 9.08345  15
   0  -8  -6 147.573 9.83421   6
   0  -8  -6 160.141 8.81352  10
   0  -8  -6 173.245 8.96271  16
   0  -8  -6 173.287 9.17087  14
  -1  -8  -6 8.92980 0.72535  10
  -1  -8  -6 9.02463 0.78416  16
  -1  -8  -6 9.60218 1.17921  14
  -1  -8  -6 8.32630 1.58532   6
  -1  -8  -6 9.30976 0.91812  15
  -2  -8  -6 -0.0712 0.36371  15
  -2  -8  -6 0.05743 0.39558  16
  -2  -8  -6 0.25447 0.46841  10
  -2  -8  -6 0.14395 0.54948  14
  -2  -8  -6 0.16311 0.29549   9
  -2  -8  -6 0.26607 0.81349   6
  -2  -8  -6 0.28805 0.67580   2
  -2  -8  -6 0.19444 0.87810   3
  -3  -8  -6 150.603 10.0226   3
  -3  -8  -6 176.304 9.28344  15
  -3  -8  -6 176.254 9.07674   9
  -3  -8  -6 171.772 9.12568  10
  -3  -8  -6 174.421 9.13589  16
  -3  -8  -6 160.208 9.53509   2
  -3  -8  -6 165.888 10.3336   6
  -4  -8  -6 328.067 17.2464  15
  -4  -8  -6 320.025 17.0888   9
  -4  -8  -6 306.186 18.3108   6
  -4  -8  -6 316.054 16.9113   8
  -4  -8  -6 329.199 17.1247  10
  -5  -8  -6 38.0911 3.87615   6
  -5  -8  -6 39.8459 2.29899   8
  -5  -8  -6 43.1032 2.53084   9
  -5  -8  -6 42.0026 2.60321  15
  -5  -8  -6 40.9234 2.52078  10
  -6  -8  -6 0.60398 1.55636   6
  -6  -8  -6 2.00496 0.61776   9
  -6  -8  -6 2.64046 0.39073   8
  -6  -8  -6 2.30993 0.64969  15
  -7  -8  -6 95.5865 5.40859   9
   9   8   6 29.3925 1.70196   8
  10   8   6 1.79533 0.35409   8
  11   8   6 125.745 7.69740  11
  11   8   6 161.559 7.62216   8
   4  -9  -6 0.86941 0.28407  16
   4  -9  -6 1.52441 0.38892  15
   3  -9  -6 -0.0330 0.41551  16
   3  -9  -6 -0.0056 0.41923  15
   2  -9  -6 14.7208 1.50748  14
   2  -9  -6 15.9887 1.24362  15
   2  -9  -6 16.3110 1.09807  16
   1  -9  -6 44.8739 2.89058  14
   1  -9  -6 46.8443 2.87720  15
   1  -9  -6 47.2827 2.66756  16
   0  -9  -6 19.1294 1.67992  14
   0  -9  -6 18.2893 1.56759  15
   0  -9  -6 19.1547 1.35695  16
  -1  -9  -6 567.241 30.6026  14
  -1  -9  -6 576.700 30.5598  15
  -1  -9  -6 577.686 30.4218  16
  -2  -9  -6 36.7320 2.46400  14
  -2  -9  -6 39.2899 2.16975  10
  -2  -9  -6 34.3399 2.19040  16
  -2  -9  -6 38.5707 2.39305  15
  -3  -9  -6 57.6633 3.25600  16
  -3  -9  -6 51.1380 3.32211  14
  -3  -9  -6 57.2834 3.11925   9
  -3  -9  -6 61.2107 3.48168  15
  -3  -9  -6 57.3422 3.24406  10
  -4  -9  -6 65.3826 3.62734   9
  -4  -9  -6 59.9747 3.61041  16
  -4  -9  -6 65.5121 3.69116  10
  -4  -9  -6 67.1303 3.87354  15
  -5  -9  -6 18.7692 1.36260   9
  -5  -9  -6 16.9806 1.40193  10
  -5  -9  -6 18.9067 1.56123  15
  -5  -9  -6 17.3248 1.26582  16
  -6  -9  -6 3.81871 0.55628   9
  -6  -9  -6 3.03275 0.54293  10
  -6  -9  -6 2.35625 0.68164  15
  -6  -9  -6 2.44114 0.28212   8
  -7  -9  -6 8.22069 0.68107   8
  -7  -9  -6 8.92931 0.92595   9
  -7  -9  -6 9.58181 0.98511  15
  -8  -9  -6 71.0900 4.13038   9
  -8  -9  -6 73.8497 3.92394   8
  -8  -9  -6 70.9809 4.15749  15
  -9  -9  -6 14.1325 1.25623   9
  -9  -9  -6 14.5340 0.96393   8
  -9  -9  -6 14.1248 1.11799  15
 -10  -9  -6 2.81393 0.35256   8
  10   9   6 3.10863 0.37792   8
   2 -10  -6 52.9848 2.92911  16
   1 -10  -6 61.2719 3.40294  15
   1 -10  -6 55.5637 3.47910  14
   1 -10  -6 58.6904 3.24214  16
   0 -10  -6 132.572 7.23220  16
   0 -10  -6 129.847 7.42741  14
   0 -10  -6 140.412 7.41952  15
  -1 -10  -6 12.8879 1.33999  14
  -1 -10  -6 12.7556 1.00326  16
  -1 -10  -6 13.6065 1.13681  15
  -2 -10  -6 165.505 8.72023  15
  -2 -10  -6 148.887 8.54363  16
  -2 -10  -6 162.358 8.75252  14
  -3 -10  -6 8.00219 0.78086  16
  -3 -10  -6 9.41511 0.79547  10
  -3 -10  -6 8.69749 1.04253  14
  -3 -10  -6 9.47932 0.97475  15
  -4 -10  -6 61.0196 3.59198  15
  -4 -10  -6 60.7852 3.42513  10
  -4 -10  -6 59.6157 3.24422   9
  -5 -10  -6 24.3352 1.81691  15
  -5 -10  -6 21.9997 1.48369   9
  -5 -10  -6 24.5531 1.62230  10
  -6 -10  -6 149.999 7.95008   9
  -6 -10  -6 144.649 8.00788  10
  -6 -10  -6 146.450 8.11845  15
  -7 -10  -6 1.31649 0.52712   9
  -7 -10  -6 1.91714 0.47507  15
  -7 -10  -6 2.45561 0.59292  10
  -8 -10  -6 -0.0821 0.35344  15
  -8 -10  -6 -0.7321 0.33841   9
  -9 -10  -6 277.168 14.8330  15
   1 -11  -6 44.1577 2.53620  15
  -1 -11  -6 21.2642 1.51998  15
  -1 -11  -6 20.8850 1.55452  14
  -2 -11  -6 2.13897 0.65119  14
  -2 -11  -6 3.22920 0.55395  15
  -3 -11  -6 13.3639 1.09124  15
  -3 -11  -6 14.3916 1.16600  14
  -4 -11  -6 2.69261 0.52461  15
  -4 -11  -6 3.04540 0.41889  10
  -5 -11  -6 2.79201 0.49320  10
  -5 -11  -6 2.20337 0.64429  15
  -6 -11  -6 22.2518 1.25566   9
  -6 -11  -6 23.0689 1.68211  15
  -6 -11  -6 24.3338 1.44178  10
  -7 -11  -6 191.666 10.2618  10
  -7 -11  -6 197.450 10.3677  15
  -7 -11  -6 185.509 10.1675   9
  -8 -11  -6 4.94419 0.56014  10
  -8 -11  -6 4.74739 0.55047   9
  -2 -12  -6 22.6442 1.41227  15
  -3 -12  -6 0.97989 0.36686  15
  -4 -12  -6 24.3357 1.52963  15
  -5 -12  -6 41.7316 2.44064  15
  -6 -12  -6 53.9619 2.93925  10
  -6 -12  -6 54.0265 3.07136  15
  -4 -10   7 6.28844 0.44111  10
  -4 -10   7 5.21168 0.59014  14
  -3 -10   7 0.49278 0.30818  14
  -7  -9   7 4.77794 0.52753   9
  -7  -9   7 2.84687 0.49132  14
  -6  -9   7 1.71441 0.33778   9
  -6  -9   7 1.33837 0.50338  14
  -6  -9   7 1.72303 0.35588  10
  -5  -9   7 28.6634 1.64435   9
  -5  -9   7 30.9631 1.79605  10
  -5  -9   7 28.5233 1.90816  14
  -4  -9   7 111.825 6.32206  14
  -4  -9   7 115.525 6.15722  10
  -3  -9   7 23.9978 1.42100  10
  -3  -9   7 22.2760 1.45984  13
  -3  -9   7 23.6365 1.61922  14
  -2  -9   7 0.11588 0.44086  13
  -2  -9   7 0.50607 0.23556  10
  -2  -9   7 0.77801 0.41814  14
  -1  -9   7 126.712 6.50278  13
  -1  -9   7 110.693 6.44295  12
  -1  -9   7 119.005 6.53843  14
   0  -9   7 62.9271 3.43604  13
   0  -9   7 58.7194 3.36895  12
   1  -9   7 34.6098 2.11257  12
   1  -9   7 39.2986 2.15786  13
   2  -9   7 11.9557 0.81067  13
  -8  -8   7 16.1455 1.09916   9
  -8  -8   7 14.9147 1.12696  14
  -7  -8   7 27.0963 1.97305  14
  -7  -8   7 28.2782 1.85460   9
  -6  -8   7 24.7287 1.69744   9
  -6  -8   7 23.5798 1.73550  14
  -5  -8   7 56.5190 3.38643  14
  -5  -8   7 55.8324 3.18868   9
  -5  -8   7 54.6177 3.18412  10
  -4  -8   7 196.833 10.6172  14
  -4  -8   7 191.929 10.3864  10
  -4  -8   7 191.790 10.3877   9
  -3  -8   7 95.1672 5.27785  14
  -3  -8   7 88.6251 5.03103  10
  -3  -8   7 93.1264 4.97312   9
  -3  -8   7 90.7576 5.12002  13
  -2  -8   7 157.759 8.60246  14
  -2  -8   7 152.441 8.50255  13
  -2  -8   7 156.022 8.35447  10
  -1  -8   7 31.8694 1.73803  10
  -1  -8   7 31.0528 1.93448  13
  -1  -8   7 28.0128 1.79697  12
  -1  -8   7 28.1360 1.96388  14
   0  -8   7 0.59524 0.36624  12
   0  -8   7 0.73893 0.20267  10
   0  -8   7 0.62475 0.53972  14
   0  -8   7 -0.1886 0.37572  13
   1  -8   7 109.946 5.65922  12
   1  -8   7 95.5344 5.65664  13
   2  -8   7 0.53682 0.35252  13
   2  -8   7 0.72946 0.37579  12
   3  -8   7 31.1974 1.85899  13
   3  -8   7 32.5498 1.87654  12
   9   7  -7 5.35338 0.45288   8
  -9  -7   7 7.30579 0.55389   8
   8   7  -7 3.82157 0.39050   8
  -8  -7   7 4.66559 0.43759   8
  -8  -7   7 4.51442 0.64591  14
  -7  -7   7 1.55482 0.32697   8
  -7  -7   7 0.42254 0.60906   9
  -7  -7   7 0.84635 0.52499  14
  -6  -7   7 27.6500 1.78876   9
  -6  -7   7 25.5471 1.60979   8
  -5  -7   7 377.550 19.4707   9
  -5  -7   7 354.919 19.4035  10
  -5  -7   7 373.840 19.6409  14
  -5  -7   7 351.255 19.2718   8
  -4  -7   7 115.420 6.18930   9
  -4  -7   7 111.316 6.38792  14
  -4  -7   7 108.566 6.10916  10
  -3  -7   7 27.9847 1.91084  13
  -3  -7   7 30.3890 2.12850  14
  -3  -7   7 27.5114 1.76218  10
  -3  -7   7 29.6037 1.84449   9
  -2  -7   7 106.602 5.65014   9
  -2  -7   7 102.826 5.67605  10
  -2  -7   7 100.518 5.78618  13
  -2  -7   7 104.377 5.90535  14
  -1  -7   7 53.9392 3.37145  14
  -1  -7   7 53.3732 3.15712  12
  -1  -7   7 54.5958 3.10533  10
  -1  -7   7 54.2721 2.95895   9
  -1  -7   7 58.7519 3.27338  13
   0  -7   7 1.23021 0.58432  13
   0  -7   7 1.05297 0.60650  14
   0  -7   7 0.90043 0.48198  12
   0  -7   7 0.92099 0.38337  10
   1  -7   7 42.0663 2.58563  13
   1  -7   7 43.1505 2.33819  10
   1  -7   7 41.9649 2.59804  12
   2  -7   7 0.78904 0.47005  11
   2  -7   7 0.63814 0.39405  12
   2  -7   7 0.58714 0.52639  13
   3  -7   7 3.91021 0.73853  11
   3  -7   7 4.45823 0.61476  13
   3  -7   7 3.15805 0.61603  12
   4  -7   7 2.07330 0.39042  12
   4  -7   7 1.64842 0.60638  11
   5  -7   7 12.0138 0.88006  11
   9   6  -7 30.2406 1.78353   8
  -9  -6   7 34.7234 1.87701   8
   8   6  -7 113.889 6.25869   8
  -8  -6   7 119.675 6.34433   8
  -7  -6   7 2.43216 0.54499   8
  -6  -6   7 71.7551 3.78612   8
  -6  -6   7 62.6849 3.89407   9
  -5  -6   7 264.284 13.9298   9
  -5  -6   7 253.275 13.7887   8
  -4  -6   7 5.39584 0.72362   9
  -4  -6   7 3.75103 0.57325  10
  -4  -6   7 5.58784 0.59050   8
  -4  -6   7 4.22690 1.22747   5
  -3  -6   7 3.52174 0.59951   9
  -3  -6   7 2.66336 1.38786   5
  -3  -6   7 3.51461 0.57421  13
  -3  -6   7 5.19969 0.56112  10
  -3  -6   7 3.86788 0.42308   8
  -2  -6   7 173.779 8.84804  10
  -2  -6   7 134.885 9.40317   2
  -2  -6   7 156.950 10.1803   5
  -2  -6   7 173.132 8.97884  13
  -2  -6   7 170.460 9.08310  14
  -2  -6   7 166.233 8.86210   9
  -1  -6   7 64.4872 3.71103  13
  -1  -6   7 63.5233 3.79620  14
  -1  -6   7 65.7482 3.55256  10
  -1  -6   7 59.4410 3.56048  12
  -1  -6   7 64.0310 3.51812   9
  -1  -6   7 60.2052 4.94886   5
   0  -6   7 37.3217 3.66017   5
   0  -6   7 35.9114 2.42175  14
   0  -6   7 40.8539 2.52259  11
   0  -6   7 37.9194 2.35683  12
   0  -6   7 43.1256 2.50719  13
   0  -6   7 38.5891 2.17856   9
   0  -6   7 39.5211 2.26754  10
   1  -6   7 4.60023 0.47737  10
   1  -6   7 5.59323 0.69515  12
   1  -6   7 4.96130 0.80714  11
   1  -6   7 4.53145 0.72470  13
   1  -6   7 2.30666 1.39825   5
   2  -6   7 325.669 17.6834  12
   2  -6   7 331.208 17.7879  11
   2  -6   7 336.625 17.7142  13
   2  -6   7 328.237 17.4823  10
   3  -6   7 114.089 6.42873  11
   3  -6   7 114.222 6.28994  12
   3  -6   7 113.688 6.30396  13
   4  -6   7 25.7673 1.73244  11
   4  -6   7 23.9631 1.58002  13
   4  -6   7 25.1985 1.62578  12
   5  -6   7 18.7193 1.46027  11
   5  -6   7 18.6267 1.24450  12
   6  -6   7 174.740 9.59860  11
   6  -6   7 182.353 9.54609  12
   9   5  -7 34.3987 1.84555   8
  -9  -5   7 31.0789 1.99441   8
   8   5  -7 15.1366 0.96308   8
  -8  -5   7 15.7980 1.20628   8
   7   5  -7 400.437 21.4646   8
  -7  -5   7 410.364 21.5390   8
  -6  -5   7 96.8181 5.33044   8
  -5  -5   7 54.1066 3.08348   8
  -4  -5   7 136.257 7.34003   9
  -4  -5   7 141.485 7.24906   8
  -4  -5   7 129.486 8.30137   5
  -4  -5   7 125.108 8.02388   2
  -3  -5   7 292.352 14.9907   9
  -3  -5   7 283.500 15.6414   2
  -3  -5   7 267.087 14.9316  10
  -3  -5   7 283.539 14.8736   8
  -3  -5   7 283.250 16.2096   5
  -3  -5   7 260.699 15.9356   3
  -3  -5   7 287.504 15.0077  13
  -2  -5   7 11.5143 1.03379  13
  -2  -5   7 10.4442 1.45122   2
  -2  -5   7 11.4635 0.84493  10
  -2  -5   7 9.25804 1.63385   3
  -2  -5   7 13.5681 1.01475   9
  -2  -5   7 11.8725 0.83663   8
  -2  -5   7 12.5031 2.03128   5
  -1  -5   7 57.2795 3.24011  13
  -1  -5   7 53.1405 3.14060   9
  -1  -5   7 54.9794 4.03255   3
  -1  -5   7 55.1257 3.29504  14
  -1  -5   7 55.7267 3.67609   2
  -1  -5   7 59.2261 3.13999  10
  -1  -5   7 53.4193 2.97827   8
  -1  -5   7 56.2748 4.31383   5
   0  -5   7 78.6778 4.24468   9
   0  -5   7 80.8318 4.39876  11
   0  -5   7 77.2147 4.67363   2
   0  -5   7 74.8451 4.30624  12
   0  -5   7 73.5375 4.42748  14
   0  -5   7 79.1565 4.38413  13
   0  -5   7 78.6830 5.46095   5
   0  -5   7 80.3909 4.25928  10
   0  -5   7 70.7179 4.84145   3
   1  -5   7 395.615 22.9901   3
   1  -5   7 424.496 22.5826   9
   1  -5   7 419.401 23.8905   5
   1  -5   7 452.456 22.8058  13
   1  -5   7 437.924 22.6461  10
   1  -5   7 439.970 22.7451  12
   1  -5   7 406.769 22.8226   2
   1  -5   7 439.255 22.8398  11
   2  -5   7 493.573 26.4844  10
   2  -5   7 501.359 26.6327  12
   2  -5   7 457.206 28.3033   4
   2  -5   7 537.283 26.6880  13
   2  -5   7 508.939 26.7224  11
   3  -5   7 74.5398 4.17613  13
   3  -5   7 72.3532 4.26427  11
   3  -5   7 71.0094 3.92490  10
   3  -5   7 72.6833 4.15175  12
   4  -5   7 41.2270 2.50438  11
   4  -5   7 35.8887 2.08561  10
   4  -5   7 39.1472 2.40977  13
   4  -5   7 43.3312 2.47107  12
   5  -5   7 7.12695 0.82629  11
   5  -5   7 7.40042 0.77351  12
   6  -5   7 64.0970 3.80223  11
   6  -5   7 69.4961 3.76610  12
   7  -5   7 27.7458 1.67690  11
   7  -5   7 26.7882 1.59723  12
  10   4  -7 118.509 6.38953   9
  10   4  -7 119.966 6.52474  18
   9   4  -7 11.1610 1.14027  18
   9   4  -7 10.6633 0.85350   9
   9   4  -7 10.3031 0.68007   8
   8   4  -7 0.10486 0.29321   8
   7   4  -7 17.6517 1.15692   8
   6   4  -7 40.0331 2.33973   8
  -6  -4   7 43.5202 2.46978   8
  -5  -4   7 43.5728 2.53989   8
  -4  -4   7 5.72483 1.26664   5
  -4  -4   7 6.07637 0.59046   8
  -3  -4   7 81.4530 5.90322   3
  -3  -4   7 93.9779 4.81944   8
  -3  -4   7 82.3907 4.88302   9
  -3  -4   7 87.7682 4.90280  13
  -3  -4   7 96.2567 5.93044   5
  -3  -4   7 89.1463 5.48245   2
  -2  -4   7 229.851 11.9634   2
  -2  -4   7 212.656 11.4354  13
  -2  -4   7 219.393 12.2872   3
  -2  -4   7 190.607 11.3275  10
  -2  -4   7 226.603 12.5475   5
  -2  -4   7 215.695 11.3751   9
  -2  -4   7 198.936 11.2799   8
  -1  -4   7 2.08253 0.37893  10
  -1  -4   7 1.36895 0.26833   8
  -1  -4   7 2.06723 0.41785   9
  -1  -4   7 2.82026 0.84835   2
  -1  -4   7 1.95522 0.37245  13
  -1  -4   7 1.28768 1.01480   5
  -1  -4   7 1.37881 0.96412   3
   0  -4   7 33.6522 2.91455   5
   0  -4   7 31.7355 1.88227  13
   0  -4   7 27.6589 1.60972   8
   0  -4   7 26.1638 1.87057  14
   0  -4   7 28.2375 1.85417  11
   0  -4   7 31.1290 1.74134  10
   0  -4   7 28.6403 2.58282   3
   0  -4   7 28.1562 2.21211   2
   0  -4   7 28.5512 1.74892   9
   0  -4   7 30.6720 1.77859  12
   1  -4   7 572.504 30.9604   3
   1  -4   7 586.950 30.3817  10
   1  -4   7 596.345 31.5628   5
   1  -4   7 585.261 31.9227   4
   1  -4   7 531.842 30.3490   9
   1  -4   7 577.995 30.7303   2
   1  -4   7 597.210 30.5084  13
   1  -4   7 562.170 30.4431  12
   1  -4   7 561.832 30.5059  11
   2  -4   7 341.251 17.6857  10
   2  -4   7 331.119 17.6305   9
   2  -4   7 345.764 17.8263  13
   2  -4   7 321.618 19.2841   4
   2  -4   7 332.702 18.8065   5
   2  -4   7 345.816 17.7969  12
   2  -4   7 320.410 18.0676   3
   2  -4   7 334.821 17.8972   2
   2  -4   7 322.616 17.8532  11
   3  -4   7 2.35967 0.64368  11
   3  -4   7 2.98252 0.91806  18
   3  -4   7 2.86397 0.53354  13
   3  -4   7 3.01287 0.48741  12
   3  -4   7 2.61420 1.64660   4
   3  -4   7 2.74283 0.41606  10
   3  -4   7 1.72279 1.07924   5
   4  -4   7 6.83904 0.91353  11
   4  -4   7 5.87408 0.72247  13
   4  -4   7 4.15335 1.91072   4
   4  -4   7 7.67073 0.58372  10
   4  -4   7 7.69740 0.94151  12
   4  -4   7 8.46162 1.12304  18
   5  -4   7 151.590 8.59456  18
   5  -4   7 153.055 8.52055  11
   5  -4   7 151.564 8.22291  10
   5  -4   7 164.379 8.46753  12
   6  -4   7 5.54689 0.78428  18
   6  -4   7 4.63185 0.78453  11
   6  -4   7 4.74053 0.64979  12
   7  -4   7 9.98102 1.08218  18
   7  -4   7 9.66988 0.78057  12
   7  -4   7 9.67122 0.91220  11
   8  -4   7 87.7327 4.83223  11
  10   3  -7 2.48063 0.44729  18
   9   3  -7 0.98489 0.35505   9
   9   3  -7 1.17281 0.49885  18
   8   3  -7 170.901 8.93035   9
   8   3  -7 160.358 8.79787   8
   7   3  -7 0.21241 0.49254   9
   7   3  -7 -0.2683 0.29660   8
   6   3  -7 6.98454 0.65559   8
   5   3  -7 94.4356 5.11181   8
  -4  -3   7 145.701 7.87990   5
  -4  -3   7 115.423 6.92269   8
   3   3  -7 341.096 18.6808   7
  -3  -3   7 382.194 19.3262   5
  -3  -3   7 328.970 19.3172   3
  -3  -3   7 345.162 18.8601   2
  -3  -3   7 328.201 18.2611   8
  -2  -3   7 122.166 7.04101   8
  -2  -3   7 135.875 8.02010   3
  -2  -3   7 134.052 7.60696   2
  -2  -3   7 137.891 8.08088   5
  -1  -3   7 100.187 5.73377   2
  -1  -3   7 86.7753 5.20193   8
  -1  -3   7 103.581 6.15825   3
  -1  -3   7 102.030 6.26147   5
   0  -3   7 34.9334 2.30447   2
   0  -3   7 29.1677 1.82464   9
   0  -3   7 29.5192 1.73323   8
   0  -3   7 33.2003 2.63979   3
   0  -3   7 33.4345 2.79818   5
   1  -3   7 181.244 9.69585   3
   1  -3   7 162.478 8.89782   8
   1  -3   7 179.122 10.2810   4
   1  -3   7 162.881 9.36075   2
   1  -3   7 159.218 8.99019   9
   1  -3   7 186.104 9.99747   5
   1  -3   7 160.059 9.02591  12
   1  -3   7 162.122 8.98981  10
   2  -3   7 12.3477 1.65340   3
   2  -3   7 11.6128 1.19018   2
   2  -3   7 11.5923 1.04041  11
   2  -3   7 11.6102 0.83305   9
   2  -3   7 13.4393 1.76920   5
   2  -3   7 12.4194 0.89484  12
   2  -3   7 12.5513 0.93045  13
   2  -3   7 12.3761 0.86869  10
   2  -3   7 12.7951 2.07569   4
   2  -3   7 13.5346 1.31070  18
   3  -3   7 249.960 13.0620   2
   3  -3   7 230.800 13.7126   5
   3  -3   7 236.963 12.9890  11
   3  -3   7 247.661 12.9157  12
   3  -3   7 238.992 12.8199  10
   3  -3   7 249.576 14.4345   4
   3  -3   7 240.891 12.9307  13
   3  -3   7 234.130 12.7768   9
   3  -3   7 230.774 13.2672   3
   3  -3   7 249.735 13.0915  18
   4  -3   7 11.7556 1.08130   3
   4  -3   7 14.9189 1.42192  18
   4  -3   7 14.2105 0.97466   2
   4  -3   7 14.3540 1.27964  11
   4  -3   7 13.1143 1.08879  13
   4  -3   7 14.1321 0.81841   9
   4  -3   7 16.1658 2.56831   4
   4  -3   7 16.7545 1.08357  12
   4  -3   7 15.4874 0.96333  10
   5  -3   7 23.6879 1.89175  18
   5  -3   7 21.5273 3.07108   4
   5  -3   7 23.7699 1.44532  10
   5  -3   7 26.0561 1.65706  12
   5  -3   7 23.6320 1.66862  11
   6  -3   7 2.37430 0.47026  12
   6  -3   7 3.12389 0.70717  11
   6  -3   7 2.92690 0.83654  18
   6  -3   7 2.71628 0.30237  10
   7  -3   7 2.49556 0.77380  18
   7  -3   7 2.47282 0.43209  12
   7  -3   7 1.77114 0.66058  11
   8  -3   7 53.8277 3.41178  18
   8  -3   7 59.8384 3.26405  12
   8  -3   7 62.4524 3.44100  11
   9   2  -7 0.58906 0.37807   9
   9   2  -7 0.35238 0.47264  18
   9   2  -7 0.42344 0.43123  10
   8   2  -7 1.04474 0.20008   8
   8   2  -7 1.75890 0.49267   9
   8   2  -7 1.03420 0.66194  18
   7   2  -7 25.2110 1.61976   9
   7   2  -7 23.6072 1.41625   8
   6   2  -7 44.6092 2.71056   9
   6   2  -7 48.1220 2.58274   8
   5   2  -7 185.188 10.2023   7
   5   2  -7 174.829 9.54971   8
   4   2  -7 1031.55 51.8114   7
   4   2  -7 915.003 51.2694   8
   3   2  -7 122.271 7.14771   7
  -3  -2   7 127.840 7.54593   5
  -2  -2   7 18.8612 2.14601   3
  -2  -2   7 20.7564 2.05932   5
  -2  -2   7 21.0258 1.72684   2
  -1  -2   7 -0.1516 0.48898   5
  -1  -2   7 1.46013 0.62413   2
  -1  -2   7 0.67409 0.85269   3
   0  -2   7 518.520 26.7798   2
   0  -2   7 495.800 27.1008   3
   0  -2   7 490.100 27.2169   4
   0  -2   7 490.775 27.1499   5
   1  -2   7 7.13173 1.36196   4
   1  -2   7 7.31264 1.21786   3
   1  -2   7 8.43121 1.08136   2
   1  -2   7 6.83260 1.18927   5
   2  -2   7 46.9770 3.63759   4
   2  -2   7 48.2000 2.95044   2
   2  -2   7 47.0856 3.27785   3
   2  -2   7 42.8022 2.44356   8
   2  -2   7 46.8092 3.35022   5
   2  -2   7 43.6775 2.55001   9
   3  -2   7 56.8243 3.23614   9
   3  -2   7 59.8256 3.31447  12
   3  -2   7 58.7233 3.39257  11
   3  -2   7 60.0706 4.05260   5
   3  -2   7 56.6077 3.33703  13
   3  -2   7 62.4535 4.54566   4
   3  -2   7 59.4713 3.51577  18
   3  -2   7 60.1639 3.60623   2
   3  -2   7 59.3893 3.86902   3
   3  -2   7 58.8080 3.26165  10
   4  -2   7 29.9598 2.01339   2
   4  -2   7 29.0792 1.71321  10
   4  -2   7 29.3679 2.31463   3
   4  -2   7 27.8850 1.90003  11
   4  -2   7 29.6802 1.68154   9
   4  -2   7 28.3409 2.85179   4
   4  -2   7 32.3681 2.06367  18
   4  -2   7 25.5642 1.77384  13
   4  -2   7 30.9906 1.81399  12
   5  -2   7 0.94689 0.68793   3
   5  -2   7 1.86099 0.66475  18
   5  -2   7 1.35652 0.41048  11
   5  -2   7 0.12504 1.22736   4
   5  -2   7 1.79864 0.38339  12
   5  -2   7 0.84109 0.52622   2
   5  -2   7 1.66988 0.24105   9
   5  -2   7 1.64451 0.33643  10
   6  -2   7 0.27480 0.53862  11
   6  -2   7 0.83554 0.68395  18
   6  -2   7 0.74530 0.31176  10
   6  -2   7 1.00417 0.45907  12
   6  -2   7 1.57728 1.08360   4
   7  -2   7 189.790 10.3484  11
   7  -2   7 191.247 10.4123  18
   7  -2   7 181.765 10.0964  10
   7  -2   7 197.260 10.2514  12
   8  -2   7 14.8782 1.14974  11
   8  -2   7 13.9010 0.77248  10
   8  -2   7 11.1097 1.07050  18
   8  -2   7 13.9030 0.97663  12
   9  -2   7 67.0371 3.53534  11
   9  -2   7 57.2780 3.51589  18
   9   1  -7 1.62348 0.34471  10
   9   1  -7 1.47361 0.31500   9
   9   1  -7 0.94797 0.48832  18
   8   1  -7 9.37788 0.99947  18
   8   1  -7 7.06609 0.78043   9
   8   1  -7 6.22782 0.68946  10
   7   1  -7 32.0774 1.75563   8
   7   1  -7 32.8408 1.94835   9
   7   1  -7 30.2469 1.88484  10
   6   1  -7 19.2166 2.03976   2
   6   1  -7 23.3525 1.49225   9
   6   1  -7 23.8210 1.32454   8
   6   1  -7 22.5478 1.49743  17
   6   1  -7 19.8718 2.11140   7
   5   1  -7 24.9981 1.38606   8
   5   1  -7 22.0948 1.48509   9
   5   1  -7 24.2039 1.49270  17
   5   1  -7 23.1440 2.06628   2
   5   1  -7 21.3181 2.90298   3
   5   1  -7 23.7299 2.12673   7
   4   1  -7 25.2539 1.48664   8
   4   1  -7 26.2315 2.10046   7
   4   1  -7 25.9292 2.07290   2
   4   1  -7 23.5446 2.78059   3
  -4  -1   7 27.1231 2.22922   5
   3   1  -7 57.7664 3.58186   7
   3   1  -7 54.0463 3.54643   2
   3   1  -7 56.8800 4.22015   3
   1   1  -7 95.7817 6.41896   1
  -1  -1   7 110.215 6.17669   2
  -1  -1   7 115.452 6.57248   3
   0  -1   7 194.097 10.4575   3
   0  -1   7 187.838 10.0539   2
   0  -1   7 161.112 10.1907   1
   0  -1   7 183.818 10.3265   4
   1  -1   7 786.085 42.4138   4
   1  -1   7 787.178 41.9923   2
   1  -1   7 794.355 42.3013   3
   2  -1   7 72.9542 4.96332   4
   2  -1   7 74.7148 4.80210   3
   2  -1   7 77.3239 4.42800   2
   3  -1   7 12.5955 1.17828   2
   3  -1   7 14.3521 1.83698   4
   3  -1   7 11.1803 0.71926   8
   3  -1   7 11.5808 1.41935   5
   3  -1   7 12.7930 1.60600   3
   4  -1   7 390.426 20.0450   2
   4  -1   7 356.911 19.6958   9
   4  -1   7 360.267 19.7777  13
   4  -1   7 357.572 19.6101   8
   4  -1   7 381.790 19.7540  12
   4  -1   7 397.131 21.0407   4
   4  -1   7 369.054 19.7181  10
   4  -1   7 356.946 19.8077  11
   4  -1   7 358.294 20.3454   5
   4  -1   7 390.902 20.4474   3
   4  -1   7 378.087 19.9024  18
   5  -1   7 76.6037 4.99327   3
   5  -1   7 76.9081 4.47617  11
   5  -1   7 76.5558 4.56484  18
   5  -1   7 78.5726 4.34039  10
   5  -1   7 80.1753 5.73291   4
   5  -1   7 78.3459 4.30609   9
   5  -1   7 81.6362 4.65627   2
   5  -1   7 87.1908 4.40729  12
   6  -1   7 -0.1042 0.44259  11
   6  -1   7 0.08166 0.38500  12
   6  -1   7 0.59452 0.40989  18
   6  -1   7 0.38785 0.52537   2
   6  -1   7 0.35759 0.31757  10
   6  -1   7 0.15198 0.91103   4
   6  -1   7 0.27180 0.25122   9
   7  -1   7 -0.3127 0.59662  18
   7  -1   7 -0.3617 0.42564  12
   7  -1   7 0.38163 0.32902  10
   7  -1   7 0.87642 0.55774  11
   8  -1   7 328.889 19.2641  18
   8  -1   7 371.449 19.0547  10
   8  -1   7 373.380 19.1692  12
   8  -1   7 365.346 19.2471  11
   9  -1   7 17.7526 1.01644  10
   9  -1   7 17.2622 1.40677  11
  10  -1   7 0.42778 0.33787  11
   9   0  -7 23.5867 1.71833  18
   9   0  -7 27.0590 1.53049  10
   8   0  -7 87.0279 5.23303  18
   8   0  -7 93.8476 4.93815   9
   8   0  -7 92.0262 4.96584  10
   7   0  -7 -0.4247 0.36263  10
   7   0  -7 0.21508 0.47570  18
   7   0  -7 -0.0181 0.35360   9
   7   0  -7 0.46144 0.42889  17
   6   0  -7 31.3572 1.78797   8
   6   0  -7 29.8950 2.63986   7
   6   0  -7 34.5382 1.94431  10
   6   0  -7 33.4237 2.00525  17
   6   0  -7 30.8072 2.43543   2
   6   0  -7 32.3777 1.94029   9
   5   0  -7 312.763 16.5626   7
   5   0  -7 310.272 15.7958   8
   5   0  -7 295.118 16.3747   2
   5   0  -7 290.080 15.9248  17
   5   0  -7 299.528 15.8764  10
   5   0  -7 285.224 15.8787   9
   4   0  -7 13.4619 1.46393   7
   4   0  -7 11.4389 0.88628   9
   4   0  -7 12.4149 1.37601   2
   4   0  -7 11.4041 0.75587   8
   3   0  -7 1.22176 0.50097   7
   3   0  -7 1.34861 0.60907   2
   2   0  -7 20.8221 1.63595   2
   2   0  -7 20.3014 2.45889   3
   1   0  -7 70.7708 4.70623   3
   1   0  -7 69.5167 4.04975   2
  -1   0   7 69.2661 4.46880   3
  -1   0   7 65.7347 4.01928   2
  -1   0   7 61.6429 4.32745   1
   0   0  -7 553.662 29.8963   3
   0   0  -7 538.855 29.3178   2
   0   0  -7 490.640 29.4877   1
   0   0   7 535.824 29.4510   1
   0   0   7 572.352 29.6785   3
   0   0   7 560.625 29.4018   4
   0   0   7 582.313 29.3001   2
  -1   0  -7 176.598 11.2551   1
   1   0   7 205.816 11.0007   2
   1   0   7 225.204 11.4050   3
   1   0   7 185.941 11.1890   1
   1   0   7 207.349 11.2482   4
   2   0   7 3.94530 0.75526   2
   2   0   7 3.72541 0.92441   4
   2   0   7 4.11445 1.07121   3
   3   0   7 2.37445 0.90254   4
   3   0   7 1.57366 1.01617   3
   3   0   7 2.19649 0.61861   2
   4   0   7 100.623 5.88208   9
   4   0   7 106.281 5.81064   8
   4   0   7 118.463 6.73335   3
   4   0   7 105.317 6.41879   5
   4   0   7 115.575 6.95385   4
   4   0   7 114.543 6.28794   2
   5   0   7 15.2524 1.01730  10
   5   0   7 14.1095 1.12445  11
   5   0   7 15.8017 1.40352   2
   5   0   7 14.9069 0.85729   8
   5   0   7 16.4961 2.16909   4
   5   0   7 14.4139 0.98687   9
   5   0   7 15.9329 1.84084   3
   6   0   7 372.283 20.5178   2
   6   0   7 408.643 20.2400  12
   6   0   7 376.765 20.1872  10
   6   0   7 385.158 20.3018  11
   6   0   7 375.727 20.1579   9
   6   0   7 373.267 21.5494   4
   6   0   7 369.443 20.9664   3
   7   0   7 81.1960 4.29303  12
   7   0   7 67.5192 5.62794   4
   7   0   7 76.9956 4.24039  10
   7   0   7 77.9611 4.40474  11
   7   0   7 77.3242 4.19194   9
   8   0   7 0.45896 0.32994  12
   8   0   7 0.29828 0.20693   9
   8   0   7 0.12844 0.42886  11
   8   0   7 0.40444 0.38158  10
   9   0   7 40.5041 2.51054  12
   9   0   7 42.6101 2.44550  10
   9   0   7 48.7895 2.72751  11
  10   0   7 83.4721 4.30485  10
  10   0   7 77.4997 4.47627  11
   9  -1  -7 27.1349 1.93731  18
   9  -1  -7 30.1933 1.64348  10
   8  -1  -7 18.7780 1.35484  17
   8  -1  -7 20.5444 1.26021  10
   8  -1  -7 19.9996 1.54230  18
   7  -1  -7 104.478 6.08439  17
   7  -1  -7 111.338 5.96755   9
   7  -1  -7 116.171 6.38147  18
   7  -1  -7 112.092 6.00818  10
   6  -1  -7 0.82537 0.33432   9
   6  -1  -7 1.48160 0.66326  18
   6  -1  -7 0.66723 0.35863  10
   6  -1  -7 1.47803 0.37837  17
   6  -1  -7 1.23099 0.71481   7
   5  -1  -7 63.5127 4.04901   2
   5  -1  -7 64.3652 3.69496  17
   5  -1  -7 66.2850 3.62263  10
   5  -1  -7 63.1083 5.09671   3
   5  -1  -7 64.7660 3.61794   9
   5  -1  -7 68.0318 4.37089   7
   5  -1  -7 67.9242 3.51534   8
   4  -1  -7 53.6478 3.00209   8
   4  -1  -7 53.0006 3.09418   9
   4  -1  -7 57.5894 3.08680  10
   4  -1  -7 56.4913 4.38916   3
   4  -1  -7 58.6653 3.59152   2
   4  -1  -7 60.3852 3.77177   7
   4  -1  -7 54.2491 3.14190  17
   3  -1  -7 0.88863 0.67611   2
   3  -1  -7 1.11684 0.21609   8
   3  -1  -7 0.60618 0.61332   7
   3  -1  -7 0.69865 1.09757   3
   2  -1  -7 18.8385 1.50467   2
   2  -1  -7 17.9209 1.54917   7
   2  -1  -7 16.7164 2.16578   3
   1  -1  -7 573.304 28.5285   3
   1  -1  -7 464.668 28.0275   1
   1  -1  -7 523.880 27.8454   2
   1  -1  -7 521.873 27.9207   6
   0  -1  -7 264.945 14.0646   6
   0  -1  -7 256.022 14.3745   1
   0  -1  -7 289.837 14.7862   3
   0  -1  -7 243.070 14.3383   1
   0  -1  -7 270.187 14.1484   2
   0   1   7 259.074 14.4583   3
   0   1   7 254.798 14.0798   2
   0   1   7 237.849 14.4207   1
  -1  -1  -7 81.1836 5.17375   3
  -1  -1  -7 76.2324 4.50473   2
  -1  -1  -7 64.2690 4.66163   1
   1   1   7 75.9846 4.48766   4
   1   1   7 74.2331 4.65110   1
   1   1   7 80.9118 4.47322   2
   1   1   7 81.2260 4.82002   3
   1   1   7 69.0752 4.74144   1
  -2  -1  -7 141.100 9.00696   1
   2   1   7 156.773 9.10251   3
   2   1   7 163.421 8.96484   4
   2   1   7 163.809 8.76459   2
   2   1   7 157.016 8.96313   1
   3   1   7 70.2693 4.47233   3
   3   1   7 64.3070 4.35539   4
   4   1   7 74.5401 5.00490   4
   4   1   7 79.1902 5.04764   3
   5   1   7 25.6588 1.95660   2
   5   1   7 29.5525 2.63196   3
   5   1   7 22.0500 1.43291   9
   5   1   7 24.8489 2.26657   4
   5   1   7 21.8640 1.47693  11
   5   1   7 23.4733 1.43757  10
   5   1   7 22.4437 1.30909   8
   6   1   7 145.733 7.84736   8
   6   1   7 152.985 9.20784   4
   6   1   7 154.598 8.92419   3
   6   1   7 150.159 8.43398   2
   6   1   7 144.318 8.03858  11
   6   1   7 148.410 7.95881  10
   6   1   7 143.421 7.95283   9
   7   1   7 152.824 7.65287  10
   7   1   7 137.630 9.05712   4
   7   1   7 147.241 7.66777  12
   7   1   7 138.710 7.74331  11
   7   1   7 131.068 7.46188   8
   8   1   7 57.5314 3.16863  10
   8   1   7 54.7464 3.09698   9
   8   1   7 54.8256 3.18969  12
   8   1   7 56.1106 3.32890  11
   9   1   7 107.720 5.63450   9
   9   1   7 109.898 5.88438  11
   9   1   7 103.550 5.71884  10
   9   1   7 101.184 5.75691  12
  10   1   7 111.084 5.72675  11
  10   1   7 96.7097 5.55986  10
  11   1   7 1.24053 0.33963  11
   9  -2  -7 11.1641 0.81742  17
   8  -2  -7 -0.0059 0.24325  10
   8  -2  -7 0.55460 0.35337  17
   8  -2  -7 0.37025 0.48497  18
   7  -2  -7 5.20813 0.66985  17
   7  -2  -7 6.18221 0.89962  18
   7  -2  -7 4.68895 0.49627  10
   6  -2  -7 1.50600 0.43364  17
   6  -2  -7 0.87229 0.31430   9
   6  -2  -7 0.98588 0.34415  10
   6  -2  -7 1.14541 0.68764  18
   5  -2  -7 17.7288 1.51558   2
   5  -2  -7 16.5344 1.06650  10
   5  -2  -7 9.85598 1.88560   3
   5  -2  -7 14.6633 1.06018  16
   5  -2  -7 17.3930 1.26139  17
   5  -2  -7 17.2521 1.45756  18
   5  -2  -7 17.1063 1.08967   9
   5  -2  -7 16.7335 1.88955   7
   4  -2  -7 68.4909 3.71870   8
   4  -2  -7 63.0921 3.83891  16
   4  -2  -7 69.6908 3.81699   9
   4  -2  -7 70.8720 4.53228   7
   4  -2  -7 70.2168 5.20107   3
   4  -2  -7 73.4077 3.94606  17
   4  -2  -7 71.2261 3.81995  10
   4  -2  -7 73.4522 4.21809   2
   4  -2  -7 70.7145 4.08121  15
   3  -2  -7 122.623 6.70449   7
   3  -2  -7 117.180 7.37399   3
   3  -2  -7 108.455 6.11676   9
   3  -2  -7 120.406 6.49125   2
   3  -2  -7 105.724 6.04270   8
   3  -2  -7 114.142 6.11291  10
   2  -2  -7 35.7369 2.58265   7
   2  -2  -7 40.9684 3.42254   3
   2  -2  -7 38.7626 2.52117   2
   2  -2  -7 36.3949 2.69398   6
   1  -2  -7 202.050 11.6583   3
   1  -2  -7 199.127 11.1687   6
   1  -2  -7 200.363 10.9935   2
   0  -2  -7 16.3974 2.06335   3
   0  -2  -7 14.4396 1.55557   1
   0  -2  -7 15.5232 1.43132   6
   0  -2  -7 17.7405 1.41914   2
  -1  -2  -7 542.036 27.6066   6
  -1  -2  -7 546.950 28.3397   3
  -1  -2  -7 550.186 27.6562   2
  -1  -2  -7 498.095 27.8664   1
   1   2   7 438.867 27.8902   1
  -2  -2  -7 3.12686 0.58610   6
  -2  -2  -7 3.38060 0.80304   2
  -2  -2  -7 3.42755 1.26854   3
  -2  -2  -7 1.64703 0.74405   1
   2   2   7 2.47166 0.64870   2
   2   2   7 3.88008 0.67938   4
   2   2   7 2.79495 0.98318   3
   2   2   7 2.53281 0.86794   1
   3   2   7 32.0406 2.41663   4
   3   2   7 33.0921 2.68343   3
   3   2   7 33.6219 2.35938   2
   4   2   7 59.2137 3.78184   2
   4   2   7 61.0709 4.25514   3
   4   2   7 60.8529 4.03901   4
   5   2   7 3.76907 0.35617   8
   5   2   7 4.07207 1.09047   4
   5   2   7 4.80086 1.42821   3
   5   2   7 4.93262 0.94451   2
   6   2   7 175.380 9.35597   9
   6   2   7 189.005 9.91021   2
   6   2   7 162.496 9.39067  11
   6   2   7 159.990 9.34759  10
   6   2   7 174.273 10.3714   3
   6   2   7 175.183 9.25488   8
   6   2   7 190.378 10.4870   4
   7   2   7 475.481 26.3402  10
   7   2   7 510.488 26.2216   8
   7   2   7 481.848 26.8445   2
   7   2   7 505.184 26.4143  11
   7   2   7 516.433 26.3403   9
   7   2   7 489.564 27.6237   4
   8   2   7 527.403 28.1989   8
   8   2   7 542.125 28.3682  12
   8   2   7 532.044 28.4525  11
   8   2   7 535.159 28.3449   9
   8   2   7 539.586 28.3702  10
   9   2   7 0.34314 0.56636  11
   9   2   7 1.31328 0.35440  10
   9   2   7 1.61580 0.34399  12
  10   2   7 0.14697 0.28659  10
  10   2   7 -0.2934 0.53793  11
  10   2   7 0.43504 0.20728   9
   8  -3  -7 0.83622 0.37997  17
   8  -3  -7 1.11766 0.44310  18
   7  -3  -7 80.7402 4.64955  16
   7  -3  -7 85.7390 4.91010  18
   7  -3  -7 88.8253 4.59015  10
   7  -3  -7 85.4148 4.75098  17
   6  -3  -7 344.154 19.1647  16
   6  -3  -7 370.515 19.1026  10
   6  -3  -7 352.284 19.4465  18
   6  -3  -7 375.786 19.2849  17
   5  -3  -7 1005.88 53.6542  10
   5  -3  -7 1005.57 53.7147  16
   5  -3  -7 1028.73 53.6286   9
   5  -3  -7 1054.63 53.8222  17
   5  -3  -7 985.001 54.4262   7
   5  -3  -7 1021.34 53.9604  18
   4  -3  -7 3.44236 0.71113   2
   4  -3  -7 3.59403 1.03927   7
   4  -3  -7 3.16153 0.77619  15
   4  -3  -7 3.07108 0.38430   9
   4  -3  -7 2.76960 1.40910   3
   4  -3  -7 3.54504 0.50122  17
   4  -3  -7 4.75318 0.70747  18
   4  -3  -7 3.41096 0.49266  16
   4  -3  -7 3.34033 0.39018  10
   3  -3  -7 128.059 6.97897   9
   3  -3  -7 123.084 7.02659  16
   3  -3  -7 136.887 7.31673   2
   3  -3  -7 138.417 7.11735  17
   3  -3  -7 127.768 7.15858  15
   3  -3  -7 127.760 7.86344   6
   3  -3  -7 122.755 8.15776   3
   3  -3  -7 139.295 7.68867   7
   3  -3  -7 131.012 6.98576  10
   2  -3  -7 222.584 12.3295   9
   2  -3  -7 220.968 12.3200  10
   2  -3  -7 248.305 12.8895   7
   2  -3  -7 242.806 13.0789   6
   2  -3  -7 241.987 13.5190   3
   2  -3  -7 226.966 12.4013  16
   2  -3  -7 220.249 12.2573   8
   2  -3  -7 240.354 12.6601   2
   1  -3  -7 21.7588 1.76714   7
   1  -3  -7 22.2665 1.97202   6
   1  -3  -7 20.5480 1.62136   2
   1  -3  -7 23.1805 2.54532   3
   0  -3  -7 20.3264 2.70533   3
   0  -3  -7 22.6017 1.69566   2
   0  -3  -7 22.9046 1.88127   6
  -1  -3  -7 4.35274 0.81984   2
  -1  -3  -7 4.58943 1.41933   3
  -1  -3  -7 4.36387 0.82472   6
  -2  -3  -7 41.4046 2.80464   2
  -2  -3  -7 39.8891 3.10029   1
  -2  -3  -7 44.1767 2.83618   6
  -2  -3  -7 43.6511 3.61792   3
   2   3   7 36.1444 3.12088   1
  -3  -3  -7 40.4861 2.81125   2
  -3  -3  -7 39.2892 3.56166   3
  -3  -3  -7 39.0876 2.74033   6
   3   3   7 39.4667 2.74857   4
  -4  -3  -7 7.20241 1.06146   6
   4   3   7 8.97819 1.26595   4
   4   3   7 8.13244 1.13058   2
   4   3   7 7.83843 1.48221   3
   5   3   7 285.580 15.1717   4
   5   3   7 238.523 14.1723   8
   5   3   7 276.184 14.7658   2
   5   3   7 275.358 15.2766   3
   6   3   7 334.027 19.4422   9
   6   3   7 383.687 20.0095   2
   6   3   7 399.581 20.5990   4
   6   3   7 351.038 19.4538  11
   6   3   7 367.001 19.3519   8
   6   3   7 366.418 20.5610   3
   7   3   7 7.63314 0.86168  11
   7   3   7 8.09312 0.68076   8
   7   3   7 8.20099 1.34474   2
   7   3   7 6.17185 1.70652   3
   7   3   7 8.86265 1.82666   4
   7   3   7 7.51806 0.86431   9
   8   3   7 0.43157 0.44745   9
   8   3   7 -0.1747 0.45519  10
   8   3   7 0.17186 0.48733  11
   8   3   7 0.09935 0.23690   8
   8   3   7 1.34699 1.06142   4
   9   3   7 119.151 6.88110  12
   9   3   7 130.069 6.94749  10
   9   3   7 133.800 7.03921  11
   9   3   7 127.790 6.91244   9
  10   3   7 0.06685 0.50308  11
  10   3   7 -0.3150 0.42345  10
  11   3   7 18.7612 1.18034  10
   8  -4  -7 10.0491 0.76852  17
   7  -4  -7 117.644 6.20105  17
   7  -4  -7 111.583 6.30054  18
   7  -4  -7 110.081 6.11947  16
   6  -4  -7 126.659 6.66704  10
   6  -4  -7 116.737 6.98856  18
   6  -4  -7 135.349 6.91090  17
   6  -4  -7 121.716 6.77312  16
   5  -4  -7 41.6562 2.31958  10
   5  -4  -7 46.0486 2.60678  17
   5  -4  -7 40.1391 2.42540  16
   5  -4  -7 39.8987 2.75039  15
   4  -4  -7 266.098 13.8214   9
   4  -4  -7 265.557 14.6823   7
   4  -4  -7 260.214 13.9690  16
   4  -4  -7 284.397 14.0889  17
   4  -4  -7 234.852 14.2738   3
   4  -4  -7 237.678 13.9380   2
   4  -4  -7 271.187 13.8889  10
   4  -4  -7 273.975 14.1598  15
   3  -4  -7 9.38026 0.95978   2
   3  -4  -7 9.29567 0.76042  16
   3  -4  -7 9.45345 0.65795   9
   3  -4  -7 9.71751 0.93191  17
   3  -4  -7 10.2550 1.12083  15
   3  -4  -7 8.70176 1.63701   6
   3  -4  -7 9.99016 0.68406  10
   3  -4  -7 6.44909 1.44807   3
   3  -4  -7 10.0731 1.38522   7
   2  -4  -7 61.6481 3.75026   7
   2  -4  -7 54.7645 3.04143   9
   2  -4  -7 49.0054 4.12771   3
   2  -4  -7 54.8310 3.13365  16
   2  -4  -7 55.3282 3.05283  10
   2  -4  -7 53.2418 3.21534  15
   2  -4  -7 56.4203 3.93167   6
   2  -4  -7 58.1481 3.34049   2
   2  -4  -7 58.6617 3.19099  17
   1  -4  -7 59.8456 3.35526  14
   1  -4  -7 55.0331 3.09284  10
   1  -4  -7 56.4426 3.78422   6
   1  -4  -7 55.1796 3.10326   9
   1  -4  -7 55.4439 3.01138   8
   1  -4  -7 59.8687 3.43648   2
   1  -4  -7 53.6823 3.15285  16
   1  -4  -7 61.8662 3.64506   7
   1  -4  -7 51.8116 4.43931   3
   0  -4  -7 297.373 17.1116   3
   0  -4  -7 303.172 16.5201   6
   0  -4  -7 297.297 16.1760   2
   0  -4  -7 297.964 16.2801   7
  -1  -4  -7 39.6688 3.53554   3
  -1  -4  -7 37.1106 2.80281   6
  -1  -4  -7 40.1445 2.61719   2
  -2  -4  -7 147.398 8.55004   6
  -2  -4  -7 146.089 8.39516   2
  -2  -4  -7 149.993 9.27042   3
  -3  -4  -7 681.339 37.8972   3
  -3  -4  -7 679.027 37.0631   2
  -3  -4  -7 712.319 37.2061   6
  -4  -4  -7 11.0745 1.46497   6
   4   4   7 8.30869 1.34656   4
  -5  -4  -7 18.5632 1.97423   6
   5   4   7 20.0747 2.07070   4
   6   4   7 164.664 9.02404   8
   6   4   7 175.468 10.2295   4
   7   4   7 133.083 8.60405   4
   7   4   7 138.058 7.27516   8
   8   4   7 16.3180 2.59506   4
   8   4   7 16.6576 1.34607   9
   8   4   7 19.3002 1.35790  11
   8   4   7 18.9168 1.13447   8
   9   4   7 40.6611 2.24511   8
   9   4   7 40.1941 2.51722  11
   9   4   7 42.0356 2.44625   9
  10   4   7 45.5356 2.51124   9
  10   4   7 40.5171 2.54006  11
  10   4   7 44.0584 2.53859  10
  11   4   7 50.0464 2.74893  10
  11   4   7 46.0211 2.76734  11
  11   4   7 50.2261 2.66728   9
   7  -5  -7 78.5364 4.10159  16
   7  -5  -7 71.9840 4.18508  17
   6  -5  -7 3.54808 0.54068  17
   6  -5  -7 3.91493 0.49405  16
   5  -5  -7 1.59964 0.21347  10
   5  -5  -7 2.06605 0.61382  17
   5  -5  -7 1.58147 0.40428  16
   5  -5  -7 1.92823 0.63758  15
   4  -5  -7 3.76684 0.68108  15
   4  -5  -7 3.50005 0.57924  16
   4  -5  -7 5.06177 0.61650  17
   4  -5  -7 3.73951 0.37506  10
   4  -5  -7 2.32508 1.15182   7
   3  -5  -7 141.856 9.07020   6
   3  -5  -7 157.717 8.19412  17
   3  -5  -7 156.036 8.11880  16
   3  -5  -7 146.912 7.99094  10
   3  -5  -7 143.895 8.71229   7
   3  -5  -7 149.953 8.26447  15
   2  -5  -7 8.99653 0.64416   9
   2  -5  -7 9.65514 0.91180   2
   2  -5  -7 11.7638 1.34213  14
   2  -5  -7 8.44291 1.24629   7
   2  -5  -7 9.46448 0.88022  16
   2  -5  -7 9.28674 1.57876   6
   2  -5  -7 9.95348 0.67556  10
   2  -5  -7 7.38792 1.27670   3
   2  -5  -7 9.82727 0.91249  17
   2  -5  -7 11.1013 1.08463  15
   1  -5  -7 379.460 20.4951   7
   1  -5  -7 377.025 19.9323   9
   1  -5  -7 361.067 20.9456   3
   1  -5  -7 392.411 20.1917  14
   1  -5  -7 373.353 20.0459  17
   1  -5  -7 364.785 19.9425  10
   1  -5  -7 372.654 20.1067  15
   1  -5  -7 365.518 20.7823   6
   1  -5  -7 378.310 20.0270  16
   1  -5  -7 402.896 20.2201   2
   0  -5  -7 409.487 20.3348  10
   0  -5  -7 393.977 20.3845  16
   0  -5  -7 393.710 20.7607   7
   0  -5  -7 394.450 20.6309   2
   0  -5  -7 406.365 21.1547   6
   0  -5  -7 356.002 20.3675  17
   0  -5  -7 364.125 20.3037   9
   0  -5  -7 367.149 20.2225   8
   0  -5  -7 392.960 20.4945  14
   0  -5  -7 369.368 20.4206  15
   0  -5  -7 376.666 21.5291   3
  -1  -5  -7 732.280 41.0088   8
  -1  -5  -7 776.353 41.1176  10
  -1  -5  -7 790.967 41.4608   7
  -1  -5  -7 752.017 41.0894   9
  -1  -5  -7 834.818 41.8913   6
  -1  -5  -7 760.943 42.4129   3
  -1  -5  -7 803.376 41.4658   2
  -2  -5  -7 120.260 6.96438   8
  -2  -5  -7 139.448 7.56516   2
  -2  -5  -7 137.903 7.88822   6
  -2  -5  -7 130.418 8.57789   3
  -3  -5  -7 58.5559 3.86675   6
  -3  -5  -7 54.0383 4.57728   3
  -3  -5  -7 57.0336 3.69363   2
  -3  -5  -7 51.9076 2.99923   8
  -4  -5  -7 306.269 17.7197   3
  -4  -5  -7 283.709 16.0447   8
  -4  -5  -7 295.470 16.7466   2
  -4  -5  -7 328.466 17.0519   6
  -5  -5  -7 2.62938 1.04614   6
  -5  -5  -7 2.34266 0.42682   8
   5   5   7 1.87124 1.01411   4
  -6  -5  -7 3.88921 1.18322   6
   6   5   7 2.16122 1.09798   4
   7   5   7 4.82629 0.47873   8
   7   5   7 3.24186 1.45482   4
   8   5   7 52.7099 2.91966   8
   9   5   7 4.78918 0.52828   8
   9   5   7 5.03821 0.65019  11
   9   5   7 4.97901 0.67665   9
  10   5   7 3.41026 0.32464   8
  10   5   7 2.99021 0.56881   9
  10   5   7 2.39064 0.57641  11
  11   5   7 0.92196 0.45310  11
   6  -6  -7 0.62647 0.36224  17
   6  -6  -7 0.04071 0.31284  16
   5  -6  -7 31.3346 2.20280  15
   5  -6  -7 33.5609 1.96510  16
   5  -6  -7 33.6381 2.10401  17
   4  -6  -7 42.4567 2.46902  17
   4  -6  -7 43.1445 2.39676  16
   4  -6  -7 37.9698 2.17067  10
   4  -6  -7 41.0918 2.55404  15
   3  -6  -7 1.49910 0.49633  16
   3  -6  -7 0.89401 0.48643  15
   3  -6  -7 1.18652 0.22069  10
   3  -6  -7 0.86235 0.52613  17
   2  -6  -7 331.842 16.7309  14
   2  -6  -7 313.175 16.4717  16
   2  -6  -7 303.505 16.3385  10
   2  -6  -7 301.728 16.5059  17
   2  -6  -7 310.573 16.5978  15
   2  -6  -7 289.688 17.3644   6
   1  -6  -7 62.1140 3.46317  16
   1  -6  -7 64.8029 3.71272  14
   1  -6  -7 60.4932 3.43975   2
   1  -6  -7 61.7854 3.53772  15
   1  -6  -7 59.1741 3.45577  17
   1  -6  -7 59.1077 4.35962   6
   1  -6  -7 60.2032 3.26989   9
   1  -6  -7 62.0774 3.33200  10
   1  -6  -7 57.4445 3.81157   3
   0  -6  -7 142.550 7.84234  15
   0  -6  -7 148.305 8.61992   6
   0  -6  -7 148.996 7.66031   9
   0  -6  -7 151.756 7.96097   2
   0  -6  -7 138.294 8.59209   3
   0  -6  -7 144.292 7.91474  14
   0  -6  -7 124.481 7.73184  17
   0  -6  -7 150.403 7.78607  16
  -1  -6  -7 601.013 33.2289  14
  -1  -6  -7 648.095 33.4491   2
  -1  -6  -7 647.273 34.0073   6
  -1  -6  -7 589.008 34.1950   3
  -1  -6  -7 658.068 33.1685  16
  -1  -6  -7 622.381 33.2231  15
  -1  -6  -7 602.047 32.9700   8
  -1  -6  -7 607.832 33.0800   9
  -1  -6  -7 659.427 33.1205  10
  -2  -6  -7 28.7551 1.86608  15
  -2  -6  -7 28.4252 3.15774   3
  -2  -6  -7 28.0597 1.60200   8
  -2  -6  -7 28.7238 1.74719   9
  -2  -6  -7 30.8949 2.68742   6
  -2  -6  -7 28.4961 2.21052   2
  -2  -6  -7 30.7665 1.79548  10
  -3  -6  -7 -0.6431 1.33082   3
  -3  -6  -7 0.87968 0.95496   6
  -3  -6  -7 0.32980 0.42149  10
  -3  -6  -7 -0.4742 0.70803   2
  -3  -6  -7 0.06050 0.25430   8
  -3  -6  -7 0.31928 0.34924  15
  -3  -6  -7 0.29055 0.40228   9
  -4  -6  -7 7.10043 1.52676   6
  -4  -6  -7 5.21902 0.54862   8
  -4  -6  -7 5.03335 0.65391   9
  -4  -6  -7 5.41441 1.21602   2
  -4  -6  -7 5.52153 1.91407   3
  -4  -6  -7 4.43470 0.59942  15
  -5  -6  -7 133.145 7.74242   6
  -5  -6  -7 105.023 8.21669   3
  -6  -6  -7 103.567 5.56719   8
  -6  -6  -7 98.8198 6.72048   6
  -7  -6  -7 104.677 5.77140   8
  -7  -6  -7 106.482 7.04210   6
   8   6   7 2.82697 0.41587   8
   9   6   7 2.42425 0.38053   8
  10   6   7 6.42148 0.53974   8
  10   6   7 6.55253 0.82089  11
  10   6   7 5.92516 0.69963   9
  11   6   7 6.87181 0.62614  11
  11   6   7 6.96641 0.60088   9
   6  -7  -7 1.29242 0.29206  17
   6  -7  -7 1.61763 0.28835  16
   5  -7  -7 11.4357 0.94638  16
   5  -7  -7 9.48503 0.91825  17
   4  -7  -7 8.02528 0.89419  15
   4  -7  -7 8.08529 0.76010  17
   4  -7  -7 8.71739 0.90486  16
   3  -7  -7 8.44987 0.77353  16
   3  -7  -7 7.93197 0.93169  15
   3  -7  -7 8.13653 0.88699  17
   2  -7  -7 0.37298 0.64298  14
   2  -7  -7 0.17733 0.18715  10
   2  -7  -7 0.17903 0.46647  16
   2  -7  -7 0.47037 0.63030  15
   2  -7  -7 0.07061 0.44056  17
   1  -7  -7 502.011 26.9795  15
   1  -7  -7 542.817 26.8887  16
   1  -7  -7 462.174 27.7755   6
   1  -7  -7 511.538 26.7367  10
   1  -7  -7 536.573 27.1069  14
   1  -7  -7 478.718 26.8644  17
   0  -7  -7 41.2514 2.28170  10
   0  -7  -7 35.3875 2.60069   3
   0  -7  -7 43.4128 2.40009  16
   0  -7  -7 37.8688 2.32666   2
   0  -7  -7 41.4837 2.18398   9
   0  -7  -7 37.9154 3.39376   6
   0  -7  -7 42.3333 2.57020  14
   0  -7  -7 41.5752 2.48598  15
  -1  -7  -7 10.6333 1.68824   6
  -1  -7  -7 8.40830 1.03161   2
  -1  -7  -7 10.0487 0.81018  10
  -1  -7  -7 6.07881 1.42760   3
  -1  -7  -7 9.74874 0.74418   9
  -1  -7  -7 8.99876 1.08963  14
  -1  -7  -7 9.96659 1.02624  15
  -1  -7  -7 11.3058 0.95577  16
  -2  -7  -7 9.76341 1.17394   2
  -2  -7  -7 8.20960 0.97848  15
  -2  -7  -7 8.77163 1.64355   6
  -2  -7  -7 7.29759 0.81990  14
  -2  -7  -7 10.3085 0.91346  16
  -2  -7  -7 9.73259 0.76824   9
  -2  -7  -7 9.67408 0.84201  10
  -2  -7  -7 5.90316 1.53037   3
  -3  -7  -7 392.450 21.4456   2
  -3  -7  -7 368.452 22.2624   3
  -3  -7  -7 397.871 22.0300   6
  -3  -7  -7 393.682 20.8961   9
  -3  -7  -7 392.127 21.0225  15
  -3  -7  -7 392.946 20.7613   8
  -3  -7  -7 411.967 20.9293  10
  -4  -7  -7 0.34440 0.47704  10
  -4  -7  -7 -0.4259 1.48584   3
  -4  -7  -7 -0.1969 1.12964   6
  -4  -7  -7 -0.0189 0.29000   8
  -4  -7  -7 0.22558 0.45356   9
  -4  -7  -7 0.23025 0.30853  15
  -4  -7  -7 0.06604 0.91235   2
  -5  -7  -7 4.06911 1.95382   3
  -5  -7  -7 5.91796 0.73952   9
  -5  -7  -7 5.82008 0.74331  15
  -5  -7  -7 2.67275 1.27026   2
  -5  -7  -7 5.20925 1.71801   6
  -5  -7  -7 4.86345 0.50379   8
  -6  -7  -7 201.018 10.5390   8
  -6  -7  -7 194.653 10.6950   9
  -6  -7  -7 192.186 11.8995   6
  -6  -7  -7 198.832 10.7550  15
   8   7   7 2.82340 0.47283   8
   9   7   7 11.0525 0.76560   8
  10   7   7 129.233 6.71358   8
  10   7   7 122.390 6.83493  11
 -11  -7  -7 38.2678 2.18070   8
  11   7   7 37.5142 2.21268  11
  11   7   7 38.8009 2.21883   9
  11   7   7 41.1435 2.08481   8
   5  -8  -7 17.1197 1.06081  16
   4  -8  -7 38.2958 2.08774  16
   4  -8  -7 32.5260 2.08638  17
   4  -8  -7 37.0621 2.19229  15
   3  -8  -7 32.8364 2.18430  15
   3  -8  -7 34.4987 1.96891  16
   3  -8  -7 31.2624 1.98280  17
   2  -8  -7 1.16021 0.36785  16
   2  -8  -7 0.61227 0.67219  14
   2  -8  -7 0.60117 0.47691  15
   1  -8  -7 12.0020 1.22706  14
   1  -8  -7 11.9905 1.07841  15
   1  -8  -7 11.8353 0.71099  10
   1  -8  -7 11.5759 1.06396  16
   0  -8  -7 32.8506 2.39574  14
   0  -8  -7 35.3602 2.28459  15
   0  -8  -7 35.7710 2.15574  16
   0  -8  -7 34.1308 1.94674  10
  -1  -8  -7 139.742 7.94592  14
  -1  -8  -7 148.568 7.94750  15
  -1  -8  -7 148.841 7.84147  16
  -1  -8  -7 125.603 8.78691   6
  -1  -8  -7 151.257 7.72700  10
  -2  -8  -7 8.77619 0.93450  15
  -2  -8  -7 8.59206 0.80800  16
  -2  -8  -7 9.70665 0.86883  10
  -2  -8  -7 9.73798 1.05865  14
  -2  -8  -7 8.42106 0.73142   9
  -2  -8  -7 7.57199 1.70231   6
  -3  -8  -7 226.706 11.8410   9
  -3  -8  -7 204.488 12.9338   6
  -3  -8  -7 203.183 12.3230   2
  -3  -8  -7 228.377 11.8895  10
  -3  -8  -7 232.162 11.9224  16
  -3  -8  -7 226.853 12.0385  15
  -4  -8  -7 462.015 23.8872  10
  -4  -8  -7 438.626 23.6812   8
  -4  -8  -7 458.375 23.8576   9
  -4  -8  -7 416.951 25.0357   6
  -4  -8  -7 464.918 24.0082  15
  -5  -8  -7 36.3330 2.24130   9
  -5  -8  -7 33.4783 2.15687  10
  -5  -8  -7 36.8514 2.36477  15
  -5  -8  -7 35.7348 1.99536   8
  -5  -8  -7 30.6855 3.54849   6
  -6  -8  -7 1.01272 0.44176   9
  -6  -8  -7 0.55528 0.40750  15
  -6  -8  -7 0.49768 0.38978   8
  -7  -8  -7 105.815 5.48295   8
  -7  -8  -7 94.6901 5.65282   9
  -7  -8  -7 101.686 5.73302  15
  -8  -8  -7 61.7033 3.37440   8
  -8  -8  -7 59.1649 3.58502  15
  -9  -8  -7 0.73257 0.46716  15
  -9  -8  -7 1.41240 0.30778   8
   9   8   7 0.41993 0.35693   8
 -10  -8  -7 37.6766 2.06055   8
  10   8   7 33.9496 2.09167  11
  10   8   7 37.7294 2.01843   8
 -11  -8  -7 310.070 16.9195   8
  11   8   7 329.770 16.8754   8
   3  -9  -7 4.37797 0.46607  16
   3  -9  -7 3.77311 0.55847  15
   2  -9  -7 316.946 16.1966  16
   2  -9  -7 291.413 16.3021  15
   1  -9  -7 1.31285 0.48872  15
   1  -9  -7 1.37099 0.89031  14
   1  -9  -7 0.60718 0.47335  16
   0  -9  -7 7.74879 0.95454  14
   0  -9  -7 7.93090 0.49422  10
   0  -9  -7 8.29673 0.91969  15
   0  -9  -7 9.39245 0.92377  16
  -1  -9  -7 241.778 13.7501  14
  -1  -9  -7 266.922 13.6186  16
  -1  -9  -7 249.841 13.4812  10
  -1  -9  -7 258.757 13.7380  15
  -2  -9  -7 140.707 7.61253  16
  -2  -9  -7 130.836 7.71941  14
  -2  -9  -7 144.492 7.75800  15
  -2  -9  -7 143.076 7.52465  10
  -3  -9  -7 35.1385 2.15660  10
  -3  -9  -7 35.6091 2.02783   9
  -3  -9  -7 34.6075 2.28554  15
  -3  -9  -7 37.0478 2.19850  16
  -4  -9  -7 32.2965 2.02117  10
  -4  -9  -7 30.1107 1.97721  16
  -4  -9  -7 30.6930 2.07886  15
  -4  -9  -7 32.6954 1.91293   9
  -5  -9  -7 31.5162 2.00410  16
  -5  -9  -7 34.3408 2.13628  10
  -5  -9  -7 33.7519 2.08043   9
  -5  -9  -7 33.4242 2.25655  15
  -6  -9  -7 0.51754 0.56691   9
  -6  -9  -7 0.69006 0.56333  15
  -6  -9  -7 0.51201 0.41473  10
  -6  -9  -7 -0.0618 0.22731   8
  -6  -9  -7 0.86236 0.32936  16
  -7  -9  -7 0.52131 0.24963   8
  -7  -9  -7 0.53472 0.41199  15
  -7  -9  -7 0.22422 0.56518   9
  -8  -9  -7 0.49453 0.38715  15
  -8  -9  -7 0.36455 0.27779   8
  -8  -9  -7 -0.5229 0.53211   9
  -9  -9  -7 225.188 12.3582   9
  -9  -9  -7 233.568 12.2309   8
  -9  -9  -7 232.844 12.4029  15
 -10  -9  -7 19.2515 1.14336   8
  10   9   7 20.8079 1.18772   8
   2 -10  -7 14.8383 0.94464  16
   2 -10  -7 15.1369 1.06205  15
   1 -10  -7 60.2014 3.47409  16
   1 -10  -7 66.0658 3.61671  15
   0 -10  -7 2.41817 0.46239  16
   0 -10  -7 3.01453 0.54421  15
   0 -10  -7 2.53487 0.80948  14
  -1 -10  -7 -0.4785 0.48306  14
  -1 -10  -7 0.58362 0.44106  15
  -1 -10  -7 0.14407 0.27628  16
  -2 -10  -7 27.4171 1.74096  16
  -2 -10  -7 28.3830 1.93357  15
  -2 -10  -7 27.8896 1.57039  10
  -2 -10  -7 26.9923 1.91236  14
  -3 -10  -7 44.3873 2.63714  16
  -3 -10  -7 45.1525 2.58756  10
  -3 -10  -7 47.4494 2.85062  15
  -4 -10  -7 121.384 6.25029  10
  -4 -10  -7 99.5280 6.20383  16
  -4 -10  -7 116.927 6.09145   9
  -4 -10  -7 121.066 6.45839  15
  -5 -10  -7 0.12773 0.43216  15
  -5 -10  -7 0.85787 0.53253  10
  -5 -10  -7 0.24833 0.37555  16
  -5 -10  -7 1.02322 0.36415   9
  -6 -10  -7 420.678 22.2665  15
  -6 -10  -7 410.363 22.1457  10
  -6 -10  -7 418.454 22.0978   9
  -7 -10  -7 0.71772 0.52817  15
  -7 -10  -7 0.21792 0.36707  10
  -7 -10  -7 0.71251 0.47565   9
  -8 -10  -7 29.1829 1.83192  15
  -9 -10  -7 47.8437 2.78049  15
  -9 -10  -7 49.6300 2.74730   9
   0 -11  -7 138.936 7.53149  15
  -1 -11  -7 1.38844 0.49643  14
  -1 -11  -7 1.79919 0.43639  15
  -1 -11  -7 2.35251 0.30058  16
  -2 -11  -7 0.36652 0.40353  15
  -2 -11  -7 0.47297 0.54837  14
  -3 -11  -7 14.1078 0.82519  10
  -3 -11  -7 13.4255 1.09599  15
  -4 -11  -7 258.268 14.3118  10
  -4 -11  -7 281.997 14.5095  15
  -5 -11  -7 26.0738 1.72658  15
  -5 -11  -7 26.7053 1.61470  10
  -6 -11  -7 2.09620 0.46504  15
  -6 -11  -7 1.87136 0.49276  10
  -7 -11  -7 250.942 13.6684  10
  -7 -11  -7 262.557 13.6009   9
  -8 -11  -7 68.3731 3.65892   9
  -8 -11  -7 66.6625 3.76750  15
  -3 -12  -7 0.79776 0.30571  15
  -4 -12  -7 8.10138 0.71648  15
  -5 -12  -7 22.8851 1.25774  10
  -6 -12  -7 6.28382 0.58597  15
  -6  -9   8 20.5785 1.34880  14
  -5  -9   8 0.88194 0.43191  14
  -5  -9   8 0.70945 0.36234  10
  -3  -9   8 27.5902 1.69575  13
  -3  -9   8 31.5610 1.66150  10
  -3  -9   8 26.9520 1.85094  14
  -2  -9   8 8.71751 0.56854  10
  -2  -9   8 7.44441 0.83862  14
  -2  -9   8 8.74204 0.71712  13
   0  -9   8 13.6664 0.93042  13
  -7  -8   8 7.13661 0.82348   9
  -7  -8   8 5.85032 0.73154  14
  -6  -8   8 16.2203 1.11387   9
  -6  -8   8 15.4931 1.26253  14
  -5  -8   8 32.8858 1.89849  10
  -5  -8   8 29.0241 1.99631  14
  -5  -8   8 30.1802 1.83104   9
  -4  -8   8 15.3656 1.26798  14
  -4  -8   8 15.7935 1.08908   9
  -4  -8   8 15.2875 1.16822  10
  -3  -8   8 140.365 7.58645   9
  -3  -8   8 153.280 7.72557  10
  -3  -8   8 140.166 7.87714  14
  -3  -8   8 138.144 7.77745  13
  -2  -8   8 22.2213 1.35217  10
  -2  -8   8 20.3547 1.42465  13
  -2  -8   8 20.6544 1.49403  14
  -1  -8   8 23.9194 1.69293  14
  -1  -8   8 24.8869 1.45198  10
  -1  -8   8 25.2715 1.63107  13
   0  -8   8 19.1754 1.28293  13
   0  -8   8 17.9810 1.26315  12
   0  -8   8 17.4951 1.00499  10
   1  -8   8 261.308 15.4139  12
   1  -8   8 318.138 15.4886  13
   2  -8   8 11.2229 0.85863  13
   2  -8   8 13.0687 0.89176  12
   3  -8   8 31.6728 1.81781  12
   8   7  -8 64.5190 3.50685   8
  -8  -7   8 65.5816 3.49337   8
  -8  -7   8 64.7199 3.64084   9
  -7  -7   8 2.47352 0.58538  14
  -7  -7   8 1.96896 0.32275   8
  -7  -7   8 2.10266 0.49006   9
  -6  -7   8 143.446 7.90445  14
  -6  -7   8 132.925 7.54582   8
  -6  -7   8 149.884 7.77009   9
  -5  -7   8 142.688 7.44280   9
  -5  -7   8 128.394 7.20646   8
  -5  -7   8 137.906 7.58690  14
  -4  -7   8 1.85614 0.49939  10
  -4  -7   8 1.48902 0.51795  14
  -4  -7   8 1.96493 0.45908   9
  -3  -7   8 13.3606 1.13718  13
  -3  -7   8 12.9344 1.08572  10
  -3  -7   8 11.8372 1.17113  14
  -3  -7   8 12.8646 1.18097   9
  -2  -7   8 271.720 14.4236  13
  -2  -7   8 255.913 14.4877  14
  -2  -7   8 275.574 14.3053  10
  -2  -7   8 268.286 14.2503   9
  -1  -7   8 39.7826 2.29191  10
  -1  -7   8 36.8612 2.51589  14
  -1  -7   8 40.5442 2.49443  13
   0  -7   8 13.8503 1.28306  13
   0  -7   8 14.7681 1.14636  12
   0  -7   8 14.2063 0.97398  10
   1  -7   8 3.24579 0.35638  10
   1  -7   8 2.87596 0.58901  12
   1  -7   8 3.79064 0.55138  13
   2  -7   8 0.84095 0.50736  13
   2  -7   8 0.79292 0.39223  12
   3  -7   8 40.4873 2.32320  12
   3  -7   8 37.4565 2.26880  13
   4  -7   8 15.6235 0.97868  13
   9   6  -8 0.59481 0.29225  18
   9   6  -8 0.39286 0.14464   8
  -9  -6   8 0.58808 0.33747   8
   8   6  -8 0.38730 0.23545   8
  -8  -6   8 1.25952 0.33450   8
  -7  -6   8 34.9454 2.10186   8
  -6  -6   8 95.2573 5.34097   9
  -6  -6   8 95.9559 5.23017   8
  -5  -6   8 49.7068 2.88846   8
  -5  -6   8 52.7173 3.08365   9
  -4  -6   8 34.1412 2.37582  10
  -4  -6   8 41.1897 2.40530   9
  -4  -6   8 42.2321 2.24847   8
  -3  -6   8 7.38386 0.82034   9
  -3  -6   8 8.50192 0.91261  13
  -3  -6   8 6.87321 0.59501   8
  -3  -6   8 8.28495 0.86160  10
  -2  -6   8 1.44830 0.45054  10
  -2  -6   8 1.08451 0.50411  13
  -2  -6   8 1.35362 0.48844  14
  -2  -6   8 1.12496 0.47074   9
  -1  -6   8 1.02214 0.52326  13
  -1  -6   8 0.71723 0.35632   9
  -1  -6   8 0.65700 0.41634  10
  -1  -6   8 0.46057 0.57139  14
   0  -6   8 68.2408 4.20791  12
   0  -6   8 77.6584 4.05938   9
   0  -6   8 81.8866 4.36920  13
   0  -6   8 69.1639 4.28773  14
   0  -6   8 78.8363 4.16668  10
   1  -6   8 0.42953 0.31161  10
   1  -6   8 0.23158 0.62815  11
   1  -6   8 -0.2425 0.54254  13
   1  -6   8 0.25397 0.35715  12
   2  -6   8 25.8175 1.81696  12
   2  -6   8 28.9535 1.98047  11
   2  -6   8 26.7216 1.55048  10
   2  -6   8 25.7777 1.76786  13
   3  -6   8 113.505 6.19388  12
   3  -6   8 111.960 6.28338  11
   3  -6   8 111.281 6.18927  13
   4  -6   8 30.7096 1.98019  11
   4  -6   8 31.1022 1.86288  13
   4  -6   8 31.0561 1.88820  12
   5  -6   8 2.60600 0.45911  11
   5  -6   8 1.77780 0.34247  12
   9   5  -8 2.08597 0.19646   8
   9   5  -8 0.99632 0.35848   9
   9   5  -8 1.99284 0.42215  18
  -9  -5   8 1.81360 0.34605   8
   8   5  -8 4.79181 0.46331   8
  -8  -5   8 5.66689 0.54294   8
   7   5  -8 215.420 11.6727   8
  -7  -5   8 223.353 11.7330   8
  -6  -5   8 30.3086 1.91440   8
  -5  -5   8 16.6622 1.14094   8
  -4  -5   8 3.31342 0.52414   8
  -4  -5   8 3.25309 0.53380   9
  -4  -5   8 2.30953 1.01222   5
  -3  -5   8 465.348 23.3523   9
  -3  -5   8 439.244 23.2936  10
  -3  -5   8 424.067 24.6173   5
  -3  -5   8 441.989 23.2093   8
  -3  -5   8 444.432 23.3631  13
  -3  -5   8 409.482 24.0031   2
  -2  -5   8 74.0751 4.09530  10
  -2  -5   8 71.1726 4.80478   2
  -2  -5   8 67.1796 5.26699   5
  -2  -5   8 76.0656 4.21455  13
  -2  -5   8 71.9901 4.13058   9
  -2  -5   8 75.4992 3.97931   8
  -1  -5   8 5.45572 1.12714   2
  -1  -5   8 5.15287 0.52270  10
  -1  -5   8 3.98544 0.32864   8
  -1  -5   8 5.23565 0.60466  13
  -1  -5   8 4.77442 1.33395   5
  -1  -5   8 4.13597 0.69176  14
  -1  -5   8 3.95653 0.55750   9
   0  -5   8 304.513 16.5265  12
   0  -5   8 289.818 16.8879   2
   0  -5   8 311.909 16.4675   9
   0  -5   8 295.916 16.6362  14
   0  -5   8 326.389 16.5007  10
   0  -5   8 308.394 17.8467   5
   0  -5   8 328.345 16.6324  13
   1  -5   8 218.511 11.7220  11
   1  -5   8 216.252 11.5645  10
   1  -5   8 227.716 11.7268  13
   1  -5   8 198.089 12.7559   5
   1  -5   8 216.594 11.4869   9
   1  -5   8 216.032 11.6466  12
   2  -5   8 -0.5568 0.50049  13
   2  -5   8 0.14037 0.35590  12
   2  -5   8 -0.0079 0.36881  10
   2  -5   8 0.03047 1.26131   5
   2  -5   8 0.29560 0.60861  11
   3  -5   8 15.3433 1.14333  12
   3  -5   8 13.9605 0.95973  10
   3  -5   8 15.5373 1.27762  13
   3  -5   8 13.8429 1.23023  11
   4  -5   8 225.522 11.6929  12
   4  -5   8 218.487 11.7607  11
   4  -5   8 214.997 11.4527  10
   4  -5   8 209.317 11.6816  13
   5  -5   8 10.5111 1.00590  11
   5  -5   8 11.2743 1.03182  12
   6  -5   8 1.17698 0.34917  12
   6  -5   8 1.21927 0.42042  11
   7  -5   8 15.9913 1.06948  11
   9   4  -8 69.5681 3.71975   9
   9   4  -8 64.8039 3.55901   8
   8   4  -8 0.72483 0.29600   8
   7   4  -8 2.32822 0.40141   8
   6   4  -8 69.8908 3.84939   8
  -6  -4   8 70.8248 3.91843   8
  -5  -4   8 612.684 32.4344   8
  -4  -4   8 82.6266 5.81775   5
  -4  -4   8 90.9264 4.81921   8
  -3  -4   8 2.04295 1.36683   3
  -3  -4   8 4.22208 1.12838   2
  -3  -4   8 3.77665 0.55251  13
  -3  -4   8 4.42692 0.62384   9
  -3  -4   8 5.62851 1.45530   5
  -3  -4   8 4.61989 0.50850   8
  -2  -4   8 25.6005 2.89050   3
  -2  -4   8 31.2321 1.87952   9
  -2  -4   8 30.4284 1.74484   8
  -2  -4   8 27.5858 1.80352  10
  -2  -4   8 30.1344 3.03631   5
  -2  -4   8 33.2368 2.59704   2
  -2  -4   8 29.1549 1.92137  13
  -1  -4   8 20.2156 1.32223  10
  -1  -4   8 20.0422 1.98817   2
  -1  -4   8 17.4201 2.26492   3
  -1  -4   8 19.7865 1.22823   8
  -1  -4   8 19.8688 1.36490   9
  -1  -4   8 25.1920 2.65175   5
  -1  -4   8 20.2744 1.45716  13
   0  -4   8 17.9725 1.05614   8
   0  -4   8 20.8925 2.43737   5
   0  -4   8 17.4278 1.24291   9
   0  -4   8 16.6490 2.01093   3
   0  -4   8 17.6006 1.23218  12
   0  -4   8 17.7872 1.34501  11
   0  -4   8 19.7063 1.38871  13
   0  -4   8 17.9389 1.80793   2
   0  -4   8 19.2825 1.22660  10
   1  -4   8 575.403 30.6404  12
   1  -4   8 559.859 30.6996  11
   1  -4   8 569.775 30.5579   9
   1  -4   8 579.300 30.5835  10
   1  -4   8 632.881 30.7286  13
   1  -4   8 539.360 31.2250   3
   1  -4   8 569.604 30.9801   2
   1  -4   8 595.146 31.8602   5
   2  -4   8 7.42866 1.03675  11
   2  -4   8 9.63384 2.01336   4
   2  -4   8 8.67522 1.72214   5
   2  -4   8 8.92620 1.01428   2
   2  -4   8 10.5006 0.96508  12
   2  -4   8 8.29794 0.88026  10
   2  -4   8 8.88896 0.99900  13
   2  -4   8 9.44843 0.72009   9
   3  -4   8 0.43512 0.57245  11
   3  -4   8 1.24201 0.34983  10
   3  -4   8 -1.7104 1.45609   4
   3  -4   8 0.14586 0.44948  13
   3  -4   8 1.93779 0.53881  12
   4  -4   8 0.95110 0.61903  11
   4  -4   8 1.06004 0.29592  10
   4  -4   8 1.16243 0.51887  12
   4  -4   8 -0.0811 0.44834  13
   5  -4   8 7.10937 0.88357  11
   5  -4   8 7.61953 0.51346  10
   5  -4   8 6.59153 0.75772  12
   6  -4   8 59.6762 3.58268  11
   6  -4   8 62.6343 3.46704  12
   7  -4   8 25.3419 1.62845  11
   7  -4   8 25.3613 1.54798  12
   9   3  -8 1.87707 0.47924  18
   9   3  -8 0.85056 0.43324   9
   8   3  -8 189.888 10.1110   9
   8   3  -8 186.905 9.98836   8
   7   3  -8 1.07186 0.32988   8
   6   3  -8 5.74054 0.62763   8
   5   3  -8 0.95541 0.27139   8
  -4  -3   8 27.1031 1.68017   8
  -4  -3   8 26.8775 2.46895   5
  -3  -3   8 40.9126 3.31529   5
  -3  -3   8 37.0199 2.20029   8
  -2  -3   8 0.69632 0.95718   5
  -2  -3   8 0.85298 0.38179   9
  -2  -3   8 0.62196 0.80169   2
  -2  -3   8 0.83334 1.09137   3
  -2  -3   8 0.99230 0.32880   8
  -1  -3   8 353.376 20.7727  10
  -1  -3   8 433.069 21.4080   2
  -1  -3   8 378.688 20.8031   9
  -1  -3   8 374.480 20.7225   8
  -1  -3   8 401.743 21.7566   3
  -1  -3   8 419.107 21.9627   5
   0  -3   8 18.6717 1.14703   8
   0  -3   8 19.8825 1.28425   9
   0  -3   8 19.6958 2.25810   5
   0  -3   8 19.4252 2.35956   3
   0  -3   8 18.8048 1.26235  10
   0  -3   8 21.1039 1.83490   2
   1  -3   8 27.6051 1.64683   9
   1  -3   8 27.0501 1.50840   8
   1  -3   8 27.8684 2.96406   4
   1  -3   8 28.4166 2.53499   5
   1  -3   8 26.7742 2.21208   2
   1  -3   8 26.4123 2.43888   3
   1  -3   8 25.1431 1.67224  12
   1  -3   8 28.1015 1.65490  10
   2  -3   8 12.9488 0.91442  12
   2  -3   8 11.5855 0.86085   9
   2  -3   8 13.6444 2.17229   4
   2  -3   8 9.62081 1.59437   3
   2  -3   8 12.4383 0.95797  13
   2  -3   8 11.9447 1.82870   5
   2  -3   8 10.2088 0.93748  11
   2  -3   8 11.8824 1.28994   2
   2  -3   8 12.3182 0.89960  10
   3  -3   8 203.612 11.1180  11
   3  -3   8 213.981 11.0392  12
   3  -3   8 206.472 12.5923   4
   3  -3   8 192.515 11.9519   5
   3  -3   8 218.659 10.9629  10
   3  -3   8 215.014 11.0825  13
   3  -3   8 200.982 11.2232   2
   3  -3   8 204.646 10.9093   9
   3  -3   8 184.793 11.4574   3
   4  -3   8 1.59060 0.81285  18
   4  -3   8 2.03382 0.47998  11
   4  -3   8 1.63650 0.43920   2
   4  -3   8 1.88553 1.51850   4
   4  -3   8 2.01196 0.45842  13
   4  -3   8 1.76470 0.50950  12
   4  -3   8 2.03415 0.24040   9
   4  -3   8 2.49463 0.44013  10
   5  -3   8 15.0893 1.32786  18
   5  -3   8 15.5989 1.16042  12
   5  -3   8 15.2112 1.36456  11
   5  -3   8 16.2949 1.05555  10
   6  -3   8 8.97344 0.94986  12
   6  -3   8 7.20148 0.91391  18
   6  -3   8 7.67947 0.58411  10
   6  -3   8 6.83225 0.87196  11
   7  -3   8 3.17818 0.61004  18
   7  -3   8 1.94763 0.65035  11
   7  -3   8 2.52234 0.42747  12
   8  -3   8 4.23261 0.52401  11
   8  -3   8 3.36025 0.45116  12
   9   2  -8 13.5882 0.87288  10
   9   2  -8 10.4818 0.80869   9
   9   2  -8 13.0335 1.05185  18
   8   2  -8 2.54769 0.23538   8
   8   2  -8 2.89184 0.52548   9
   8   2  -8 3.36312 0.62957  18
   7   2  -8 17.3024 1.05057   8
   7   2  -8 16.5686 1.28637   9
   6   2  -8 2.64486 0.37874   8
   6   2  -8 2.46240 0.52316   9
   5   2  -8 43.9071 3.30980   7
   5   2  -8 47.9852 2.60887   8
   4   2  -8 159.201 8.81866   7
   4   2  -8 148.921 8.20274   8
   3   2  -8 35.0829 2.56695   7
  -3  -2   8 39.8085 3.12582   5
  -2  -2   8 110.005 6.42658   5
  -2  -2   8 99.9718 6.47662   3
  -2  -2   8 96.6265 5.99601   2
  -2  -2   8 96.2383 5.40787   8
  -1  -2   8 4.54804 1.16626   5
  -1  -2   8 3.39711 1.23264   3
  -1  -2   8 3.97487 0.88594   2
  -1  -2   8 3.06189 0.38691   8
   0  -2   8 202.017 11.7415   3
   0  -2   8 189.217 10.8221   8
   0  -2   8 214.333 11.8301   5
   0  -2   8 213.452 11.3824   2
   1  -2   8 105.107 5.67472   8
   1  -2   8 114.621 6.60019   3
   1  -2   8 100.466 5.75548   9
   1  -2   8 110.358 6.89182   4
   1  -2   8 103.927 5.75654  10
   1  -2   8 92.4617 5.78478  12
   1  -2   8 111.824 6.22460   2
   1  -2   8 120.474 6.74508   5
   2  -2   8 264.004 14.6294   9
   2  -2   8 288.607 15.5819   5
   2  -2   8 284.930 15.9548   4
   2  -2   8 275.445 14.6483  10
   2  -2   8 270.579 14.6610  12
   2  -2   8 273.881 15.4231   3
   2  -2   8 280.962 15.0619   2
   2  -2   8 267.029 14.5416   8
   3  -2   8 21.3152 1.37943  10
   3  -2   8 19.9238 1.50093  11
   3  -2   8 22.4437 1.34813   9
   3  -2   8 21.3300 1.82050   2
   3  -2   8 18.2576 2.14230   5
   3  -2   8 21.8671 2.68009   4
   3  -2   8 23.2939 1.48882  13
   3  -2   8 21.4259 2.08007   3
   3  -2   8 23.8548 1.73345  18
   3  -2   8 23.5141 1.44213  12
   4  -2   8 57.9235 3.50473  13
   4  -2   8 60.2064 3.58803  11
   4  -2   8 63.4692 4.12195   3
   4  -2   8 63.0755 3.43292  10
   4  -2   8 66.7263 3.74645  18
   4  -2   8 61.7494 3.38940   9
   4  -2   8 60.5372 3.73886   2
   4  -2   8 62.4735 3.48285  12
   4  -2   8 56.7118 4.87443   4
   5  -2   8 3.89975 0.67298  11
   5  -2   8 3.96568 1.65343   4
   5  -2   8 3.80345 0.69273   2
   5  -2   8 4.73528 0.51369  10
   5  -2   8 4.74018 0.45556   9
   5  -2   8 4.80731 0.61046  12
   5  -2   8 4.68840 0.84849  18
   6  -2   8 76.8911 4.46005  11
   6  -2   8 67.6379 4.43951  18
   6  -2   8 84.2407 4.38306  12
   6  -2   8 81.4100 4.23547  10
   7  -2   8 78.7678 5.02314  18
   7  -2   8 91.5521 5.03160  11
   7  -2   8 88.2575 4.76788  10
   7  -2   8 95.9285 4.95301  12
   8  -2   8 0.67823 0.57201  18
   8  -2   8 0.58467 0.39685  12
   8  -2   8 1.14313 0.58222  11
   9  -2   8 1.17189 0.38532  11
   9   1  -8 7.64282 0.98973  18
   9   1  -8 8.11725 0.57814   9
   9   1  -8 8.37393 0.73770  10
   8   1  -8 2.65820 0.72777  18
   8   1  -8 3.06520 0.46534   9
   8   1  -8 2.63964 0.52039  10
   7   1  -8 6.60569 0.67214  10
   7   1  -8 7.25068 0.52957   8
   7   1  -8 6.98709 0.82711   9
   6   1  -8 341.545 18.1020   9
   6   1  -8 324.511 18.1759  17
   6   1  -8 353.521 17.9892   8
   5   1  -8 10.4427 0.68483   8
   5   1  -8 9.23905 0.80377  17
   5   1  -8 9.17058 1.37762   7
   5   1  -8 6.52145 1.26860   2
   5   1  -8 7.57345 0.83320   9
   5   1  -8 3.38800 1.82107   3
   4   1  -8 11.1819 1.27993   7
   4   1  -8 10.5189 0.72035   8
   3   1  -8 220.139 10.9375   7
   3   1  -8 172.005 10.2736   8
  -1  -1   8 394.905 21.5680   3
  -1  -1   8 383.441 21.0764   2
   0  -1   8 50.7846 3.76094   3
   0  -1   8 51.3074 3.29825   2
   1  -1   8 334.963 19.1671   4
   1  -1   8 356.659 19.1107   3
   1  -1   8 343.465 18.7183   2
   2  -1   8 634.428 36.2098   8
   2  -1   8 723.267 37.1552   3
   2  -1   8 698.324 36.6947   2
   2  -1   8 694.409 37.3395   4
   3  -1   8 158.356 8.96013   3
   3  -1   8 155.948 8.93027   5
   3  -1   8 149.544 8.13406   9
   3  -1   8 147.082 8.14207  12
   3  -1   8 146.227 8.14118  10
   3  -1   8 157.092 8.55385   2
   3  -1   8 144.133 8.03650   8
   3  -1   8 159.657 9.36159   4
   4  -1   8 43.0895 2.79324   2
   4  -1   8 39.3176 2.49099  11
   4  -1   8 44.0907 3.72339   4
   4  -1   8 42.4482 2.40207   9
   4  -1   8 43.9505 2.46487  12
   4  -1   8 42.9535 2.46713  13
   4  -1   8 42.2380 2.28345   8
   4  -1   8 42.1686 2.60106  18
   4  -1   8 44.0281 2.43610  10
   4  -1   8 41.6764 3.25070   3
   5  -1   8 0.11068 0.68124   2
   5  -1   8 0.92576 1.25512   4
   5  -1   8 1.10846 0.28814   9
   5  -1   8 1.76637 0.40728  11
   5  -1   8 0.42999 0.98322   3
   5  -1   8 1.02235 0.35707  10
   5  -1   8 0.65530 0.56075  18
   5  -1   8 1.31446 0.32569  12
   6  -1   8 5.26489 1.75809   4
   6  -1   8 6.57045 0.98289  18
   6  -1   8 7.15063 0.71255  10
   6  -1   8 6.18360 0.76729  11
   6  -1   8 7.77907 0.62610   9
   6  -1   8 8.95048 0.84105  12
   7  -1   8 0.44215 0.57300  18
   7  -1   8 0.59233 0.34659  10
   7  -1   8 0.60696 0.35046  12
   7  -1   8 0.53985 0.40439  11
   8  -1   8 3.72406 0.70771  11
   8  -1   8 3.84086 0.57633  12
   8  -1   8 4.88799 0.49084  10
   9  -1   8 37.9582 2.04740  10
   9  -1   8 38.3322 2.28458  11
   9   0  -8 22.6677 1.51998  18
   8   0  -8 92.9590 5.43654  18
   8   0  -8 94.7000 5.16220  10
   8   0  -8 97.2428 5.12744   9
   7   0  -8 29.2148 2.07709  18
   7   0  -8 27.6683 1.72418  10
   7   0  -8 26.7611 1.75922  17
   7   0  -8 28.1528 1.71035   9
   6   0  -8 14.4838 1.07147   9
   6   0  -8 13.3471 1.05796  10
   6   0  -8 11.4895 1.67405   7
   6   0  -8 12.8129 1.01317  17
   6   0  -8 14.6262 0.82638   8
   5   0  -8 179.259 9.75366   9
   5   0  -8 167.619 10.2573   2
   5   0  -8 188.776 9.81366  17
   5   0  -8 174.475 11.4233   3
   5   0  -8 190.599 9.65656   8
   5   0  -8 179.204 10.4519   7
   5   0  -8 185.748 9.75137  10
   4   0  -8 81.5190 4.80067   9
   4   0  -8 93.5961 5.46876   7
   4   0  -8 87.0254 6.27245   3
   4   0  -8 88.1960 5.33235   2
   4   0  -8 89.8481 4.71720   8
   3   0  -8 51.4223 4.20901   3
   3   0  -8 49.9701 3.29117   2
   3   0  -8 46.8908 2.71982   8
   3   0  -8 52.8386 3.30435   7
   2   0  -8 1.76346 1.18860   3
   2   0  -8 0.85175 0.77255   2
   0   0   8 390.553 21.5945   2
   0   0   8 409.808 22.0597   3
   1   0   8 71.1752 4.59620   3
   1   0   8 67.7596 4.16565   2
   1   0   8 67.2441 4.38612   4
   2   0   8 426.662 23.7298   3
   2   0   8 440.301 23.3150   2
   2   0   8 430.160 23.7321   4
   3   0   8 83.4500 4.98593   2
   3   0   8 87.2963 5.47217   3
   3   0   8 80.3098 4.48131   8
   3   0   8 85.2139 5.55080   4
   4   0   8 0.73158 0.35916  10
   4   0   8 0.64070 0.31995   9
   4   0   8 0.18980 0.94333   4
   4   0   8 0.50092 0.93308   3
   4   0   8 0.06923 0.44049   5
   4   0   8 0.81658 0.22620   8
   4   0   8 0.93772 0.77244   2
   5   0   8 10.9749 0.81071   9
   5   0   8 10.5618 0.63894   8
   5   0   8 10.2507 1.58600   3
   5   0   8 8.82916 1.81822   4
   5   0   8 10.9369 1.33225   2
   5   0   8 9.62942 0.91453  11
   5   0   8 9.19184 0.75748  10
   5   0   8 10.6927 0.85844  12
   6   0   8 772.164 38.4785  12
   6   0   8 711.264 38.5322  11
   6   0   8 770.406 38.4385  10
   6   0   8 681.992 38.7667   2
   6   0   8 684.940 39.8377   4
   6   0   8 735.576 38.3981   9
   7   0   8 4.55014 0.51859   9
   7   0   8 4.85022 0.56311  10
   7   0   8 4.02783 0.58509  11
   7   0   8 4.05544 0.59970  12
   8   0   8 15.3098 1.18794  12
   8   0   8 15.7944 0.86576   9
   8   0   8 14.8258 1.30343  11
   8   0   8 14.3995 1.05880  10
   9   0   8 188.110 9.40697  10
   9   0   8 163.600 9.44860  12
   9   0   8 177.500 9.55261  11
  10   0   8 6.28481 0.39257  10
  10   0   8 7.33748 0.68203  11
   9  -1  -8 17.9404 1.35536  18
   9  -1  -8 19.5881 1.08193  10
   8  -1  -8 0.46334 0.42203  17
   8  -1  -8 0.17963 0.33060  10
   8  -1  -8 0.72601 0.66184  18
   7  -1  -8 131.665 6.87403  10
   7  -1  -8 128.623 7.15773  18
   7  -1  -8 118.893 6.93369  17
   7  -1  -8 130.139 6.83430   9
   6  -1  -8 13.8342 1.01586  10
   6  -1  -8 14.0414 1.13641  17
   6  -1  -8 13.5767 1.22330  18
   6  -1  -8 12.3533 0.97565   9
   5  -1  -8 43.8919 3.11678   2
   5  -1  -8 48.3641 2.50361   8
   5  -1  -8 43.2804 3.28044   7
   5  -1  -8 45.4979 2.63323  10
   5  -1  -8 47.2155 2.63273   9
   5  -1  -8 46.0239 2.73517  17
   4  -1  -8 5.44960 0.50454   8
   4  -1  -8 7.49764 1.11987   7
   4  -1  -8 4.80577 0.52341  10
   4  -1  -8 6.07741 0.71016  17
   4  -1  -8 5.10643 0.62974   9
   4  -1  -8 6.41807 1.03018   2
   4  -1  -8 5.52004 1.65260   3
   3  -1  -8 63.3382 3.26629   8
   3  -1  -8 65.0275 4.77038   3
   3  -1  -8 55.1199 3.32062  10
   3  -1  -8 63.4669 3.83891   2
   3  -1  -8 63.1911 3.88484   7
   3  -1  -8 56.3147 3.34289   9
   2  -1  -8 312.039 17.2922   7
   2  -1  -8 324.072 18.0714   3
   2  -1  -8 313.292 17.2060   2
   1  -1  -8 65.4763 4.10908   2
   1  -1  -8 70.3092 4.91176   3
   0  -1  -8 495.141 27.8694   2
   0  -1  -8 543.997 28.6346   3
   1   1   8 100.146 5.66190   2
   1   1   8 93.3333 6.02942   3
   2   1   8 44.1339 3.19080   4
   2   1   8 45.1453 3.00147   2
   2   1   8 48.4184 3.52506   3
   3   1   8 73.2016 4.74167   3
   3   1   8 69.1333 4.25375   2
   3   1   8 66.6058 4.59069   4
   4   1   8 495.408 27.7422   9
   4   1   8 528.909 28.7394   4
   4   1   8 500.017 27.6609   8
   4   1   8 539.247 28.7065   3
   4   1   8 562.373 28.2329   2
   5   1   8 124.470 6.89521   9
   5   1   8 129.036 6.80201   8
   5   1   8 131.262 7.37348   2
   5   1   8 135.026 8.09022   4
   5   1   8 122.711 6.91115  10
   5   1   8 126.886 7.88357   3
   6   1   8 0.83496 1.25357   3
   6   1   8 1.09933 1.19584   4
   6   1   8 0.76682 0.40695  10
   6   1   8 0.91193 0.35254   9
   6   1   8 0.47956 0.70237   2
   6   1   8 0.71970 0.23353   8
   6   1   8 0.56984 0.43156  11
   7   1   8 539.281 28.8770  11
   7   1   8 544.292 28.7552   9
   7   1   8 523.167 28.7761  10
   7   1   8 566.617 28.8157  12
   8   1   8 88.8716 4.69707  12
   8   1   8 85.5975 4.61082   9
   8   1   8 80.2979 4.76350  11
   8   1   8 84.2712 4.67434  10
   9   1   8 146.870 7.71715  10
   9   1   8 142.108 7.74922  12
   9   1   8 141.324 7.85505  11
   9   1   8 143.597 7.59594   9
  10   1   8 17.7848 1.31502  11
  10   1   8 18.0155 1.09734  10
   8  -2  -8 26.6663 1.78721  18
   8  -2  -8 25.6143 1.64277  17
   8  -2  -8 29.3928 1.55812  10
   7  -2  -8 8.71185 1.17004  18
   7  -2  -8 8.89111 0.92153  17
   7  -2  -8 9.57117 0.73665  10
   6  -2  -8 15.0096 1.46954  18
   6  -2  -8 16.1769 1.26280  17
   6  -2  -8 15.5315 1.06154  10
   6  -2  -8 14.7150 0.97757   9
   5  -2  -8 220.978 13.6947   7
   5  -2  -8 244.122 13.2707  18
   5  -2  -8 246.997 12.9942   9
   5  -2  -8 262.043 13.1425  17
   5  -2  -8 243.221 13.0098  10
   4  -2  -8 57.9243 3.25945   8
   4  -2  -8 63.3069 3.83540   2
   4  -2  -8 57.7294 4.94107   3
   4  -2  -8 63.9711 3.50950  17
   4  -2  -8 59.8303 4.13121   7
   4  -2  -8 61.8413 3.38019   9
   4  -2  -8 61.5318 3.37377  10
   3  -2  -8 0.73900 0.30960   9
   3  -2  -8 1.00492 1.32938   3
   3  -2  -8 0.45617 0.21296   8
   3  -2  -8 0.26155 0.59907   2
   3  -2  -8 0.14471 0.68897   7
   3  -2  -8 0.45090 0.29235  10
   2  -2  -8 170.079 9.01446   2
   2  -2  -8 168.319 9.15553   7
   2  -2  -8 147.692 8.57976   9
   2  -2  -8 162.960 9.31059   6
   2  -2  -8 149.106 8.50779   8
   2  -2  -8 172.121 9.92273   3
   1  -2  -8 7.76221 0.99405   2
   1  -2  -8 8.38429 1.71551   3
   1  -2  -8 6.02245 1.03120   6
   0  -2  -8 39.0471 2.73620   2
   0  -2  -8 40.6374 2.80396   6
   0  -2  -8 44.6501 3.61193   3
  -1  -2  -8 103.483 6.21778   2
  -1  -2  -8 110.826 7.13294   3
   3   2   8 134.783 7.58453   2
   3   2   8 135.701 8.03904   3
   3   2   8 127.129 7.75336   4
   4   2   8 10.1307 1.78269   3
   4   2   8 10.6580 1.54905   4
   4   2   8 7.69649 0.60537   8
   5   2   8 3.02176 0.96442   2
   5   2   8 3.18160 0.50617   9
   5   2   8 3.12492 1.45116   3
   5   2   8 3.54629 0.35398   8
   5   2   8 5.57924 1.26113   4
   6   2   8 78.0150 5.59246   3
   6   2   8 82.0813 4.53394  10
   6   2   8 81.9188 5.12092   2
   6   2   8 82.8289 5.70154   4
   6   2   8 81.3507 4.53785   9
   6   2   8 87.3373 4.41091   8
   6   2   8 78.6606 4.54018  11
   7   2   8 84.7654 6.03509   4
   7   2   8 87.4801 4.81083  10
   7   2   8 85.7413 4.84794  11
   7   2   8 88.8683 4.65262   8
   8   2   8 122.741 6.93892  11
   8   2   8 131.810 6.82415   9
   8   2   8 118.716 6.84447  10
   8   2   8 130.542 6.84447  12
   9   2   8 0.83218 0.44936  10
   9   2   8 0.52864 0.31391   9
   9   2   8 1.30847 0.42995  11
   9   2   8 0.70689 0.40429  12
  10   2   8 0.72214 0.38645  10
  10   2   8 0.60622 0.37058  11
  11   2   8 10.8342 0.77067  11
  11   2   8 9.77916 0.62375  10
   8  -3  -8 71.6558 3.96116  17
   7  -3  -8 52.3706 2.94033  10
   7  -3  -8 53.6555 3.26451  18
   7  -3  -8 56.0614 3.09724  17
   6  -3  -8 75.8814 4.60302  18
   6  -3  -8 82.5128 4.44675  17
   6  -3  -8 83.3650 4.28367  10
   6  -3  -8 73.0173 4.33315  16
   5  -3  -8 1150.22 58.0312   9
   5  -3  -8 1148.13 58.1916  17
   5  -3  -8 1094.31 58.0266  10
   5  -3  -8 1060.30 58.3000  18
   5  -3  -8 1046.90 58.0656  16
   4  -3  -8 150.396 7.68009  10
   4  -3  -8 154.600 7.84980  17
   4  -3  -8 120.057 8.78813   3
   4  -3  -8 135.871 7.70696  16
   4  -3  -8 139.745 8.02317   2
   4  -3  -8 148.148 7.66284   9
   4  -3  -8 141.093 8.47907   7
   4  -3  -8 148.082 7.89180  15
   3  -3  -8 34.1048 1.89452   9
   3  -3  -8 33.4867 2.67487   7
   3  -3  -8 27.7468 3.44431   3
   3  -3  -8 35.1012 2.01019  17
   3  -3  -8 30.8316 2.13513  15
   3  -3  -8 30.3524 1.94261  16
   3  -3  -8 32.4029 1.76267   8
   3  -3  -8 34.7785 2.29456   2
   3  -3  -8 34.2740 1.89616  10
   2  -3  -8 127.928 6.94585   8
   2  -3  -8 132.049 8.43309   3
   2  -3  -8 133.878 7.41990   2
   2  -3  -8 141.862 7.64554   7
   2  -3  -8 127.863 7.01908  10
   2  -3  -8 128.010 7.02689   9
   2  -3  -8 139.863 7.90187   6
   2  -3  -8 122.068 7.04772  16
   1  -3  -8 256.980 13.6797   2
   1  -3  -8 267.914 14.7352   3
   1  -3  -8 232.909 13.2233   8
   1  -3  -8 225.985 13.2896   9
   1  -3  -8 260.157 14.0027   6
   1  -3  -8 265.554 13.8636   7
   0  -3  -8 32.0491 2.29633   2
   0  -3  -8 32.1913 2.45150   6
   0  -3  -8 31.2558 3.20361   3
  -1  -3  -8 30.8330 2.29474   2
  -1  -3  -8 30.7501 3.17922   3
  -1  -3  -8 31.5297 2.31210   6
  -2  -3  -8 31.6534 2.26908   6
  -2  -3  -8 31.6349 2.36713   2
  -2  -3  -8 29.1503 3.18468   3
   4   3   8 4.41840 1.04309   4
   5   3   8 117.677 6.63788   8
   5   3   8 123.055 7.85401   3
   5   3   8 134.009 7.65051   4
   6   3   8 449.640 23.8468   9
   6   3   8 433.533 24.4055   2
   6   3   8 433.427 24.9831   3
   6   3   8 465.329 23.7438   8
   6   3   8 461.291 24.9333   4
   7   3   8 11.1298 2.00227   4
   7   3   8 12.6713 0.86507   8
   7   3   8 13.5800 1.09616   9
   7   3   8 12.8879 1.07390  11
   7   3   8 12.6808 1.69498   2
   8   3   8 4.07236 0.40309   8
   8   3   8 3.89941 0.59099   9
   8   3   8 3.29296 0.61132  11
   8   3   8 4.09609 0.52055  10
   9   3   8 59.5947 3.36981  10
   9   3   8 60.0004 3.41357  11
   9   3   8 58.3333 3.33121  12
  10   3   8 1.43768 0.34999  10
  10   3   8 2.29685 0.44210  11
  10   3   8 1.75993 0.32427   9
  11   3   8 8.47098 0.65243  11
  11   3   8 6.54764 0.53629  10
   7  -4  -8 235.645 11.5900  17
   7  -4  -8 196.788 11.4721  16
   6  -4  -8 22.2357 1.43649  16
   6  -4  -8 24.2095 1.55009  17
   6  -4  -8 23.4096 1.33230  10
   5  -4  -8 2.70057 0.64195  17
   5  -4  -8 2.86175 0.53151  16
   5  -4  -8 2.95071 0.34733  10
   4  -4  -8 5.65806 0.92161  15
   4  -4  -8 4.65194 0.70918  17
   4  -4  -8 6.76162 0.57294  10
   4  -4  -8 4.82939 0.44939   9
   4  -4  -8 2.70965 1.12187   7
   4  -4  -8 4.78513 0.59385  16
   3  -4  -8 0.67172 0.84568   7
   3  -4  -8 0.87851 1.27399   3
   3  -4  -8 0.66059 0.58030   2
   3  -4  -8 0.36409 0.29054   9
   3  -4  -8 0.57039 0.62302  15
   3  -4  -8 0.06469 0.45073  17
   3  -4  -8 0.14887 0.38161  16
   3  -4  -8 0.39600 0.27534  10
   2  -4  -8 155.109 11.2109   3
   2  -4  -8 190.194 10.9642   6
   2  -4  -8 180.362 10.2012  15
   2  -4  -8 183.797 10.0808  16
   2  -4  -8 192.413 10.0239   9
   2  -4  -8 196.130 10.7263   7
   2  -4  -8 191.490 10.3762   2
   2  -4  -8 205.440 10.1723  17
   2  -4  -8 192.820 10.0329  10
   1  -4  -8 50.9242 3.52710   6
   1  -4  -8 51.3727 3.26210   7
   1  -4  -8 47.5742 2.55246   8
   1  -4  -8 46.8428 2.70762  16
   1  -4  -8 48.5651 3.02611   2
   1  -4  -8 45.0544 2.64199  10
   1  -4  -8 45.9990 4.15442   3
   1  -4  -8 46.0295 2.64468   9
   0  -4  -8 174.222 10.0585   9
   0  -4  -8 195.045 10.4762   2
   0  -4  -8 203.819 10.8226   6
   0  -4  -8 200.809 11.7319   3
   0  -4  -8 182.416 10.0606  10
   0  -4  -8 183.362 10.0930  16
   0  -4  -8 180.681 9.98395   8
   0  -4  -8 197.347 10.5978   7
  -1  -4  -8 43.3531 3.93299   3
  -1  -4  -8 44.8181 2.83827   2
  -1  -4  -8 37.4243 2.23266   8
  -1  -4  -8 42.1115 2.99664   6
  -2  -4  -8 59.1514 3.84520   6
  -2  -4  -8 55.2945 4.73928   3
  -2  -4  -8 57.1111 3.75695   2
  -3  -4  -8 154.512 8.91520   6
  -3  -4  -8 153.056 8.87356   2
  -3  -4  -8 152.669 9.82857   3
   6   4   8 3.10139 0.37753   8
   6   4   8 2.12768 1.09865   4
   7   4   8 1.13118 0.32392   8
   7   4   8 0.35306 1.18054   4
   7   4   8 1.31521 0.52618   9
   8   4   8 2.73443 0.54289  11
   8   4   8 1.93486 0.54928   9
   8   4   8 1.99742 0.34615   8
   9   4   8 1.96881 0.52164   9
   9   4   8 1.51359 0.23519   8
   9   4   8 0.94647 0.50101  11
  10   4   8 104.947 5.60502  10
  10   4   8 96.5536 5.52951  12
  10   4   8 106.666 5.66125  11
  11   4   8 41.5859 2.52647  11
  11   4   8 43.9954 2.47983  10
  11   4   8 46.5084 2.39713   9
   6  -5  -8 26.7322 1.65262  16
   6  -5  -8 29.1547 1.81140  17
   5  -5  -8 15.8012 1.15507  16
   5  -5  -8 14.1831 1.13041  17
   5  -5  -8 14.8827 0.88569  10
   4  -5  -8 0.92304 0.54278  17
   4  -5  -8 0.29862 0.23253  10
   4  -5  -8 0.47042 0.53004  15
   4  -5  -8 0.08256 0.43664  16
   3  -5  -8 6.87702 0.77424  17
   3  -5  -8 7.00416 0.91650  15
   3  -5  -8 7.15875 0.80491  16
   3  -5  -8 5.69282 1.23982   7
   3  -5  -8 5.10777 1.33829   6
   3  -5  -8 6.23597 0.56631  10
   2  -5  -8 176.979 9.76378   2
   2  -5  -8 169.376 10.4759   6
   2  -5  -8 186.784 9.63712  16
   2  -5  -8 186.752 9.53993  10
   2  -5  -8 183.585 9.68807  17
   2  -5  -8 182.389 9.76958  15
   2  -5  -8 185.001 9.50903   9
   2  -5  -8 160.281 10.4428   3
   2  -5  -8 170.797 10.2379   7
   1  -5  -8 429.332 22.7320   2
   1  -5  -8 441.927 22.5303  17
   1  -5  -8 428.133 22.4882  16
   1  -5  -8 432.663 22.4174  10
   1  -5  -8 428.784 23.0502   7
   1  -5  -8 412.195 22.5711  15
   1  -5  -8 378.555 23.5995   3
   1  -5  -8 424.558 22.4035   9
   1  -5  -8 431.193 22.6587  14
   1  -5  -8 422.230 23.3480   6
   0  -5  -8 33.2727 2.10898  15
   0  -5  -8 27.0576 3.61131   3
   0  -5  -8 36.5876 2.01968  10
   0  -5  -8 35.4730 2.01000   9
   0  -5  -8 33.8089 1.89035   8
   0  -5  -8 36.7516 2.42764   2
   0  -5  -8 38.7886 2.94525   6
   0  -5  -8 34.8927 2.52269   7
   0  -5  -8 35.1456 2.26325  14
   0  -5  -8 35.5461 2.06461  16
  -1  -5  -8 505.314 26.3714   2
  -1  -5  -8 507.421 26.7474   6
  -1  -5  -8 485.274 27.5294   3
  -1  -5  -8 511.594 25.9520  10
  -1  -5  -8 470.097 25.8371   8
  -1  -5  -8 489.164 26.3740   7
  -1  -5  -8 461.274 25.9223   9
  -2  -5  -8 16.6070 1.17300   9
  -2  -5  -8 18.0179 1.92667   6
  -2  -5  -8 16.7563 1.00600   8
  -2  -5  -8 18.5866 1.74646   2
  -2  -5  -8 13.6296 2.46942   3
  -2  -5  -8 15.8993 1.16954  10
  -3  -5  -8 22.3470 1.53995   9
  -3  -5  -8 22.9911 2.16579   2
  -3  -5  -8 24.6249 1.39182   8
  -3  -5  -8 21.3527 2.24876   6
  -3  -5  -8 24.8119 3.27912   3
  -4  -5  -8 84.7953 5.26772   6
  -4  -5  -8 78.8571 4.37108   8
  -4  -5  -8 75.6997 6.13203   3
  -4  -5  -8 80.4939 5.17853   2
  -5  -5  -8 12.4412 0.91380   8
  -5  -5  -8 10.4108 1.61362   6
   7   5   8 128.699 6.90738   8
   8   5   8 9.41956 0.92064  11
   8   5   8 10.3882 0.77209   8
   9   5   8 45.5754 2.49035   8
   9   5   8 43.6868 2.65283  11
   9   5   8 47.2481 2.69435   9
  10   5   8 42.7949 2.59539  12
  10   5   8 49.8429 2.75267  11
  10   5   8 48.2595 2.50554   8
  11   5   8 -0.1916 0.18657   9
  11   5   8 0.91543 0.36900  11
   6  -6  -8 16.9896 1.07299  16
   5  -6  -8 174.837 8.97160  16
   5  -6  -8 158.705 9.01983  17
   4  -6  -8 0.34857 0.46842  16
   4  -6  -8 0.97500 0.54179  15
   4  -6  -8 -0.0756 0.52427  17
   4  -6  -8 0.42268 0.15599  10
   3  -6  -8 6.32612 0.71760  16
   3  -6  -8 6.95713 0.94234  15
   3  -6  -8 6.82445 0.52785  10
   3  -6  -8 8.60021 0.78799  17
   2  -6  -8 90.3537 4.83473  16
   2  -6  -8 76.0525 5.78579   6
   2  -6  -8 88.8033 5.00860  15
   2  -6  -8 88.4411 4.89506  17
   2  -6  -8 88.1062 4.70353  10
   1  -6  -8 14.0454 1.45455  14
   1  -6  -8 12.2194 1.19338  15
   1  -6  -8 12.4629 0.79542   9
   1  -6  -8 9.93504 1.55824   3
   1  -6  -8 12.6845 1.12333   2
   1  -6  -8 12.0551 0.85661  10
   1  -6  -8 12.4013 1.05679  16
   1  -6  -8 13.6849 1.04934  17
   1  -6  -8 11.3165 1.85913   6
   0  -6  -8 2.33453 0.33394   9
   0  -6  -8 1.94794 0.67410   2
   0  -6  -8 1.91792 0.85969   6
   0  -6  -8 2.15562 0.43175  17
   0  -6  -8 0.85044 1.32500   3
   0  -6  -8 1.45936 0.68322  14
   0  -6  -8 1.83725 0.37956  16
   0  -6  -8 2.15492 0.35484  10
   0  -6  -8 1.89788 0.52454  15
  -1  -6  -8 6.48228 0.97703   2
  -1  -6  -8 6.63630 1.28570   6
  -1  -6  -8 6.83858 0.42635   8
  -1  -6  -8 6.83061 0.78806  16
  -1  -6  -8 5.79936 0.78176  14
  -1  -6  -8 3.57741 1.87203   3
  -1  -6  -8 5.58708 0.79320  15
  -1  -6  -8 6.97165 0.71067  10
  -1  -6  -8 6.84236 0.63951   9
  -2  -6  -8 27.9945 3.59540   3
  -2  -6  -8 36.2758 3.01636   6
  -2  -6  -8 33.7462 2.16864  15
  -2  -6  -8 35.5118 2.61379   2
  -2  -6  -8 35.9804 2.08455   9
  -2  -6  -8 35.1305 2.10793  10
  -2  -6  -8 35.8238 1.93493   8
  -3  -6  -8 7.40401 0.82610  15
  -3  -6  -8 8.11112 0.72908  10
  -3  -6  -8 7.72417 0.59937   8
  -3  -6  -8 7.68631 0.83755   9
  -3  -6  -8 8.55704 1.34717   2
  -3  -6  -8 5.16391 1.84960   3
  -3  -6  -8 7.04031 1.47406   6
  -4  -6  -8 0.88224 1.06749   6
  -4  -6  -8 0.59885 1.64056   3
  -4  -6  -8 2.64760 0.37964   8
  -4  -6  -8 2.06833 1.06257   2
  -4  -6  -8 2.02511 0.53180   9
  -5  -6  -8 19.3910 1.27575   8
  -5  -6  -8 20.0149 2.42009   6
  -6  -6  -8 168.315 10.4066   6
  -6  -6  -8 174.713 9.23819   8
   7   6   8 31.0510 1.79205   8
   8   6   8 2.73723 0.41007   8
   9   6   8 266.205 13.2929   8
   9   6   8 234.595 13.4103  11
  10   6   8 7.76884 0.75862   9
  10   6   8 9.11363 0.58336   8
  10   6   8 7.96018 0.82371  11
  11   6   8 6.38966 0.53301   9
  11   6   8 6.05709 0.55253  11
   5  -7  -8 0.79289 0.30640  16
   5  -7  -8 0.37190 0.30820  17
   4  -7  -8 91.9393 4.88941  16
   4  -7  -8 88.9802 4.99891  15
   4  -7  -8 86.7271 4.93502  17
   3  -7  -8 8.33183 0.89380  17
   3  -7  -8 8.53139 1.13043  15
   3  -7  -8 8.47449 0.78381  16
   2  -7  -8 14.0014 1.12654  16
   2  -7  -8 13.7434 1.32508  15
   2  -7  -8 12.2380 1.08496  17
   2  -7  -8 12.9789 0.79691  10
   1  -7  -8 91.8121 5.22222  15
   1  -7  -8 98.4657 5.15076  16
   1  -7  -8 95.0189 4.98931  10
   1  -7  -8 86.2568 5.09993  17
   1  -7  -8 91.0407 5.36605  14
   0  -7  -8 210.381 13.0313   6
   0  -7  -8 189.831 12.1002   2
   0  -7  -8 231.489 12.1464  15
   0  -7  -8 240.306 12.0626  16
   0  -7  -8 231.199 11.8764   9
   0  -7  -8 229.623 11.9391  10
   0  -7  -8 232.902 12.2346  14
  -1  -7  -8 204.857 10.1474  10
  -1  -7  -8 199.146 10.2238  16
  -1  -7  -8 187.878 10.2731  15
  -1  -7  -8 189.594 10.0881   9
  -1  -7  -8 179.039 10.2863  14
  -1  -7  -8 178.641 10.4266   2
  -1  -7  -8 182.895 11.1964   6
  -2  -7  -8 103.796 5.54117  10
  -2  -7  -8 101.301 5.96633   2
  -2  -7  -8 108.761 5.58853  16
  -2  -7  -8 104.977 5.50124   9
  -2  -7  -8 97.4600 6.56621   6
  -2  -7  -8 83.3352 6.73754   3
  -2  -7  -8 99.0791 5.63565  15
  -3  -7  -8 527.265 29.1044   6
  -3  -7  -8 548.117 27.8662   8
  -3  -7  -8 537.704 28.1231  15
  -3  -7  -8 555.740 28.0319  10
  -3  -7  -8 470.573 29.5036   3
  -3  -7  -8 533.676 28.0023   9
  -3  -7  -8 514.271 28.5571   2
  -4  -7  -8 69.0527 3.63713   8
  -4  -7  -8 68.3623 3.77634   9
  -4  -7  -8 66.2168 3.80622  10
  -4  -7  -8 61.1911 4.59451   2
  -4  -7  -8 66.3545 3.84392  15
  -4  -7  -8 64.0366 4.98584   6
  -5  -7  -8 123.439 7.03680  15
  -5  -7  -8 120.247 8.14911   6
  -5  -7  -8 125.697 7.01507   9
  -5  -7  -8 137.383 6.86513   8
  -6  -7  -8 197.552 10.1985   8
  -6  -7  -8 189.745 10.3557   9
  -6  -7  -8 184.010 10.3678  15
  -7  -7  -8 1.89211 0.44489   8
  -8  -7  -8 -0.3339 0.38869   8
   8   7   8 0.35586 0.34836   8
  -9  -7  -8 10.2715 0.80763   8
   9   7   8 10.7170 0.73178   8
  10   7   8 54.4443 2.94457   8
   4  -8  -8 8.32702 0.76885  15
   4  -8  -8 8.75394 0.67674  16
   4  -8  -8 6.60420 0.60098  17
   3  -8  -8 45.1871 2.39115  16
   3  -8  -8 38.3199 2.38507  17
   3  -8  -8 40.0369 2.48751  15
   2  -8  -8 0.15546 0.32650  16
   2  -8  -8 0.30992 0.42212  15
   1  -8  -8 5.90486 0.89492  14
   1  -8  -8 4.55874 0.80865  15
   1  -8  -8 5.84557 0.43910  10
   1  -8  -8 5.49319 0.68925  16
   0  -8  -8 51.9953 3.19283  15
   0  -8  -8 51.7514 2.87902  10
   0  -8  -8 55.8881 3.07620  16
   0  -8  -8 50.2409 3.19752  14
  -1  -8  -8 163.710 9.54372  14
  -1  -8  -8 183.833 9.44741  16
  -1  -8  -8 173.648 9.20986   9
  -1  -8  -8 175.678 9.53148  15
  -2  -8  -8 24.8007 2.94284   6
  -2  -8  -8 27.7449 1.84750  15
  -2  -8  -8 27.5946 1.74541  10
  -2  -8  -8 27.3431 1.66124   9
  -2  -8  -8 30.0182 1.78503  16
  -3  -8  -8 8.36767 0.82917   9
  -3  -8  -8 7.96892 0.93209  16
  -3  -8  -8 6.58172 0.85086  15
  -3  -8  -8 8.29949 0.92339  10
  -3  -8  -8 7.62809 1.73735   6
  -4  -8  -8 614.921 32.5606  15
  -4  -8  -8 634.552 32.2540   8
  -4  -8  -8 609.505 32.4438  10
  -4  -8  -8 556.846 33.5660   6
  -4  -8  -8 636.993 32.4300   9
  -5  -8  -8 165.967 8.92815   8
  -5  -8  -8 174.726 9.12453   9
  -5  -8  -8 172.144 9.21498  15
  -5  -8  -8 158.390 9.10416  10
  -6  -8  -8 3.82549 0.50024   8
  -6  -8  -8 3.93463 0.58022   9
  -6  -8  -8 3.78523 0.65017  15
  -7  -8  -8 6.85008 0.81993   9
  -7  -8  -8 6.96345 0.69822   8
  -7  -8  -8 5.35755 0.73274  15
  -8  -8  -8 15.8729 1.30050  15
  -8  -8  -8 17.9045 1.15976   8
  -9  -8  -8 14.6227 1.05548   8
   9   8   8 15.1624 0.99838   8
 -10  -8  -8 2.37425 0.40468   8
  10   8   8 3.04642 0.29720   8
   3  -9  -8 17.6966 1.13069  16
   3  -9  -8 18.0182 1.20438  15
   2  -9  -8 176.955 9.05688  16
   2  -9  -8 160.152 9.13360  15
   1  -9  -8 15.6206 1.19227  16
   1  -9  -8 15.2750 1.21856  15
   0  -9  -8 75.0797 4.34062  15
   0  -9  -8 69.3563 4.37386  14
   0  -9  -8 84.8353 4.28539  16
   0  -9  -8 74.9957 4.04987  10
  -1  -9  -8 149.047 8.19608  15
  -1  -9  -8 150.041 7.95967  10
  -1  -9  -8 140.167 8.22896  14
  -1  -9  -8 157.217 8.11223  16
  -2  -9  -8 21.7927 1.66588  15
  -2  -9  -8 22.4259 1.54522  16
  -2  -9  -8 21.7290 1.63044  14
  -3  -9  -8 1.49145 0.35575   9
  -3  -9  -8 1.37229 0.46746  15
  -3  -9  -8 1.44904 0.39627  16
  -3  -9  -8 1.35867 0.50340  10
  -4  -9  -8 81.6516 4.46946   9
  -4  -9  -8 80.0126 4.67887  15
  -4  -9  -8 82.2756 4.55047  10
  -4  -9  -8 80.5989 4.56300  16
  -5  -9  -8 5.74881 0.68699  16
  -5  -9  -8 4.74693 0.76352  15
  -5  -9  -8 5.26950 0.66656   9
  -5  -9  -8 4.42530 0.69650  10
  -6  -9  -8 48.7893 2.95238  16
  -6  -9  -8 55.4143 3.02721   9
  -6  -9  -8 50.1375 2.74428   8
  -6  -9  -8 50.3062 2.96141  10
  -6  -9  -8 50.8451 3.09875  15
  -7  -9  -8 -0.0694 0.46220  15
  -7  -9  -8 -0.1211 0.21188   8
  -7  -9  -8 0.10543 0.53488   9
  -8  -9  -8 20.6524 1.17352   8
  -8  -9  -8 18.0411 1.33563   9
  -8  -9  -8 19.4775 1.38907  15
  -9  -9  -8 223.429 11.9485   8
   9   9   8 227.735 11.9867   8
 -10  -9  -8 5.96770 0.42678   8
  10   9   8 4.61416 0.41661   8
   2 -10  -8 13.0851 0.91523  15
   1 -10  -8 170.425 9.55972  15
   1 -10  -8 184.245 9.47901  16
   0 -10  -8 108.186 6.40893  15
   0 -10  -8 125.345 6.32763  16
  -1 -10  -8 0.95405 0.70099  14
  -1 -10  -8 0.95728 0.43622  16
  -1 -10  -8 1.01390 0.45223  15
  -2 -10  -8 43.6871 2.47149  16
  -2 -10  -8 37.6720 2.59501  14
  -2 -10  -8 43.6775 2.35331  10
  -2 -10  -8 45.7436 2.67692  15
  -3 -10  -8 6.78072 0.69658  16
  -3 -10  -8 7.81951 0.83897  15
  -4 -10  -8 53.1471 2.85417   9
  -4 -10  -8 55.5294 3.03377  10
  -4 -10  -8 53.8522 3.20840  15
  -4 -10  -8 50.2798 3.04177  16
  -5 -10  -8 0.92828 0.43769  15
  -5 -10  -8 0.39277 0.39008  16
  -5 -10  -8 0.46128 0.32802   9
  -5 -10  -8 0.07239 0.48991  10
  -6 -10  -8 78.2321 4.28256  15
  -6 -10  -8 68.0415 4.15855  16
  -6 -10  -8 75.9947 4.17575  10
  -6 -10  -8 78.0849 4.14683   9
  -7 -10  -8 18.5986 1.28019  10
  -7 -10  -8 18.9593 1.33155  15
  -7 -10  -8 20.6582 1.26507   9
  -8 -10  -8 46.6567 2.56514   9
  -8 -10  -8 43.1965 2.60267  15
   0 -11  -8 152.047 8.18633  15
  -1 -11  -8 14.8958 0.86305  16
  -1 -11  -8 9.93831 0.90226  15
  -2 -11  -8 15.6172 1.10355  15
  -2 -11  -8 14.0190 0.93199  16
  -3 -11  -8 51.2866 3.17461  16
  -3 -11  -8 59.8260 3.31516  15
  -3 -11  -8 61.3423 3.09017  10
  -4 -11  -8 80.9890 4.53114  15
  -5 -11  -8 4.78479 0.60244  15
  -5 -11  -8 3.84828 0.51112  10
  -6 -11  -8 45.1833 2.51892  10
  -6 -11  -8 43.1816 2.57989  15
  -7 -11  -8 304.216 16.1673  15
  -7 -11  -8 315.451 16.0225   9
  -7 -11  -8 289.941 16.0917  10
  -8 -11  -8 61.6272 3.32032   9
  -3  -9   9 49.4622 2.66802  10
  -6  -8   9 36.5071 2.07448   9
  -6  -8   9 35.5612 2.18960  14
  -5  -8   9 23.9433 1.40303   9
  -5  -8   9 21.7350 1.45645  10
  -4  -8   9 47.3612 2.95890  14
  -4  -8   9 50.2530 2.71637   9
  -4  -8   9 51.5366 2.83105  10
  -3  -8   9 5.87468 0.72726  13
  -3  -8   9 7.07777 0.73503  10
  -3  -8   9 7.91441 0.92655  14
  -2  -8   9 214.354 10.7538  10
  -2  -8   9 186.530 10.8753  14
  -2  -8   9 204.387 10.8564  13
  -1  -8   9 0.42085 0.33229  13
  -1  -8   9 0.74207 0.28310  10
   0  -8   9 115.077 6.26577  13
   1  -8   9 249.544 13.1830  13
   1  -8   9 244.572 13.1388  12
   2  -8   9 0.69910 0.24657  13
  -7  -7   9 2.75694 0.49797  14
  -6  -7   9 3.49900 0.60107  14
  -6  -7   9 2.13450 0.62590   9
  -5  -7   9 109.795 6.04296  14
  -5  -7   9 104.255 5.86193   9
  -4  -7   9 22.7487 1.49146  10
  -4  -7   9 24.9176 1.60275   9
  -4  -7   9 22.9962 1.75280  14
  -3  -7   9 16.3315 1.44208  14
  -3  -7   9 17.1720 1.15870  10
  -3  -7   9 16.1216 1.18830  13
  -3  -7   9 17.6373 1.20286   9
  -2  -7   9 10.3831 1.02744  14
  -2  -7   9 11.2667 1.10341  13
  -2  -7   9 11.6266 0.98647  10
  -2  -7   9 12.6010 0.85377   9
  -1  -7   9 19.8989 1.23485  10
  -1  -7   9 16.4119 1.28629  14
  -1  -7   9 18.2705 1.31856  13
   0  -7   9 5.97154 0.76494  13
   0  -7   9 6.84713 0.60710  10
   1  -7   9 5.91268 0.66517  12
   1  -7   9 6.61489 0.47853  10
   1  -7   9 7.63728 0.88581  13
   2  -7   9 105.227 5.67740  13
   2  -7   9 101.764 5.65764  12
   3  -7   9 13.9823 0.93727  13
   8   6  -9 0.23502 0.17506   8
  -8  -6   9 0.17961 0.36784  14
  -8  -6   9 0.06381 0.22820   8
   7   6  -9 201.183 10.5502   8
  -7  -6   9 195.487 10.5600   8
  -6  -6   9 0.52999 0.28273   8
  -6  -6   9 0.44452 0.58968   9
  -5  -6   9 14.5385 1.31401   9
  -5  -6   9 13.9053 0.98343   8
  -4  -6   9 21.7610 1.59852   9
  -4  -6   9 20.6952 1.25760   8
  -3  -6   9 -0.1261 0.42007  13
  -3  -6   9 -0.0020 0.51017   9
  -3  -6   9 0.34463 0.60433  14
  -3  -6   9 0.43364 0.31561  10
  -2  -6   9 52.7126 3.05101  13
  -2  -6   9 50.7101 2.90175  10
  -2  -6   9 51.1145 2.93844   9
  -2  -6   9 47.4545 3.09508  14
  -1  -6   9 29.0402 2.15118  14
  -1  -6   9 34.6652 2.08158  13
  -1  -6   9 34.6428 2.01038  10
  -1  -6   9 31.4576 1.91656   9
   0  -6   9 6.53372 0.67494  12
   0  -6   9 7.44595 0.76439  10
   0  -6   9 8.08263 0.82592  13
   0  -6   9 7.10764 0.55569   9
   1  -6   9 2.70134 0.61604  13
   1  -6   9 3.52594 0.43222  10
   1  -6   9 2.10965 0.52634  12
   2  -6   9 174.035 9.47305  10
   2  -6   9 184.404 9.67965  13
   2  -6   9 176.836 9.63499  12
   3  -6   9 123.595 6.75312  11
   3  -6   9 126.319 6.68967  12
   3  -6   9 118.478 6.70777  13
   4  -6   9 34.7684 2.05956  12
   4  -6   9 35.1621 2.10929  11
   5  -6   9 1.70308 0.30916  12
   5  -6   9 1.08133 0.31221  11
   8   5  -9 17.4591 1.01661   8
  -8  -5   9 15.4498 1.08342   8
   7   5  -9 111.689 6.04832   8
  -7  -5   9 113.927 6.10664   8
  -6  -5   9 37.1505 2.22664   8
  -5  -5   9 9.55047 1.08779   9
  -5  -5   9 9.48692 0.93481   8
  -4  -5   9 6.38968 0.80977   9
  -4  -5   9 7.94408 0.79275   8
  -3  -5   9 16.8377 1.34042  13
  -3  -5   9 18.6280 1.15162   8
  -3  -5   9 16.6318 1.37915   9
  -2  -5   9 1.68832 0.53639   9
  -2  -5   9 2.79970 0.44523  10
  -2  -5   9 2.55856 0.31467   8
  -2  -5   9 3.17136 0.50853  13
  -1  -5   9 30.4884 2.13511  14
  -1  -5   9 33.2545 3.48889   5
  -1  -5   9 35.8870 2.21359  13
  -1  -5   9 33.0159 2.07581   9
  -1  -5   9 36.5993 2.08702  10
   0  -5   9 20.4857 1.32956  10
   0  -5   9 18.9460 1.48376  13
   0  -5   9 17.3779 1.36045  12
   0  -5   9 18.3362 1.26649   9
   1  -5   9 497.614 27.1797  12
   1  -5   9 517.029 27.2692  11
   1  -5   9 524.466 27.1236  10
   1  -5   9 512.207 27.2518  13
   1  -5   9 507.781 27.0414   9
   2  -5   9 9.69287 1.07538  13
   2  -5   9 9.86561 0.78675  10
   2  -5   9 8.87577 1.11739  11
   2  -5   9 8.77818 0.86743  12
   3  -5   9 127.571 7.25858  11
   3  -5   9 135.008 7.23328  13
   3  -5   9 130.512 7.02088  10
   3  -5   9 132.320 7.17697  12
   4  -5   9 19.0730 1.22736  12
   4  -5   9 18.3024 1.28688  11
   4  -5   9 17.6643 1.26179  13
   4  -5   9 15.4142 0.91868  10
   5  -5   9 14.6743 1.10659  11
   5  -5   9 15.3145 1.14763  12
   6  -5   9 2.11737 0.39222  11
   6  -5   9 2.07537 0.35261  12
   9   4  -9 51.9168 3.21125  18
   9   4  -9 61.7141 3.16042   9
   8   4  -9 20.5294 1.32056   9
   8   4  -9 19.2958 1.12663   8
  -8  -4   9 19.4493 1.25117   8
   7   4  -9 21.0298 1.29610   8
  -7  -4   9 20.9076 1.43085   8
   6   4  -9 47.5967 2.70464   8
  -6  -4   9 48.7116 2.80629   8
  -5  -4   9 177.451 9.55021   8
  -4  -4   9 -0.1602 0.39515   8
  -3  -4   9 32.8907 2.02854  13
  -3  -4   9 31.4257 2.08775   9
  -3  -4   9 33.1597 1.94421   8
  -2  -4   9 92.5482 6.29173   5
  -2  -4   9 90.4836 4.93606   8
  -2  -4   9 89.7899 5.05600   9
  -2  -4   9 93.9815 5.12377  13
  -2  -4   9 85.2951 5.76330   2
  -1  -4   9 89.1122 4.99816  10
  -1  -4   9 94.8472 4.87977   8
  -1  -4   9 78.4376 5.89511   3
  -1  -4   9 84.8184 5.66529   2
  -1  -4   9 91.1949 6.24248   5
  -1  -4   9 92.2813 5.03067   9
  -1  -4   9 96.4519 5.12134  13
   0  -4   9 1.06958 0.93486   2
   0  -4   9 2.34623 0.27018   8
   0  -4   9 2.33752 0.47581   9
   0  -4   9 2.51043 0.47401  10
   0  -4   9 0.84148 1.21418   5
   0  -4   9 2.83345 0.54113  13
   0  -4   9 2.29583 1.13308   3
   1  -4   9 5.88628 1.08646   2
   1  -4   9 10.3526 1.01262  13
   1  -4   9 8.24127 0.84315  12
   1  -4   9 6.67018 0.80109  10
   1  -4   9 6.85272 1.67418   5
   1  -4   9 8.40730 0.76257   9
   2  -4   9 21.4334 1.54948  12
   2  -4   9 23.0568 1.37807   9
   2  -4   9 21.8764 1.63443  11
   2  -4   9 22.1789 1.45149  10
   2  -4   9 23.2927 1.62659  13
   3  -4   9 23.5831 1.79097  11
   3  -4   9 23.5973 1.69512  12
   3  -4   9 25.7198 1.65314  13
   3  -4   9 26.2141 1.54386  10
   4  -4   9 0.15440 0.26595  10
   4  -4   9 -0.0510 0.31012  13
   4  -4   9 0.21163 0.48622  12
   4  -4   9 -0.5843 0.53291  11
   5  -4   9 130.342 6.91408  10
   5  -4   9 135.878 7.12124  12
   5  -4   9 124.372 7.13949  11
   6  -4   9 17.9048 1.19470  12
   6  -4   9 17.5360 1.35078  11
   7  -4   9 23.0929 1.46542  11
   7  -4   9 24.1739 1.42486  12
   9   3  -9 17.4308 1.09511   9
   9   3  -9 15.9725 1.18364  18
   8   3  -9 6.69789 0.46156   8
   8   3  -9 4.98485 0.64354   9
   7   3  -9 57.1942 3.42981   9
   7   3  -9 60.2570 3.20694   8
   6   3  -9 133.555 7.16255   8
   5   3  -9 20.7209 1.32868   8
  -5  -3   9 20.8385 1.36172   8
  -4  -3   9 406.952 21.5990   8
  -3  -3   9 4.08785 1.37018   5
  -3  -3   9 5.48360 0.56741   8
  -2  -3   9 69.1153 4.52634   2
  -2  -3   9 59.5019 4.91260   3
  -2  -3   9 66.0313 3.79227   9
  -2  -3   9 67.5592 3.68866   8
  -2  -3   9 71.8222 5.02902   5
  -1  -3   9 120.732 7.43956   5
  -1  -3   9 112.677 6.82116   2
  -1  -3   9 110.312 6.19128   9
  -1  -3   9 104.421 7.21124   3
  -1  -3   9 117.296 6.09501   8
   0  -3   9 337.813 19.8093   3
   0  -3   9 342.657 18.9258  10
   0  -3   9 361.030 18.8316   8
   0  -3   9 388.326 20.1902   5
   0  -3   9 352.861 18.9416   9
   1  -3   9 20.7250 2.10392   2
   1  -3   9 21.4610 1.42230  10
   1  -3   9 19.3666 2.44555   5
   1  -3   9 21.2483 1.42751  12
   1  -3   9 21.3250 1.23626   8
   1  -3   9 21.3484 1.42222   9
   1  -3   9 20.4002 2.28771   3
   1  -3   9 24.4659 1.55737  13
   2  -3   9 152.058 9.98394   4
   2  -3   9 155.259 8.33798   9
   2  -3   9 149.114 9.15828   3
   2  -3   9 159.556 8.40687  12
   2  -3   9 154.640 8.35917  10
   2  -3   9 164.306 8.48117  13
   2  -3   9 152.470 9.48262   5
   2  -3   9 149.090 8.78291   2
   3  -3   9 76.3933 4.05042  12
   3  -3   9 70.0355 4.12875  11
   3  -3   9 63.6011 5.61669   4
   3  -3   9 65.3377 4.30001   2
   3  -3   9 74.9462 3.98591  10
   3  -3   9 62.8283 4.88010   5
   3  -3   9 74.5848 3.92939   9
   3  -3   9 76.6073 4.11668  13
   4  -3   9 0.48287 0.54317  11
   4  -3   9 0.30301 0.42768  13
   4  -3   9 0.85206 0.35727  10
   4  -3   9 0.04040 0.45472  12
   4  -3   9 0.16691 0.18376   9
   5  -3   9 12.1750 0.98003  12
   5  -3   9 12.2814 0.84574  10
   5  -3   9 11.3816 1.04800  11
   6  -3   9 10.1887 0.70749  10
   6  -3   9 10.1447 1.12396  11
   6  -3   9 11.6517 0.90581  12
   7  -3   9 145.839 7.74476  12
   7  -3   9 140.820 7.81132  11
   8  -3   9 0.63129 0.28351  11
   8  -3   9 0.46113 0.24117  12
   9   2  -9 9.25995 0.64176   9
   9   2  -9 10.1205 0.85848  18
   9   2  -9 9.28524 0.71064  10
   8   2  -9 84.7260 4.70594   9
   8   2  -9 88.0692 4.90069  18
   7   2  -9 2.88493 0.32685   8
   7   2  -9 3.18274 0.57522   9
   6   2  -9 21.6440 1.29804   8
   6   2  -9 20.6151 1.50373   9
   5   2  -9 0.59933 0.32183   8
   4   2  -9 13.4443 1.64991   7
   4   2  -9 13.0968 0.94614   8
   3   2  -9 70.6696 4.58436   7
  -3  -2   9 70.8269 3.99352   8
  -3  -2   9 76.6281 5.14667   5
  -2  -2   9 90.8713 5.87488   5
  -2  -2   9 85.8286 4.77740   8
  -1  -2   9 19.7028 2.21755   5
  -1  -2   9 13.6347 2.05062   3
  -1  -2   9 15.9715 1.17360   9
  -1  -2   9 14.7867 1.69005   2
  -1  -2   9 16.3008 1.05500   8
   0  -2   9 62.1968 3.46229   8
   0  -2   9 64.2828 4.55983   3
   0  -2   9 71.4157 4.57323   5
   0  -2   9 67.3155 4.16250   2
   0  -2   9 57.5253 3.54949   9
   1  -2   9 170.367 9.48516  10
   1  -2   9 179.554 10.7153   4
   1  -2   9 170.489 9.48359   9
   1  -2   9 193.900 10.5927   5
   1  -2   9 165.526 9.47182  12
   1  -2   9 186.621 10.0710   2
   1  -2   9 176.113 9.38899   8
   1  -2   9 177.787 10.4103   3
   2  -2   9 85.3780 5.46201   5
   2  -2   9 80.2488 4.40542  10
   2  -2   9 78.1483 5.75623   4
   2  -2   9 81.7115 4.42536  12
   2  -2   9 77.7305 4.38642   9
   2  -2   9 73.5540 5.28264   3
   2  -2   9 77.7894 4.87373   2
   2  -2   9 81.8564 4.27144   8
   3  -2   9 4.43874 1.27856   5
   3  -2   9 6.55849 0.65027   9
   3  -2   9 5.82409 0.73403  12
   3  -2   9 7.06487 1.78914   4
   3  -2   9 6.20807 1.46411   3
   3  -2   9 6.67944 0.81683  13
   3  -2   9 6.17769 0.71031  10
   3  -2   9 5.19268 0.92452   2
   4  -2   9 147.918 7.62258   9
   4  -2   9 134.633 7.79009  11
   4  -2   9 144.526 7.67339  10
   4  -2   9 143.584 7.75584  13
   4  -2   9 139.229 7.99461   2
   4  -2   9 133.510 9.23839   4
   4  -2   9 147.935 7.72697  12
   5  -2   9 0.27551 0.43062  12
   5  -2   9 0.28142 0.52799  11
   5  -2   9 1.33202 0.39337  10
   5  -2   9 0.85122 0.24644   9
   6  -2   9 0.54072 0.47837  12
   6  -2   9 0.12850 0.39843  10
   6  -2   9 0.68990 0.55978  11
   7  -2   9 12.5605 1.06728  12
   7  -2   9 11.8773 1.17383  11
   7  -2   9 12.4177 0.82553  10
   8  -2   9 61.3656 3.56111  11
   8  -2   9 64.5995 3.50318  12
   9   1  -9 1.10755 0.36941  18
   9   1  -9 1.04862 0.26009  10
   8   1  -9 18.2414 1.22699   9
   8   1  -9 19.6407 1.54484  18
   8   1  -9 19.8570 1.29357  10
   7   1  -9 3.90045 0.56270   9
   7   1  -9 3.15151 0.33448   8
   7   1  -9 3.38482 0.75421  18
   6   1  -9 190.779 10.2319   8
   6   1  -9 194.700 10.3635   9
   5   1  -9 232.322 12.6635   9
   5   1  -9 242.531 12.6736  17
   5   1  -9 220.231 13.3077   7
   5   1  -9 247.097 12.5547   8
   4   1  -9 10.2964 1.42490   7
   4   1  -9 11.9641 0.84074   8
   3   1  -9 14.5008 1.62611   7
   3   1  -9 12.6015 0.91565   8
  -1  -1   9 76.2240 4.15297   8
   0  -1   9 74.7997 4.25270   8
   0  -1   9 84.0421 4.89578   2
   0  -1   9 79.3632 5.36058   3
   1  -1   9 863.185 43.7478   3
   1  -1   9 823.724 42.6844   8
   1  -1   9 717.438 42.7382  12
   1  -1   9 854.763 43.8127   4
   1  -1   9 846.789 43.2908   2
   1  -1   9 756.814 42.7609   9
   2  -1   9 113.313 6.50137  10
   2  -1   9 120.476 6.40149   8
   2  -1   9 122.493 7.53379   3
   2  -1   9 125.188 7.40039   5
   2  -1   9 121.803 7.64394   4
   2  -1   9 119.180 6.50087   9
   2  -1   9 117.107 6.48291  12
   2  -1   9 122.646 6.99852   2
   3  -1   9 0.88298 0.34559  12
   3  -1   9 1.22682 0.70047   2
   3  -1   9 1.29568 0.36589   9
   3  -1   9 1.01847 0.20322   8
   3  -1   9 -0.2883 0.76566   5
   3  -1   9 1.03450 0.39020  10
   3  -1   9 1.05904 1.28251   3
   3  -1   9 2.33479 1.23272   4
   4  -1   9 86.6949 5.94764   3
   4  -1   9 95.2320 5.10809  10
   4  -1   9 94.3851 5.16737  13
   4  -1   9 88.0751 6.46112   4
   4  -1   9 97.6708 5.13404  12
   4  -1   9 94.1666 4.94749   8
   4  -1   9 93.8379 5.07337   9
   4  -1   9 90.4174 5.48802   2
   5  -1   9 1.65843 0.83702   2
   5  -1   9 0.72829 0.40568  10
   5  -1   9 1.20785 0.38363   9
   5  -1   9 0.55761 1.35041   4
   5  -1   9 1.43442 0.34143  12
   5  -1   9 0.56437 0.48299  11
   6  -1   9 118.986 6.21287  12
   6  -1   9 106.816 6.25286  11
   6  -1   9 113.568 6.14419  10
   6  -1   9 104.947 6.31792  18
   6  -1   9 121.052 6.07497   9
   7  -1   9 27.0001 1.61573  10
   7  -1   9 25.6769 1.83186  11
   7  -1   9 27.6066 1.69306  12
   8  -1   9 13.0057 1.05798  12
   8  -1   9 13.0770 1.05205  11
   8  -1   9 13.3870 0.86485  10
   9  -1   9 3.71709 0.42118  12
   9  -1   9 3.55937 0.45754  11
   9   0  -9 0.89862 0.28696  10
   9   0  -9 0.73099 0.34925  18
   8   0  -9 75.4948 4.05002   9
   8   0  -9 71.5616 4.32943  18
   8   0  -9 78.0740 4.12110  10
   7   0  -9 2.97446 0.42981  10
   7   0  -9 3.42716 0.63749  18
   7   0  -9 1.90179 0.43626   9
   7   0  -9 3.39906 0.44326  17
   6   0  -9 13.8797 0.84270   8
   6   0  -9 15.0095 1.09054  10
   6   0  -9 14.0635 1.11600  17
   6   0  -9 13.2835 1.08218   9
   5   0  -9 40.0117 2.39905   9
   5   0  -9 40.2540 2.43405  17
   5   0  -9 42.6691 2.25274   8
   5   0  -9 37.3129 3.14878   7
   4   0  -9 127.809 7.28811   7
   4   0  -9 104.021 8.07877   3
   4   0  -9 130.698 6.47184   8
   4   0  -9 116.567 7.19089   2
   4   0  -9 118.257 6.55404   9
   3   0  -9 5.69600 1.84366   3
   3   0  -9 6.60868 0.59203   8
   3   0  -9 7.35783 1.16629   7
   3   0  -9 4.93452 1.15270   2
   2   0  -9 6.61918 0.59039   8
   1   0   9 95.7044 6.17330   3
   1   0   9 94.9906 5.69678   2
   2   0   9 161.177 9.36788   4
   2   0   9 141.977 8.43235   9
   2   0   9 161.718 8.91790   2
   2   0   9 157.723 8.34394   8
   2   0   9 165.129 9.52170   3
   3   0   9 387.203 21.7550   9
   3   0   9 422.450 22.8945   4
   3   0   9 411.585 21.6678   8
   3   0   9 434.564 22.7834   3
   3   0   9 421.078 22.2427   2
   3   0   9 388.991 21.7687  10
   4   0   9 56.8209 3.04971  12
   4   0   9 54.8829 3.03735   9
   4   0   9 53.2784 3.05459  10
   4   0   9 55.8035 3.54140   2
   4   0   9 54.3283 2.92346   8
   4   0   9 51.3021 4.20631   4
   4   0   9 51.8592 4.03695   3
   4   0   9 49.6343 3.73694   5
   5   0   9 0.76258 1.22001   4
   5   0   9 0.29447 0.37098  12
   5   0   9 0.64068 1.25422   3
   5   0   9 0.18634 0.84115   2
   5   0   9 0.24672 0.38880  10
   5   0   9 -0.4660 0.20057   8
   5   0   9 0.25445 0.32871   9
   6   0   9 118.509 6.23099   9
   6   0   9 124.005 6.32574  12
   6   0   9 108.998 6.35269  11
   6   0   9 120.049 6.27935  10
   6   0   9 99.9011 7.62062   4
   7   0   9 57.6561 3.21014  10
   7   0   9 60.3568 3.28867  12
   7   0   9 51.9044 3.28123  11
   7   0   9 57.9483 3.14018   9
   8   0   9 0.35878 0.31671  12
   8   0   9 0.24869 0.52921  11
   8   0   9 0.13686 0.37371  10
   9   0   9 4.20311 0.52814  11
   9   0   9 2.90852 0.45949  12
   9   0   9 4.99085 0.47744  10
   8  -1  -9 0.44935 0.26949  17
   8  -1  -9 0.66042 0.56394  18
   8  -1  -9 0.01303 0.22047  10
   7  -1  -9 59.8647 3.08824  10
   7  -1  -9 51.4779 3.00586   9
   7  -1  -9 52.7229 3.12079  17
   7  -1  -9 56.2541 3.31094  18
   6  -1  -9 3.93359 0.53282  10
   6  -1  -9 3.08660 0.72235  18
   6  -1  -9 3.94913 0.48711   9
   6  -1  -9 4.25945 0.63055  17
   5  -1  -9 98.8993 5.33745   9
   5  -1  -9 98.2615 5.43055  17
   5  -1  -9 100.807 5.34685  10
   5  -1  -9 99.3349 5.20281   8
   5  -1  -9 87.5075 6.00770   7
   4  -1  -9 40.3876 2.33321  10
   4  -1  -9 36.3397 2.86407   2
   4  -1  -9 41.7432 2.42737  17
   4  -1  -9 42.2717 3.02663   7
   4  -1  -9 32.3921 3.88998   3
   4  -1  -9 42.0169 2.23506   8
   4  -1  -9 40.5449 2.35257   9
   3  -1  -9 22.1989 1.52832   9
   3  -1  -9 24.6962 2.11281   2
   3  -1  -9 26.1075 1.43099   8
   3  -1  -9 25.6657 2.20285   7
   3  -1  -9 25.6017 3.23575   3
   2  -1  -9 16.6400 0.99228   8
   2  -1  -9 15.2414 2.42624   3
   2  -1  -9 17.2159 1.82130   2
   2  -1  -9 17.6345 1.74100   7
   2  -1  -9 14.2586 1.04278   9
   1  -1  -9 97.7121 5.76982   2
   1  -1  -9 99.7954 6.70066   3
   1  -1  -9 93.8582 5.18710   8
   2   1   9 40.9062 3.40127   3
   2   1   9 39.1887 2.79669   2
   3   1   9 97.7172 5.39767   8
   3   1   9 106.680 6.03684   2
   3   1   9 108.628 6.59629   3
   3   1   9 93.5354 5.49129   9
   3   1   9 102.564 6.39895   4
   4   1   9 194.932 10.4550   8
   4   1   9 191.374 10.5540   9
   4   1   9 205.462 11.0962   2
   4   1   9 197.674 11.6539   4
   4   1   9 197.632 11.6416   3
   5   1   9 4.67186 1.39568   4
   5   1   9 4.34885 0.98324   2
   5   1   9 5.57423 0.62657  10
   5   1   9 5.97217 1.52009   3
   5   1   9 5.34949 0.66416   9
   5   1   9 5.45901 0.47417   8
   6   1   9 6.60236 1.16515   2
   6   1   9 8.99037 0.59657   8
   6   1   9 7.97394 0.85407  10
   6   1   9 9.25724 0.80623   9
   6   1   9 6.27486 1.74444   4
   7   1   9 349.873 18.5791  10
   7   1   9 324.036 18.6453  11
   7   1   9 357.711 18.5421   9
   7   1   9 365.178 18.6089  12
   8   1   9 5.32008 0.72039  11
   8   1   9 5.98410 0.63916  10
   8   1   9 5.95062 0.65990   9
   8   1   9 6.34163 0.64910  12
   9   1   9 2.66339 0.35810  10
   9   1   9 1.38599 0.33643  12
   9   1   9 1.49526 0.52063  11
  10   1   9 4.72445 0.45818  10
  10   1   9 5.65248 0.69459  11
   8  -2  -9 8.80681 0.70823  17
   8  -2  -9 11.9416 0.67266  10
   8  -2  -9 9.45145 0.83763  18
   7  -2  -9 11.4625 1.17648  18
   7  -2  -9 13.0170 0.86114  10
   7  -2  -9 11.1768 0.89454  17
   6  -2  -9 103.897 5.73939   9
   6  -2  -9 108.870 6.08726  18
   6  -2  -9 103.263 5.77872  10
   6  -2  -9 112.425 5.92610  17
   5  -2  -9 13.1726 1.02861  17
   5  -2  -9 12.5022 0.99960   9
   5  -2  -9 11.3182 1.25071  18
   5  -2  -9 12.9960 0.98032  10
   4  -2  -9 0.19239 0.23432  10
   4  -2  -9 1.23861 0.76481   2
   4  -2  -9 0.96514 0.97741   7
   4  -2  -9 0.44640 0.16336   8
   4  -2  -9 0.54829 0.34662   9
   4  -2  -9 0.53574 0.37003  18
   4  -2  -9 0.00866 0.44130  17
   3  -2  -9 3.61787 0.35146   8
   3  -2  -9 3.57108 0.45990   9
   3  -2  -9 2.82467 0.95635   7
   3  -2  -9 2.93313 0.85084   2
   3  -2  -9 2.84148 0.37290  10
   3  -2  -9 3.35709 1.63869   3
   2  -2  -9 322.431 18.2090   3
   2  -2  -9 305.968 17.1340   2
   2  -2  -9 329.341 16.5938   8
   2  -2  -9 289.903 16.6633   9
   2  -2  -9 342.741 17.3509   7
   2  -2  -9 296.200 16.6532  10
   1  -2  -9 4.16182 0.50902   9
   1  -2  -9 3.91736 0.38317   8
   1  -2  -9 4.20341 0.89658   2
   1  -2  -9 5.23567 1.67605   3
   0  -2  -9 0.89383 1.31753   3
   0  -2  -9 -0.4664 0.65325   2
   3   2   9 0.55796 0.26403   8
   4   2   9 58.1739 4.43436   3
   4   2   9 59.4264 3.20906   8
   4   2   9 58.3810 3.84059   2
   5   2   9 495.537 26.6146   8
   5   2   9 500.775 27.8089   4
   5   2   9 507.571 27.9062   3
   5   2   9 505.821 26.7204   9
   5   2   9 511.081 27.2724   2
   6   2   9 92.9827 6.65725   3
   6   2   9 97.7544 6.08954   2
   6   2   9 94.8400 6.72226   4
   6   2   9 99.8407 5.54204  10
   6   2   9 107.337 5.53566   9
   6   2   9 105.739 5.40124   8
   7   2   9 147.995 8.06798  10
   7   2   9 152.939 7.90851   8
   7   2   9 154.065 8.04936   9
   7   2   9 140.535 8.09845  11
   8   2   9 39.9798 2.30212   9
   8   2   9 39.5863 2.30868  10
   8   2   9 40.1776 2.31266  12
   8   2   9 38.4606 2.37795  11
   9   2   9 162.652 8.45729  12
   9   2   9 149.434 8.50269  11
   9   2   9 152.349 8.42446  10
   9   2   9 163.128 8.37801   9
  10   2   9 20.9004 1.30618  12
  10   2   9 24.5124 1.32729  10
  10   2   9 21.6446 1.40110  11
   8  -3  -9 4.77771 0.46584  17
   7  -3  -9 23.0749 1.47789  17
   7  -3  -9 23.7219 1.34704  10
   6  -3  -9 28.2013 1.77838  17
   6  -3  -9 27.5679 1.60235  10
   5  -3  -9 541.226 28.1145   9
   5  -3  -9 526.029 28.1626  10
   5  -3  -9 529.797 28.3076  17
   4  -3  -9 11.1708 0.85083  10
   4  -3  -9 10.9721 0.95857  17
   4  -3  -9 10.2758 0.80722  16
   4  -3  -9 11.5850 0.87629   9
   4  -3  -9 10.6961 1.48900   7
   3  -3  -9 31.9864 2.71523   7
   3  -3  -9 32.9976 1.87657   9
   3  -3  -9 29.5811 1.90050  16
   3  -3  -9 33.0879 1.87611  10
   3  -3  -9 35.1041 2.04444  17
   3  -3  -9 27.1222 2.33797   2
   3  -3  -9 33.1147 1.72893   8
   3  -3  -9 26.5583 3.36189   3
   2  -3  -9 27.9358 2.14338   7
   2  -3  -9 24.9701 1.40687   8
   2  -3  -9 24.0372 1.53180  16
   2  -3  -9 25.7772 1.52622   9
   2  -3  -9 23.1948 1.49489  10
   2  -3  -9 27.1410 2.53111   6
   2  -3  -9 22.5621 1.96522   2
   2  -3  -9 24.9540 3.19976   3
   1  -3  -9 2.66339 0.42652  10
   1  -3  -9 5.34967 1.78762   3
   1  -3  -9 3.90807 0.36884   8
   1  -3  -9 3.93320 0.45859  16
   1  -3  -9 4.36230 0.96854   7
   1  -3  -9 3.86630 0.87445   2
   1  -3  -9 3.66432 1.02899   6
   1  -3  -9 3.50705 0.46655   9
   0  -3  -9 39.5689 2.38708   9
   0  -3  -9 45.6208 2.93575   2
   0  -3  -9 44.6094 3.12341   6
   0  -3  -9 48.9664 4.15318   3
   0  -3  -9 39.9410 2.27635   8
   0  -3  -9 38.3888 2.35907  16
  -1  -3  -9 2.12936 0.32569   8
  -1  -3  -9 3.60682 1.02627   2
  -1  -3  -9 2.79442 1.55020   3
  -2  -3  -9 151.570 10.2642   3
   4   3   9 14.8651 0.96015   8
   5   3   9 0.51121 0.28376   8
   6   3   9 1538.29 78.5626   8
   6   3   9 1441.62 79.7813   4
   7   3   9 0.68082 1.36044   4
   7   3   9 -0.3550 0.25843   8
   8   3   9 3.21997 0.33014   8
   8   3   9 3.31196 0.58076  10
   8   3   9 3.65089 0.54631   9
   8   3   9 3.65022 0.51855  11
   9   3   9 35.4988 2.01287   9
   9   3   9 33.4441 2.11369  11
   9   3   9 33.9248 2.02487  12
   9   3   9 33.2607 2.06202  10
  10   3   9 1.82447 0.28513  12
  10   3   9 1.35370 0.36150  11
  10   3   9 1.53825 0.34993  10
  10   3   9 1.27236 0.26841   9
   7  -4  -9 619.922 32.8027  17
   6  -4  -9 12.2651 1.10876  16
   6  -4  -9 16.7419 0.95650  10
   6  -4  -9 18.1206 1.16783  17
   5  -4  -9 0.39186 0.54520  17
   5  -4  -9 0.17807 0.43111  16
   5  -4  -9 0.62022 0.27321  10
   4  -4  -9 13.6735 1.04172  16
   4  -4  -9 12.1505 1.17395  15
   4  -4  -9 14.1728 1.20591  17
   4  -4  -9 12.4263 0.90523  10
   4  -4  -9 13.0745 0.82625   9
   3  -4  -9 131.051 6.77493  17
   3  -4  -9 115.259 7.34586   7
   3  -4  -9 124.479 6.57648   9
   3  -4  -9 117.247 6.80098  15
   3  -4  -9 121.708 6.64007  16
   3  -4  -9 122.679 6.58993  10
   2  -4  -9 9.14306 0.71565  10
   2  -4  -9 6.77197 1.52308   6
   2  -4  -9 9.38358 0.91116  17
   2  -4  -9 9.27632 0.71476   9
   2  -4  -9 8.60276 0.82403  16
   2  -4  -9 8.01510 1.03533   2
   2  -4  -9 9.39157 1.36955   7
   2  -4  -9 7.52372 2.21703   3
   1  -4  -9 189.897 9.89744   9
   1  -4  -9 178.680 10.7332   6
   1  -4  -9 169.312 11.4921   3
   1  -4  -9 181.777 9.93145  16
   1  -4  -9 190.622 9.80001   8
   1  -4  -9 185.496 10.3147   2
   1  -4  -9 184.891 9.89501  10
   1  -4  -9 194.708 10.5757   7
   0  -4  -9 23.5512 2.02817   7
   0  -4  -9 21.3861 2.17718   6
   0  -4  -9 23.1816 1.47192  16
   0  -4  -9 26.2592 2.12243   2
   0  -4  -9 21.1738 1.32519   8
   0  -4  -9 20.2078 2.98255   3
   0  -4  -9 22.9355 1.42617  10
   0  -4  -9 25.0464 1.46318   9
  -1  -4  -9 1.48037 0.80529   2
  -1  -4  -9 1.57654 1.56077   3
  -1  -4  -9 1.43376 0.32776   8
  -1  -4  -9 1.49485 0.43196   9
  -1  -4  -9 2.48590 0.86542   6
  -2  -4  -9 22.7982 3.22825   3
  -2  -4  -9 22.4279 1.54460   9
  -2  -4  -9 25.2323 2.11857   6
  -2  -4  -9 23.3254 1.39475   8
  -2  -4  -9 25.9036 2.18948   2
  -3  -4  -9 7.42402 0.58460   8
   5   4   9 39.5900 2.23440   8
   6   4   9 36.3325 2.07215   8
   7   4   9 7.48845 0.92717   9
   7   4   9 8.77146 0.70564   8
   8   4   9 15.0105 0.95149   8
   9   4   9 0.39079 0.19007   8
   9   4   9 -0.0992 0.42843  11
  10   4   9 40.2366 2.53303  12
  10   4   9 49.7168 2.55451   9
  10   4   9 43.7470 2.61080  11
  10   4   9 50.2025 2.63851  10
   6  -5  -9 -0.1012 0.35878  16
   6  -5  -9 0.34283 0.48406  17
   5  -5  -9 5.27610 0.41043  10
   5  -5  -9 5.93344 0.70124  17
   5  -5  -9 4.27114 0.58492  16
   4  -5  -9 12.4971 1.38099  15
   4  -5  -9 15.6839 1.13342  17
   4  -5  -9 14.3702 1.10171  16
   4  -5  -9 13.9921 0.91409  10
   3  -5  -9 65.7248 3.62426  16
   3  -5  -9 65.3033 3.42471   9
   3  -5  -9 58.3237 3.77594  15
   3  -5  -9 63.9146 3.50876  10
   3  -5  -9 66.5181 3.68965  17
   2  -5  -9 135.494 6.98830   9
   2  -5  -9 116.035 7.95966   6
   2  -5  -9 141.146 7.20140  17
   2  -5  -9 126.126 7.22549  15
   2  -5  -9 132.813 7.10467  16
   2  -5  -9 121.137 7.72605   7
   2  -5  -9 134.901 7.02069  10
   1  -5  -9 -0.1809 0.38246  16
   1  -5  -9 0.79828 0.79309   6
   1  -5  -9 0.09017 0.29740  10
   1  -5  -9 -0.4455 0.68460   2
   1  -5  -9 -0.4413 1.27889   3
   1  -5  -9 0.55896 0.59206   7
   1  -5  -9 -0.0444 0.27537   9
   1  -5  -9 0.18124 0.39366  17
   0  -5  -9 6.75661 1.98421   3
   0  -5  -9 9.62170 0.90596  16
   0  -5  -9 10.6729 0.79472   9
   0  -5  -9 9.17728 1.17227   2
   0  -5  -9 9.39853 0.59593   8
   0  -5  -9 7.09017 1.42483   6
   0  -5  -9 9.37436 0.78224  10
   0  -5  -9 8.16174 1.17956   7
  -1  -5  -9 1489.37 79.1819   7
  -1  -5  -9 1499.46 78.6524   8
  -1  -5  -9 1528.79 80.4904   3
  -1  -5  -9 1412.85 78.7719  16
  -1  -5  -9 1490.63 78.6458   9
  -1  -5  -9 1527.60 79.5130   6
  -2  -5  -9 9.43779 1.48616   6
  -2  -5  -9 10.5875 2.36345   3
  -2  -5  -9 12.5674 0.80578   8
  -2  -5  -9 12.5247 1.01656   9
  -2  -5  -9 12.8842 1.55485   2
  -2  -5  -9 12.0590 1.00337  10
  -3  -5  -9 3.55297 1.92128   3
  -3  -5  -9 5.75209 0.57230   8
  -3  -5  -9 7.11481 1.32664   2
  -3  -5  -9 6.63890 0.70812   9
  -3  -5  -9 4.75661 1.17977   6
  -4  -5  -9 7.16400 0.68547   8
  -5  -5  -9 110.553 6.00572   8
   6   5   9 8.75423 0.73934   8
   7   5   9 19.5158 1.23504   8
   8   5   9 47.4220 2.61811   8
   9   5   9 34.3901 1.91167   8
  10   5   9 18.4088 1.13138   9
  10   5   9 14.1228 0.97616  12
  11   5   9 33.7712 1.86822   9
   6  -6  -9 16.3458 1.04827  17
   5  -6  -9 50.9362 2.92002  16
   5  -6  -9 52.5524 2.96877  17
   4  -6  -9 5.16840 0.87750  15
   4  -6  -9 6.18636 0.72101  17
   4  -6  -9 6.31676 0.43169  10
   4  -6  -9 6.40525 0.65948  16
   3  -6  -9 12.5935 1.15605  15
   3  -6  -9 15.5292 1.19627  17
   3  -6  -9 13.1914 0.85814  10
   3  -6  -9 13.9257 1.10861  16
   2  -6  -9 3.17610 0.59090  16
   2  -6  -9 3.49797 0.61595  15
   2  -6  -9 4.25425 0.55382  17
   2  -6  -9 4.48013 0.49924  10
   1  -6  -9 384.627 20.0954   9
   1  -6  -9 375.396 20.2204  16
   1  -6  -9 383.840 20.1348  10
   1  -6  -9 367.360 20.3138  15
   1  -6  -9 388.498 20.2724  17
   0  -6  -9 88.2100 4.63171   9
   0  -6  -9 82.6682 4.78819  15
   0  -6  -9 92.0704 4.76215  16
   0  -6  -9 84.1858 4.73974  17
   0  -6  -9 85.0586 4.65029  10
   0  -6  -9 77.2600 5.64602   6
   0  -6  -9 82.8430 4.99118   2
  -1  -6  -9 0.74794 0.74092   2
  -1  -6  -9 0.55858 0.34865  17
  -1  -6  -9 1.22979 1.05582   6
  -1  -6  -9 0.11963 0.14486   8
  -1  -6  -9 0.23177 0.29549  16
  -1  -6  -9 -0.1943 0.32675   9
  -1  -6  -9 -0.8423 1.76613   3
  -2  -6  -9 5.62183 0.51597   8
  -2  -6  -9 5.19073 2.11224   3
  -2  -6  -9 5.35976 1.11844   2
  -2  -6  -9 6.67537 0.64802  10
  -2  -6  -9 5.87593 0.63720   9
  -2  -6  -9 4.31436 1.09658   6
  -3  -6  -9 217.548 12.7973   2
  -3  -6  -9 234.398 12.1846   9
  -3  -6  -9 242.253 12.1907  10
  -3  -6  -9 201.236 13.9156   3
  -3  -6  -9 221.006 13.0639   6
  -3  -6  -9 233.607 12.0449   8
  -4  -6  -9 0.25906 1.91072   3
  -4  -6  -9 0.11310 1.14631   2
  -4  -6  -9 0.04808 0.98817   6
  -4  -6  -9 -0.1015 0.48488   9
  -4  -6  -9 0.81645 0.32052   8
  -5  -6  -9 52.7338 2.96868   8
  -6  -6  -9 0.89738 0.40769   8
  -7  -6  -9 102.702 5.39445   8
   7   6   9 94.3269 5.31985   8
  -8  -6  -9 16.6853 1.23279   8
   8   6   9 15.9910 1.01947   8
   9   6   9 180.232 9.58090   8
  10   6   9 23.9073 1.31713   8
  11   6   9 32.4724 1.81632   9
   5  -7  -9 12.8781 0.78698  16
   5  -7  -9 9.92259 0.79249  17
   4  -7  -9 183.787 10.1182  17
   4  -7  -9 192.862 10.0824  16
   3  -7  -9 2.11992 0.52230  16
   3  -7  -9 2.31993 0.20586  10
   3  -7  -9 2.45461 0.54110  17
   3  -7  -9 3.59545 0.59429  15
   2  -7  -9 75.7010 3.92492  16
   2  -7  -9 66.0872 4.05658  15
   2  -7  -9 69.8774 3.76845  10
   2  -7  -9 67.4514 3.93264  17
   1  -7  -9 3.86456 0.73966  15
   1  -7  -9 3.38597 0.57277  16
   1  -7  -9 2.21650 0.49703  17
   1  -7  -9 2.16628 0.33385  10
   0  -7  -9 250.812 13.1596  10
   0  -7  -9 246.526 13.2689  16
   0  -7  -9 248.963 13.0969   9
   0  -7  -9 242.604 13.3542  15
  -1  -7  -9 2.66287 0.42396  10
  -1  -7  -9 2.26491 0.53303  16
  -1  -7  -9 2.68750 0.57833  14
  -1  -7  -9 2.15194 0.55290  15
  -1  -7  -9 1.20548 1.22801   6
  -1  -7  -9 2.39229 0.37272   9
  -2  -7  -9 13.2805 1.06316  10
  -2  -7  -9 13.4783 1.13096  16
  -2  -7  -9 12.6747 1.84976   6
  -2  -7  -9 13.3263 1.10884   9
  -2  -7  -9 11.9024 1.01804  15
  -3  -7  -9 -0.0628 0.24455   8
  -3  -7  -9 0.35901 0.48860  10
  -3  -7  -9 0.26569 0.45733   9
  -3  -7  -9 -0.3510 1.08855   6
  -3  -7  -9 0.43594 0.47008  15
  -3  -7  -9 1.52213 1.01716   2
  -4  -7  -9 11.0333 1.79179   6
  -4  -7  -9 13.2404 1.15287  10
  -4  -7  -9 12.2712 0.88998   8
  -4  -7  -9 12.5150 1.16873   9
  -5  -7  -9 40.8311 2.33726   8
  -5  -7  -9 41.3856 2.54756   9
  -6  -7  -9 106.581 5.71893   8
  -6  -7  -9 103.922 5.93983   9
  -7  -7  -9 173.946 9.32981   8
  -8  -7  -9 0.48211 0.31146   8
   8   7   9 0.33876 0.24987   8
  -9  -7  -9 3.21961 0.40340   8
   9   7   9 1.96091 0.37464   8
 -10  -7  -9 34.3863 2.15280   8
  10   7   9 41.8796 2.09779   8
   4  -8  -9 8.38535 0.64229  16
   3  -8  -9 23.8802 1.67769  15
   3  -8  -9 25.5155 1.51023  16
   2  -8  -9 91.9340 4.91638  16
   2  -8  -9 86.9487 5.01794  15
   1  -8  -9 6.98027 0.73410  16
   1  -8  -9 6.38914 0.83172  15
   1  -8  -9 7.00628 0.48896  10
   0  -8  -9 10.5935 0.98982  15
   0  -8  -9 10.9584 0.76152  10
   0  -8  -9 9.99402 0.89322  16
  -1  -8  -9 123.709 7.88708  14
  -1  -8  -9 149.679 7.74221  10
  -1  -8  -9 146.080 7.94866  15
  -1  -8  -9 147.181 7.63870   9
  -1  -8  -9 153.587 7.85529  16
  -2  -8  -9 0.51284 0.47893  16
  -2  -8  -9 0.42544 0.29843   9
  -2  -8  -9 0.06879 0.48734  15
  -3  -8  -9 47.6379 3.15833  15
  -3  -8  -9 52.6843 3.08285  16
  -3  -8  -9 54.6054 3.02222   9
  -3  -8  -9 57.2667 3.09790  10
  -4  -8  -9 606.736 32.1819  10
  -4  -8  -9 646.235 32.1761   9
  -4  -8  -9 604.633 32.2170  16
  -4  -8  -9 603.416 31.9889   8
  -4  -8  -9 573.487 32.2561  15
  -5  -8  -9 53.6277 3.04975   9
  -5  -8  -9 49.2717 3.02327  10
  -5  -8  -9 50.1267 3.06910  15
  -5  -8  -9 51.5820 2.81276   8
  -6  -8  -9 0.24366 0.39269   9
  -6  -8  -9 0.42057 0.36209   8
  -7  -8  -9 1.59708 0.38019   8
  -7  -8  -9 2.18688 0.49126   9
  -8  -8  -9 6.15823 0.67049   8
  -9  -8  -9 60.5934 3.19719   8
   9   8   9 55.4482 3.15131   8
 -10  -8  -9 18.0958 1.13716   8
  10   8   9 21.0072 1.13593   8
   3  -9  -9 1.26450 0.27831  16
   3  -9  -9 0.24061 0.33928  15
   2  -9  -9 3.40808 0.42952  16
   1  -9  -9 4.49049 0.59904  16
   1  -9  -9 4.96343 0.62472  15
   0  -9  -9 3.50609 0.57493  16
   0  -9  -9 3.39640 0.32275  10
   0  -9  -9 3.17902 0.56796  15
  -1  -9  -9 9.47944 1.10721  15
  -1  -9  -9 9.22132 0.85751  16
  -1  -9  -9 10.1359 0.70828  10
  -2  -9  -9 328.377 16.9843  16
  -2  -9  -9 311.003 16.8695  10
  -2  -9  -9 314.435 17.0480  15
  -3  -9  -9 0.44464 0.46804  10
  -3  -9  -9 -0.2964 0.45734  16
  -3  -9  -9 0.53335 0.28003   9
  -3  -9  -9 -0.2710 0.50446  15
  -4  -9  -9 0.80186 0.40568   9
  -4  -9  -9 1.20621 0.54263  10
  -4  -9  -9 1.08636 0.51093  16
  -4  -9  -9 1.53350 0.43708  15
  -5  -9  -9 25.1248 1.65270  10
  -5  -9  -9 23.5380 1.57648  16
  -5  -9  -9 25.1992 1.60752   9
  -5  -9  -9 21.7661 1.67364  15
  -6  -9  -9 302.821 16.6394  15
  -6  -9  -9 317.781 16.6174  16
  -6  -9  -9 309.149 16.5863  10
  -6  -9  -9 297.988 16.3801   8
  -6  -9  -9 326.290 16.5862   9
  -7  -9  -9 25.1021 1.43832   8
  -7  -9  -9 26.0010 1.71676   9
  -8  -9  -9 13.8127 1.06949   9
  -8  -9  -9 15.6149 0.90652   8
  -9  -9  -9 142.599 6.92175   8
  -9  -9  -9 130.574 7.05374   9
   9   9   9 117.358 6.93756   8
   1 -10  -9 199.055 10.3718  15
   1 -10  -9 187.160 10.2867  16
   0 -10  -9 48.9417 2.88639  15
   0 -10  -9 50.8988 2.80868  16
  -1 -10  -9 43.9270 2.77818  15
  -1 -10  -9 51.4018 2.75008  16
  -2 -10  -9 8.31714 0.57464  10
  -2 -10  -9 6.75740 0.77945  15
  -2 -10  -9 8.31553 0.72970  16
  -3 -10  -9 85.1738 4.59438  16
  -3 -10  -9 85.9645 4.51911  10
  -3 -10  -9 78.1695 4.68759  15
  -4 -10  -9 99.8883 5.39953  16
  -4 -10  -9 92.7141 5.43607  15
  -4 -10  -9 101.875 5.35453  10
  -5 -10  -9 17.3795 1.40055  15
  -5 -10  -9 19.8730 1.36489  16
  -5 -10  -9 20.5287 1.36714  10
  -5 -10  -9 20.1529 1.20484   9
  -6 -10  -9 6.79810 0.67175  10
  -6 -10  -9 6.79796 0.73539   9
  -6 -10  -9 6.81503 0.64720  16
  -6 -10  -9 6.61729 0.68871  15
  -7 -10  -9 35.1849 2.07887  15
  -7 -10  -9 30.6438 2.01961  16
  -7 -10  -9 39.7201 2.04940   9
  -8 -10  -9 0.49365 0.30945   9
  -1 -11  -9 4.95663 0.55373  15
  -2 -11  -9 0.44665 0.21252  16
  -2 -11  -9 0.28298 0.32112  15
  -3 -11  -9 4.92865 0.49345  16
  -3 -11  -9 5.10913 0.36107  10
  -3 -11  -9 5.52466 0.62172  15
  -4 -11  -9 54.7535 3.45945  15
  -4 -11  -9 69.1207 3.41069  16
  -5 -11  -9 23.8562 1.54000  15
  -6 -11  -9 6.37596 0.58069  10
  -6 -11  -9 8.45430 0.65001  15
  -7 -11  -9 68.6480 3.73763  10
  -4  -8  10 9.38746 0.77897  14
  -4  -8  10 10.2776 0.70178  10
  -3  -8  10 0.75940 0.25020  10
  -3  -8  10 0.58626 0.31939  14
  -2  -8  10 167.373 9.23704  13
  -2  -8  10 177.348 9.16309  10
  -1  -8  10 48.6818 2.63559  10
  -1  -8  10 49.7102 2.77169  13
  -6  -7  10 15.2879 1.10319  14
  -6  -7  10 13.9012 1.02017   9
  -5  -7  10 46.9616 3.12211  14
  -5  -7  10 61.3891 3.09420   9
  -4  -7  10 69.0532 3.78074  10
  -4  -7  10 64.4086 3.91916  14
  -4  -7  10 70.7502 3.78648   9
  -3  -7  10 0.75950 0.44570  10
  -3  -7  10 0.54094 0.52870  14
  -3  -7  10 0.29998 0.32550   9
  -3  -7  10 0.10586 0.37922  13
  -2  -7  10 12.8430 0.86508  10
  -2  -7  10 10.2974 0.94003  14
  -2  -7  10 12.8553 1.04104  13
  -2  -7  10 11.5199 0.68563   9
  -1  -7  10 230.392 11.4202  10
  -1  -7  10 197.853 11.4958  13
   0  -7  10 72.8206 4.12346  13
   0  -7  10 73.6005 3.96025  10
   2  -7  10 76.9336 4.59667  12
   2  -7  10 93.2397 4.66602  13
   7   6 -10 206.272 10.8473   8
  -7  -6  10 198.004 10.9627   9
  -7  -6  10 205.740 11.0448  14
  -7  -6  10 208.002 10.8389   8
  -6  -6  10 1.97946 0.60327   9
  -6  -6  10 1.96129 0.32598   8
  -5  -6  10 1.74228 0.30991   8
  -5  -6  10 1.56063 0.58738   9
  -4  -6  10 16.6834 1.31311   9
  -4  -6  10 15.1899 0.89077   8
  -4  -6  10 16.4954 1.37912  14
  -3  -6  10 115.489 6.28496  10
  -3  -6  10 119.356 6.32028   9
  -3  -6  10 113.774 6.35100  13
  -3  -6  10 111.987 6.43767  14
  -2  -6  10 9.34997 0.99279  13
  -2  -6  10 9.96924 0.90156   9
  -2  -6  10 8.72127 0.79193  10
  -2  -6  10 8.65528 0.88444  14
  -1  -6  10 0.32870 0.35630  13
  -1  -6  10 0.33354 0.35275   9
  -1  -6  10 0.72302 0.44321  10
   0  -6  10 1.03032 0.39565  10
   0  -6  10 0.47564 0.53986  13
   1  -6  10 1.06414 0.42119  12
   1  -6  10 1.53586 0.32799  10
   1  -6  10 0.94035 0.51421  13
   2  -6  10 27.5006 1.70914  13
   2  -6  10 27.2576 1.51822  10
   2  -6  10 26.8011 1.71515  12
   3  -6  10 2.67265 0.54050  12
   3  -6  10 3.39026 0.44247  13
   4  -6  10 351.520 18.6302  13
   8   5 -10 33.6881 1.76604   8
  -8  -5  10 31.0023 1.83268   8
   7   5 -10 6.24563 0.60292   8
  -7  -5  10 7.09787 0.73795   8
  -6  -5  10 21.1283 1.32045   8
  -5  -5  10 29.4580 1.96923   9
  -5  -5  10 28.4670 1.76811   8
  -4  -5  10 26.5300 1.60785   8
  -4  -5  10 26.2539 1.84226   9
  -3  -5  10 26.4950 1.75871   9
  -3  -5  10 24.3979 1.70244  13
  -3  -5  10 25.2124 1.49453   8
  -2  -5  10 40.0237 2.35132  13
  -2  -5  10 36.8437 2.08409   8
  -2  -5  10 37.4207 2.31345  10
  -2  -5  10 39.6278 2.34777   9
  -2  -5  10 36.4840 2.37530  14
  -1  -5  10 3.80326 0.54987  13
  -1  -5  10 2.43735 0.62141  14
  -1  -5  10 3.46575 0.56879   9
  -1  -5  10 3.69326 0.48930  10
   0  -5  10 3.13333 0.50803  13
   0  -5  10 2.68504 0.52189  10
   0  -5  10 1.77573 0.44246   9
   1  -5  10 535.694 27.8971  13
   1  -5  10 549.890 27.7684  10
   1  -5  10 529.603 27.6706   9
   1  -5  10 481.255 27.7928  12
   2  -5  10 52.1415 3.07018  12
   2  -5  10 51.8417 2.94164  10
   2  -5  10 54.4670 3.09942  13
   3  -5  10 59.4330 3.32798  12
   3  -5  10 59.9616 3.32632  13
   3  -5  10 55.9707 3.31797  11
   3  -5  10 56.2575 3.14503  10
   4  -5  10 12.4015 0.95970  13
   4  -5  10 15.0141 1.04269  11
   5  -5  10 81.0072 4.08296  12
   5  -5  10 67.4088 4.08508  11
   8   4 -10 202.139 10.6169   8
   8   4 -10 199.605 10.8305  18
   7   4 -10 0.02466 0.29905   8
  -7  -4  10 0.20072 0.31151   8
   6   4 -10 25.8319 1.53222   8
  -6  -4  10 24.7938 1.55938   8
  -5  -4  10 287.066 15.2953   8
  -4  -4  10 8.12309 0.87900   8
  -3  -4  10 46.8204 2.75012  13
  -3  -4  10 46.0378 2.64123   8
  -3  -4  10 45.7800 2.79157   9
  -2  -4  10 50.5648 3.06379   9
  -2  -4  10 51.6844 2.88727   8
  -2  -4  10 53.0788 3.10716  13
  -1  -4  10 616.769 33.1253  10
  -1  -4  10 631.540 33.1382   9
  -1  -4  10 614.224 32.9862   8
  -1  -4  10 637.739 33.2208  13
   0  -4  10 21.9681 1.41621  10
   0  -4  10 14.1283 2.30761   5
   0  -4  10 19.1199 1.36795   9
   0  -4  10 19.5185 1.50747  13
   1  -4  10 91.0978 5.35474  12
   1  -4  10 100.547 5.44530  13
   1  -4  10 97.0936 5.34163  10
   1  -4  10 99.8369 5.32045   9
   2  -4  10 15.6390 1.29137  13
   2  -4  10 15.0483 1.03793   9
   2  -4  10 16.9693 1.14386  10
   2  -4  10 14.6272 1.12551  12
   3  -4  10 73.4095 4.53532  11
   3  -4  10 82.1035 4.48551  12
   3  -4  10 82.7551 4.55243  13
   3  -4  10 82.3114 4.39035  10
   4  -4  10 81.2653 4.28089  10
   4  -4  10 75.9658 4.47544  11
   4  -4  10 77.5837 4.44104  13
   4  -4  10 81.2226 4.44155  12
   5  -4  10 12.6562 1.01777  11
   5  -4  10 13.6572 0.98853  12
   5  -4  10 13.4771 0.76919  10
   6  -4  10 45.3855 2.31653  12
   6  -4  10 34.9744 2.28999  11
   8   3 -10 31.6575 1.98372  18
   8   3 -10 31.4801 1.87582   9
   7   3 -10 129.427 6.71727   8
   7   3 -10 122.241 6.84394   9
   6   3 -10 2.17913 0.32274   8
   5   3 -10 2.30978 0.43001   8
  -5  -3  10 1.70725 0.39683   8
  -4  -3  10 206.279 11.0544   8
  -3  -3  10 1.10032 0.42024   8
  -3  -3  10 0.52859 1.27192   5
  -2  -3  10 206.896 10.8613   8
  -2  -3  10 200.308 10.9784   9
  -2  -3  10 202.455 12.2530   5
  -1  -3  10 213.040 11.1598   9
  -1  -3  10 226.489 11.0349   8
  -1  -3  10 184.292 12.3299   3
  -1  -3  10 195.570 11.8481   2
   0  -3  10 603.755 30.9222   9
   0  -3  10 544.989 31.4974   2
   0  -3  10 578.808 32.1406   5
   0  -3  10 611.506 30.7905   8
   0  -3  10 572.067 30.9071  10
   1  -3  10 15.2743 1.13966  10
   1  -3  10 13.9311 0.87733   8
   1  -3  10 11.0886 1.50188   2
   1  -3  10 15.5155 1.12228   9
   1  -3  10 14.5302 1.98245   5
   1  -3  10 14.8636 1.24184  13
   1  -3  10 14.4506 1.08190  12
   2  -3  10 37.6369 2.19635   9
   2  -3  10 30.9935 3.27944   5
   2  -3  10 38.9870 2.25419  10
   2  -3  10 37.1595 2.27134  12
   2  -3  10 38.7164 2.36352  13
   3  -3  10 50.1230 3.00479  13
   3  -3  10 50.9424 2.82184   9
   3  -3  10 48.9759 2.95513  12
   3  -3  10 51.2845 2.88942  10
   4  -3  10 5.05840 0.58515  12
   4  -3  10 3.99523 0.31274   9
   4  -3  10 3.77572 0.65579  11
   4  -3  10 4.08204 0.57818  13
   4  -3  10 4.56713 0.51791  10
   5  -3  10 12.5663 0.84208  10
   5  -3  10 11.7096 1.11028  11
   5  -3  10 11.3395 1.06397  12
   6  -3  10 23.5815 1.51128  12
   6  -3  10 23.0412 1.60249  11
   6  -3  10 24.1173 1.33063  10
   7  -3  10 326.072 16.3993  12
   7  -3  10 290.654 16.3993  11
   8   2 -10 15.6180 1.02428   9
   8   2 -10 16.6210 1.21083  18
   7   2 -10 22.3725 1.20218   8
   7   2 -10 19.2613 1.34566   9
   6   2 -10 285.055 14.6352   8
   6   2 -10 266.949 14.7519   9
   5   2 -10 24.3966 1.44226   8
   4   2 -10 14.8895 0.97937   8
   3   2 -10 25.6180 2.20814   7
  -3  -2  10 26.6803 2.85210   5
  -3  -2  10 28.3296 1.71161   8
  -2  -2  10 161.539 8.64708   8
  -2  -2  10 160.449 9.90536   5
  -1  -2  10 209.288 10.9497   8
  -1  -2  10 196.734 11.0475   9
  -1  -2  10 210.708 12.1754   5
   0  -2  10 22.1078 2.81005   3
   0  -2  10 29.9667 1.63949   8
   0  -2  10 26.9091 1.77598   9
   0  -2  10 30.3303 2.85627   5
   0  -2  10 25.3966 2.41431   2
   1  -2  10 17.7214 1.25288  10
   1  -2  10 20.4505 1.15696   8
   1  -2  10 18.5042 1.99453   2
   1  -2  10 19.3839 2.35825   5
   1  -2  10 18.1745 1.33534   9
   1  -2  10 18.4072 2.47093   3
   2  -2  10 161.436 9.20133   2
   2  -2  10 170.475 8.66283   9
   2  -2  10 147.895 10.0423   4
   2  -2  10 156.674 9.73698   5
   2  -2  10 138.617 9.54416   3
   2  -2  10 163.892 8.67899  12
   2  -2  10 169.354 8.68255  10
   2  -2  10 166.809 8.52514   8
   3  -2  10 6.85088 0.74294  10
   3  -2  10 3.91153 1.32926   5
   3  -2  10 6.35118 0.71504  13
   3  -2  10 6.06511 0.66716   9
   3  -2  10 6.32198 0.63133  12
   3  -2  10 2.85083 1.38121   4
   4  -2  10 3.11884 0.40857   9
   4  -2  10 3.73693 0.44876  10
   4  -2  10 2.67198 0.51794  12
   4  -2  10 2.14110 0.51685  13
   5  -2  10 15.4644 0.94423   9
   5  -2  10 15.0281 1.17228  11
   5  -2  10 15.7912 1.12667  12
   5  -2  10 16.1466 1.09464  10
   6  -2  10 56.8284 3.00419  10
   6  -2  10 49.9244 3.12102  11
   6  -2  10 55.5877 3.10995  12
   7  -2  10 0.94827 0.26944  10
   7  -2  10 0.65056 0.43680  12
   7  -2  10 0.19348 0.46415  11
   8  -2  10 2.04916 0.33625  12
   8  -2  10 0.75618 0.28316  11
   8   1 -10 11.3340 0.77963   9
   8   1 -10 10.0327 0.84003  10
   8   1 -10 9.98956 0.90826  18
   7   1 -10 5.33662 0.75589  18
   7   1 -10 3.48232 0.54193   9
   6   1 -10 0.72524 0.25605   8
   6   1 -10 0.35713 0.45698   9
   5   1 -10 305.327 16.7026   9
   5   1 -10 319.961 16.5886   8
   5   1 -10 313.778 16.7119  17
   4   1 -10 23.4537 2.35248   7
   4   1 -10 27.0543 1.56902   8
   3   1 -10 68.2456 4.47635   7
   3   1 -10 67.5037 3.72533   8
  -1  -1  10 6.99701 0.68857   8
   0  -1  10 26.8899 2.88303   3
   0  -1  10 26.8785 1.59734   8
   1  -1  10 47.3336 3.33674   2
   1  -1  10 51.3368 3.73153   5
   1  -1  10 45.9327 2.74176   9
   1  -1  10 47.3517 2.61642   8
   1  -1  10 44.2384 4.02292   3
   2  -1  10 163.926 10.6808   3
   2  -1  10 177.871 9.62532  12
   2  -1  10 183.832 9.66213  10
   2  -1  10 182.006 10.2497   2
   2  -1  10 185.019 9.65132   9
   2  -1  10 181.053 9.53040   8
   2  -1  10 177.561 10.6125   5
   3  -1  10 33.0567 3.51548   4
   3  -1  10 35.0545 3.16778   5
   3  -1  10 38.3801 2.89329   2
   3  -1  10 39.2341 2.09797   8
   3  -1  10 40.4012 2.29086   9
   3  -1  10 33.0014 3.21577   3
   3  -1  10 39.6063 2.25170  12
   3  -1  10 37.7925 2.27437  10
   4  -1  10 -0.4013 1.31998   4
   4  -1  10 0.71673 0.42102  10
   4  -1  10 -0.2958 0.36591  13
   4  -1  10 0.37761 0.13036   8
   4  -1  10 0.19231 0.43428   9
   4  -1  10 0.72211 0.30452  12
   5  -1  10 93.2109 5.17488   9
   5  -1  10 96.4987 5.26731  12
   5  -1  10 96.0579 5.22511  10
   6  -1  10 179.653 9.52939  10
   6  -1  10 164.021 9.62913  11
   6  -1  10 179.455 9.44755   9
   6  -1  10 187.595 9.61315  12
   7  -1  10 66.3490 3.44154  12
   7  -1  10 55.3620 3.44481  11
   7  -1  10 60.2393 3.34826  10
   8  -1  10 0.42183 0.40869  12
   8  -1  10 1.19186 0.47680  11
   8  -1  10 0.84228 0.18927  10
   8   0 -10 4.45507 0.62847  18
   8   0 -10 4.42550 0.36425   9
   8   0 -10 3.74558 0.46404  10
   7   0 -10 113.624 5.77161   9
   7   0 -10 104.367 5.77708  10
   7   0 -10 102.042 5.97393  18
   6   0 -10 15.5703 1.31520  18
   6   0 -10 16.1303 1.11376  10
   6   0 -10 16.6654 0.93040   8
   6   0 -10 16.9492 1.19820   9
   6   0 -10 16.3994 1.20584  17
   5   0 -10 4.87978 0.61727  17
   5   0 -10 5.37116 0.46190   8
   5   0 -10 4.55291 0.59390   9
   4   0 -10 185.407 9.59795   8
   4   0 -10 170.776 10.3603   7
   4   0 -10 182.105 9.71448   9
   3   0 -10 40.1373 2.28201   8
   3   0 -10 41.1675 3.09829   7
   2   0 -10 1.67056 0.34376   8
   0   0  10 95.2233 5.14490   8
   1   0  10 24.6374 2.89893   3
   1   0  10 28.0596 1.60306   8
   2   0  10 155.737 8.70814   9
   2   0  10 158.671 9.88052   3
   2   0  10 167.476 8.60594   8
   2   0  10 166.770 9.29865   2
   2   0  10 158.787 8.65907  12
   3   0  10 178.133 9.37322  12
   3   0  10 174.415 9.39520   9
   3   0  10 167.395 9.90001   2
   3   0  10 166.391 10.4442   3
   3   0  10 178.374 9.28366   8
   3   0  10 179.097 9.42006  10
   4   0  10 179.526 9.29861   9
   4   0  10 174.850 9.32188  10
   4   0  10 164.173 9.77159   2
   4   0  10 168.979 10.6324   4
   4   0  10 162.900 10.3653   3
   4   0  10 177.780 9.30007  12
   4   0  10 176.246 9.17764   8
   5   0  10 20.5893 1.16474   8
   5   0  10 21.3377 1.35483   9
   5   0  10 22.0566 1.34625  12
   5   0  10 15.4580 2.57929   4
   5   0  10 20.6037 1.41182  10
   6   0  10 69.6797 3.92880  10
   6   0  10 71.9226 3.94327  12
   6   0  10 69.2803 3.86838   9
   7   0  10 3.01706 0.57857  11
   7   0  10 3.22330 0.47353  12
   7   0  10 2.55154 0.49142  10
   7   0  10 2.97640 0.39383   9
   8   0  10 21.5586 1.55556  11
   8   0  10 26.8837 1.54877  12
   8   0  10 25.8568 1.50671  10
   9   0  10 26.7035 1.77261  11
   9   0  10 31.2172 1.63467  10
   8  -1 -10 27.6825 2.00054  18
   8  -1 -10 36.4516 1.82978  10
   7  -1 -10 23.0021 1.31593   9
   7  -1 -10 25.0286 1.60668  18
   7  -1 -10 25.3643 1.43628  10
   7  -1 -10 18.8696 1.39059  17
   6  -1 -10 45.7367 2.84462  18
   6  -1 -10 42.8460 2.62390  17
   6  -1 -10 44.2904 2.55995  10
   6  -1 -10 47.4401 2.56458   9
   5  -1 -10 6.79384 0.68249  10
   5  -1 -10 7.07830 0.74574  17
   5  -1 -10 7.64875 0.80120   9
   5  -1 -10 8.14730 0.51370   8
   4  -1 -10 1.61025 0.39732  17
   4  -1 -10 1.72215 0.44907   9
   4  -1 -10 0.95945 0.93680   7
   4  -1 -10 1.03526 0.26405   8
   4  -1 -10 1.59725 0.42971  10
   3  -1 -10 129.925 7.50979   7
   3  -1 -10 129.040 6.67443   8
   3  -1 -10 120.674 6.77037   9
   3  -1 -10 118.814 7.33952   2
   2  -1 -10 16.8689 3.03211   3
   2  -1 -10 23.5923 1.35633   8
   2  -1 -10 22.6755 1.99930   7
   1  -1 -10 6.11270 0.58284   8
   1   1  10 178.043 9.53609   8
   2   1  10 94.6058 5.10314   8
   3   1  10 66.0060 4.89138   3
   3   1  10 61.7410 3.69134   9
   3   1  10 68.3718 3.58436   8
   3   1  10 67.4411 4.28918   2
   4   1  10 411.975 21.8734   9
   4   1  10 428.699 21.7658   8
   4   1  10 394.846 23.0275   3
   4   1  10 408.481 22.4261   2
   5   1  10 165.988 9.06365  10
   5   1  10 160.342 9.61453   2
   5   1  10 171.385 8.92497   8
   5   1  10 171.757 9.04394   9
   6   1  10 66.3027 3.74597   9
   6   1  10 67.8996 3.79181  10
   6   1  10 66.2839 3.59839   8
   6   1  10 68.4991 3.76106  12
   7   1  10 4.96022 0.53854   9
   7   1  10 5.16460 0.63631  12
   7   1  10 5.50484 0.60632  10
   8   1  10 40.2272 2.31208  12
   8   1  10 39.7460 2.22066   9
   8   1  10 42.2297 2.31763  10
   8   1  10 36.0521 2.39429  11
   9   1  10 27.5564 1.66253  12
   9   1  10 28.7050 1.62435  10
   9   1  10 27.9051 1.70557  11
  10   1  10 9.04031 0.56897  10
   8  -2 -10 36.8487 1.99858  10
   7  -2 -10 3.68079 0.53494  17
   7  -2 -10 5.15743 0.53330  10
   6  -2 -10 67.6728 3.67287  10
   6  -2 -10 59.9205 3.87697  18
   6  -2 -10 69.9327 3.76295  17
   6  -2 -10 68.0968 3.61429   9
   5  -2 -10 2.54525 0.47637  17
   5  -2 -10 1.03971 0.36715   9
   5  -2 -10 1.82554 0.36010  10
   4  -2 -10 50.2368 2.89099  10
   4  -2 -10 51.9277 2.92023   9
   4  -2 -10 49.9174 2.76373   8
   4  -2 -10 54.3809 3.05579  17
   3  -2 -10 9.65655 0.82415   9
   3  -2 -10 7.67919 1.27789   2
   3  -2 -10 9.20955 0.82477  10
   3  -2 -10 9.21053 0.64276   8
   3  -2 -10 9.48432 1.33844   7
   2  -2 -10 396.634 20.9330   7
   2  -2 -10 357.732 20.7295   2
   2  -2 -10 380.251 21.9926   3
   2  -2 -10 368.931 20.2067   9
   2  -2 -10 398.112 20.1264   8
   1  -2 -10 8.76283 2.20712   3
   1  -2 -10 9.04090 0.66258   8
   1  -2 -10 8.31722 0.84676   9
   1  -2 -10 6.44480 1.20018   2
   0  -2 -10 75.6253 4.10997   8
  -1  -2 -10 4.00510 0.40407   8
   3   2  10 0.11776 0.28628   8
   4   2  10 83.5843 4.51542   8
   5   2  10 369.629 18.0222   8
   5   2  10 330.898 18.7251   2
   5   2  10 352.135 18.1409   9
   5   2  10 301.154 19.2848   3
   6   2  10 13.9211 1.12823   9
   6   2  10 14.4637 0.92015   8
   7   2  10 1.43309 0.50981  10
   7   2  10 2.72658 0.27732   8
   7   2  10 1.67741 0.47219   9
   7   2  10 3.03329 0.43710  12
   8   2  10 19.9333 1.34247  12
   8   2  10 19.1422 1.20728   9
   8   2  10 18.7891 1.33610  10
   9   2  10 161.988 8.43082   9
   9   2  10 158.843 8.50691  10
   9   2  10 154.569 8.51697  12
  10   2  10 9.54806 0.65119  12
  10   2  10 9.56513 0.64789  10
   7  -3 -10 5.21561 0.54018  17
   7  -3 -10 5.37829 0.42944  10
   6  -3 -10 0.13800 0.47389  17
   6  -3 -10 0.62403 0.30814  10
   5  -3 -10 48.1036 2.77548  10
   5  -3 -10 50.1065 2.97408  17
   5  -3 -10 51.2312 2.74204   9
   4  -3 -10 150.897 8.10160  17
   4  -3 -10 146.596 7.92880   9
   4  -3 -10 146.416 7.94955  10
   3  -3 -10 12.5047 0.71659   8
   3  -3 -10 9.89509 1.57388   7
   3  -3 -10 12.3706 0.94402  10
   3  -3 -10 12.6586 0.94521   9
   3  -3 -10 13.3856 1.02524  17
   2  -3 -10 0.13841 0.74076   2
   2  -3 -10 0.13825 0.84103   7
   2  -3 -10 0.42922 0.24769   8
   2  -3 -10 0.71816 0.36598   9
   2  -3 -10 -1.3703 1.98608   3
   2  -3 -10 0.67530 0.35819  10
   1  -3 -10 122.282 7.13406   2
   1  -3 -10 127.150 7.27065   7
   1  -3 -10 122.489 6.48751   8
   1  -3 -10 124.799 6.59952   9
   1  -3 -10 109.953 8.32601   3
   1  -3 -10 116.453 6.57494  16
   1  -3 -10 123.627 6.58418  10
   0  -3 -10 65.1133 3.71631   9
   0  -3 -10 67.2987 4.32025   2
   0  -3 -10 63.4059 5.54299   3
   0  -3 -10 64.2058 3.68110  16
   0  -3 -10 69.2536 3.61403   8
  -1  -3 -10 27.6142 2.33841   2
  -1  -3 -10 20.3303 3.11722   3
  -1  -3 -10 25.5775 1.49480   8
  -2  -3 -10 2.46897 0.38212   8
   4   3  10 21.2386 1.29633   8
   5   3  10 3.03438 0.40021   8
   6   3  10 458.683 24.9056   9
   6   3  10 479.261 24.7908   8
   7   3  10 0.68736 0.43569   9
   7   3  10 1.59217 0.28995   8
   8   3  10 4.92314 0.59478   9
   8   3  10 5.99285 0.72769  12
   8   3  10 5.05093 0.65964  10
   8   3  10 5.93437 0.41777   8
   9   3  10 5.07606 0.54265  12
   9   3  10 5.18425 0.54024  10
   9   3  10 4.79579 0.51504   9
  10   3  10 60.1184 3.58977  12
  10   3  10 63.6338 3.59890  10
  10   3  10 73.6002 3.52588   9
   7  -4 -10 601.325 31.7851  17
   6  -4 -10 33.0387 1.78241  10
   6  -4 -10 31.0683 1.98789  17
   5  -4 -10 99.6103 5.54848  17
   5  -4 -10 100.307 5.38081  10
   4  -4 -10 22.1086 1.29502  10
   4  -4 -10 18.2113 1.33239  16
   4  -4 -10 21.4633 1.53542  17
   4  -4 -10 20.3027 1.21912   9
   3  -4 -10 27.9320 1.77935  17
   3  -4 -10 25.2418 1.54676  10
   3  -4 -10 22.7976 1.60528  16
   3  -4 -10 25.9714 1.51954   9
   2  -4 -10 1.29001 0.36585  10
   2  -4 -10 0.76813 0.34599   9
   2  -4 -10 0.92598 0.31153  16
   2  -4 -10 1.33080 0.51617  17
   2  -4 -10 0.39324 0.90517   7
   1  -4 -10 93.9414 5.69204   2
   1  -4 -10 94.5340 5.20916  16
   1  -4 -10 99.8339 5.08440   8
   1  -4 -10 102.290 5.20666   9
   1  -4 -10 95.3497 5.91887   7
   1  -4 -10 86.6362 6.06153   6
   1  -4 -10 83.5005 7.23233   3
   1  -4 -10 94.7492 5.19334  10
   0  -4 -10 57.5023 3.13632   8
   0  -4 -10 59.1994 3.28076  16
   0  -4 -10 52.3573 5.46031   3
   0  -4 -10 63.4865 4.00640   7
   0  -4 -10 58.1845 3.25360  10
   0  -4 -10 52.1840 3.85572   2
   0  -4 -10 57.4756 3.26406   9
  -1  -4 -10 1.93502 1.79306   3
  -1  -4 -10 1.89264 0.31134   8
  -1  -4 -10 2.49425 1.02499   2
  -1  -4 -10 2.33225 0.48740   9
  -2  -4 -10 99.8460 6.24622   2
  -2  -4 -10 98.4783 7.50462   3
  -2  -4 -10 103.356 5.46711   8
  -3  -4 -10 80.5455 4.38688   8
  -4  -4 -10 796.489 42.0888   8
   5   4  10 1.62922 0.35291   8
   6   4  10 61.6850 3.39032   8
   7   4  10 160.346 8.81850   9
   7   4  10 165.689 8.68910   8
   8   4  10 31.2819 1.75271   8
   8   4  10 31.1777 1.88960   9
   9   4  10 0.61788 0.38032  12
   9   4  10 0.05743 0.27547   9
  10   4  10 2.31261 0.37041  10
  10   4  10 2.37837 0.29936  12
  10   4  10 2.39757 0.28786   9
   6  -5 -10 0.41799 0.30663  17
   5  -5 -10 81.4641 4.51139  17
   5  -5 -10 72.9056 4.39888  16
   5  -5 -10 88.0943 4.33319  10
   4  -5 -10 22.9603 1.50089  17
   4  -5 -10 22.7876 1.32111  10
   4  -5 -10 20.8197 1.44081  16
   3  -5 -10 0.59488 0.18847   9
   3  -5 -10 0.88179 0.41666  17
   3  -5 -10 -0.1716 0.41406  16
   3  -5 -10 0.69390 0.31263  10
   2  -5 -10 6.91960 0.59210   9
   2  -5 -10 7.20204 0.91208  17
   2  -5 -10 5.44502 0.65953  16
   2  -5 -10 6.51129 0.67059  10
   1  -5 -10 67.8655 3.70687  10
   1  -5 -10 58.5901 4.67722   6
   1  -5 -10 67.2172 3.69077   9
   1  -5 -10 67.1385 3.76977  16
   1  -5 -10 74.7348 3.85661  17
   1  -5 -10 59.3930 4.33978   7
   0  -5 -10 8.50487 2.20687   3
   0  -5 -10 8.40724 0.54476   8
   0  -5 -10 5.15641 1.02872   2
   0  -5 -10 7.85744 0.74080  16
   0  -5 -10 7.79592 0.77084   9
   0  -5 -10 8.35216 0.77687  10
   0  -5 -10 6.80525 1.49444   6
   0  -5 -10 7.12073 1.25487   7
  -1  -5 -10 66.1315 3.60298   8
  -1  -5 -10 60.9830 4.54072   6
  -1  -5 -10 68.2781 3.73581  10
  -1  -5 -10 64.4759 4.34126   7
  -1  -5 -10 68.5334 3.75211   9
  -1  -5 -10 70.1265 3.78925  16
  -1  -5 -10 62.1644 5.72425   3
  -2  -5 -10 1.00022 0.93155   2
  -2  -5 -10 0.39024 0.27686   8
  -2  -5 -10 -0.1116 0.43096   9
  -2  -5 -10 0.64754 1.75742   3
  -3  -5 -10 179.881 9.58919   8
  -3  -5 -10 179.339 9.72752   9
  -4  -5 -10 26.4420 1.57067   8
  -5  -5 -10 7.14396 0.78597   8
   6   5  10 69.7544 3.82910   8
   7   5  10 93.0655 5.03371   8
   8   5  10 66.4840 3.61365   8
   9   5  10 150.800 7.98094   9
   9   5  10 145.499 7.85343   8
  10   5  10 6.77585 0.55886  12
  10   5  10 8.34570 0.61833   9
   5  -6 -10 0.17493 0.32092  17
   5  -6 -10 0.11592 0.23461  16
   4  -6 -10 35.0787 1.86671  10
   4  -6 -10 36.0679 2.08733  17
   4  -6 -10 31.6417 1.98836  16
   3  -6 -10 2.11547 0.39562  16
   3  -6 -10 1.67578 0.56318  17
   3  -6 -10 2.20569 0.54236  15
   3  -6 -10 1.82230 0.29158  10
   2  -6 -10 2.89904 0.58752  15
   2  -6 -10 1.71331 0.33763  10
   2  -6 -10 1.17495 0.49688  16
   2  -6 -10 2.19507 0.44923  17
   1  -6 -10 821.484 43.4638  10
   1  -6 -10 814.555 43.5390  16
   1  -6 -10 819.184 43.4256   9
   1  -6 -10 837.409 43.6018  17
   0  -6 -10 48.3669 2.77475  16
   0  -6 -10 47.4930 2.64941   9
   0  -6 -10 45.9545 2.76678  17
   0  -6 -10 40.5094 3.54424   6
   0  -6 -10 48.8663 2.67726  10
  -1  -6 -10 3.16344 0.48407  10
  -1  -6 -10 2.95980 0.46239  16
  -1  -6 -10 1.08347 1.17725   6
  -1  -6 -10 2.16848 0.22492   8
  -1  -6 -10 2.50096 0.45752   9
  -1  -6 -10 2.19258 0.44835  17
  -2  -6 -10 165.796 10.0585   2
  -2  -6 -10 178.669 9.34615   8
  -2  -6 -10 191.216 9.50344   9
  -2  -6 -10 157.252 10.3333   6
  -2  -6 -10 180.302 9.53942  16
  -3  -6 -10 111.182 6.06013   9
  -3  -6 -10 114.755 5.90166   8
  -3  -6 -10 99.1517 6.70949   2
  -4  -6 -10 91.3595 5.24600   9
  -4  -6 -10 96.1309 5.09228   8
  -5  -6 -10 28.3709 1.68295   8
  -6  -6 -10 49.1815 2.77970   8
  -7  -6 -10 19.0872 1.28866   8
   7   6  10 17.7824 1.18341   8
  -8  -6 -10 0.83143 0.43020   8
   8   6  10 1.00416 0.35634   8
   9   6  10 3.05159 0.35346   8
   9   6  10 3.43955 0.52197   9
  10   6  10 78.4307 4.13870   8
   4  -7 -10 44.4239 2.48931  16
   4  -7 -10 44.6107 2.54142  17
   3  -7 -10 3.78214 0.26696  10
   3  -7 -10 3.50208 0.47422  17
   3  -7 -10 3.87064 0.56693  15
   3  -7 -10 3.14205 0.53758  16
   2  -7 -10 101.447 5.65075  17
   2  -7 -10 94.6592 5.72572  15
   2  -7 -10 107.947 5.62418  16
   2  -7 -10 106.459 5.49736  10
   1  -7 -10 144.739 8.08602  17
   1  -7 -10 159.544 8.09967  16
   1  -7 -10 138.334 8.15746  15
   1  -7 -10 153.358 7.96595  10
   0  -7 -10 35.7650 2.07298  10
   0  -7 -10 35.1690 2.20840  16
   0  -7 -10 33.5017 2.26856  15
   0  -7 -10 37.2255 1.99659   9
  -1  -7 -10 74.6019 4.05751  16
  -1  -7 -10 68.9637 3.90287   9
  -1  -7 -10 70.1078 3.94081  10
  -2  -7 -10 14.1919 1.10662   9
  -2  -7 -10 15.1427 1.23334  16
  -3  -7 -10 71.1041 5.33101   6
  -3  -7 -10 81.3296 4.44702   9
  -3  -7 -10 80.3813 4.46441  16
  -3  -7 -10 80.8505 4.25269   8
  -3  -7 -10 78.8910 4.41506  10
  -4  -7 -10 121.412 6.55346   9
  -4  -7 -10 116.594 6.37702   8
  -5  -7 -10 91.4724 5.23999   9
  -5  -7 -10 95.4909 5.07097   8
  -6  -7 -10 61.5066 3.41425   8
  -7  -7 -10 72.9471 4.01965   8
  -8  -7 -10 0.19894 0.28841   8
   8   7  10 0.79476 0.34377   8
  -9  -7 -10 47.0957 2.63530   8
   9   7  10 47.5458 2.58183   8
 -10  -7 -10 50.6618 2.68546   8
  10   7  10 45.8482 2.70811   9
  10   7  10 49.1822 2.60056   8
   3  -8 -10 44.6951 2.50390  16
   2  -8 -10 158.582 9.17929  15
   2  -8 -10 181.372 9.12549  16
   1  -8 -10 18.0752 1.08570  10
   1  -8 -10 20.7741 1.36277  16
   1  -8 -10 17.1296 1.40218  15
   0  -8 -10 33.8991 1.92424  10
   0  -8 -10 31.6379 2.10526  15
   0  -8 -10 36.3489 2.11550  16
  -1  -8 -10 218.404 11.5741  10
  -1  -8 -10 223.520 11.4773   9
  -1  -8 -10 224.118 11.6890  16
  -1  -8 -10 201.833 11.7258  15
  -2  -8 -10 24.6179 1.52810  10
  -2  -8 -10 22.9601 1.60087  15
  -2  -8 -10 24.4353 1.58075  16
  -2  -8 -10 23.0599 1.43446   9
  -3  -8 -10 16.5135 1.26281  10
  -3  -8 -10 15.6119 1.17857   9
  -3  -8 -10 16.7139 1.22118  16
  -4  -8 -10 89.1812 4.88824  16
  -4  -8 -10 89.0627 4.83967  10
  -4  -8 -10 91.5464 4.85689   9
  -4  -8 -10 80.3462 4.62020   8
  -5  -8 -10 69.7947 3.92470   9
  -5  -8 -10 67.9808 3.72091   8
  -6  -8 -10 28.9224 1.66909   8
  -6  -8 -10 28.9767 1.83796   9
  -7  -8 -10 8.01466 0.60566   8
  -7  -8 -10 7.49063 0.82121   9
  -8  -8 -10 22.5636 1.30423   8
   8   8  10 21.6798 1.30687   8
  -9  -8 -10 69.1469 3.68931   8
   9   8  10 67.3428 3.68048   8
 -10  -8 -10 70.3248 3.81614   8
  10   8  10 71.8762 3.79082   8
   2  -9 -10 10.6071 0.75827  16
   1  -9 -10 122.304 6.31886  16
   1  -9 -10 111.081 6.36524  15
   0  -9 -10 4.29549 0.56712  15
   0  -9 -10 4.58695 0.37112  10
   0  -9 -10 5.57806 0.63698  16
  -1  -9 -10 25.7786 1.49725  10
  -1  -9 -10 24.3647 1.67184  15
  -1  -9 -10 27.9207 1.72231  16
  -2  -9 -10 343.757 17.8801  10
  -2  -9 -10 345.254 17.9754  16
  -2  -9 -10 322.286 18.0117  15
  -3  -9 -10 93.9899 4.81794  16
  -3  -9 -10 78.5619 4.80315  15
  -3  -9 -10 86.6533 4.64458   9
  -4  -9 -10 9.94578 0.91152  16
  -4  -9 -10 11.2110 0.98426  10
  -4  -9 -10 9.60518 0.84808   9
  -5  -9 -10 36.4643 2.13260   9
  -5  -9 -10 33.8642 2.09642  10
  -5  -9 -10 35.2905 2.14908  16
  -6  -9 -10 5.25348 0.65973   9
  -6  -9 -10 4.24074 0.57240  16
  -7  -9 -10 1.60676 0.39993  16
  -7  -9 -10 1.45350 0.20161   8
  -7  -9 -10 1.73377 0.52682   9
  -8  -9 -10 41.7445 2.22308   8
  -8  -9 -10 40.1324 2.36782   9
  -9  -9 -10 155.713 7.63084   8
  -9  -9 -10 132.302 7.71737  16
   0 -10 -10 43.0068 2.63581  15
   0 -10 -10 49.7429 2.59865  16
  -1 -10 -10 22.5478 1.53809  15
  -1 -10 -10 26.6780 1.50507  16
  -2 -10 -10 1.30677 0.47934  16
  -2 -10 -10 1.90772 0.26208  10
  -2 -10 -10 1.31976 0.48145  15
  -3 -10 -10 10.5693 0.99913  15
  -3 -10 -10 11.7805 1.00745  16
  -3 -10 -10 12.4729 0.83840  10
  -4 -10 -10 70.8343 4.13112  15
  -4 -10 -10 77.5168 4.11632  16
  -5 -10 -10 33.2686 2.00725  16
  -5 -10 -10 34.6446 1.92350   9
  -6 -10 -10 14.6985 0.94692   9
  -6 -10 -10 15.9612 1.02143  10
  -6 -10 -10 13.4566 1.02055  16
  -8 -10 -10 10.8842 0.83665   9
  -3 -11 -10 158.037 8.44951  16
  -4 -11 -10 206.908 11.7892  16
  -4 -11 -10 236.483 11.7453  10
  -5 -11 -10 0.30370 0.23231  16
  -5 -11 -10 0.75138 0.21230  10
  -6 -11 -10 6.91171 0.52059  10
  -5  -7  11 24.1632 1.62664  14
  -5  -7  11 29.3107 1.56785   9
  -4  -7  11 187.619 8.96100   9
  -4  -7  11 162.589 8.99032  10
  -4  -7  11 154.268 9.05608  14
  -3  -7  11 60.4628 3.89394  14
  -3  -7  11 71.1065 3.73722   9
  -3  -7  11 79.7857 3.86601  10
  -2  -7  11 0.07670 0.27155  13
  -2  -7  11 -0.2142 0.23494  10
  -1  -7  11 296.053 14.4037  13
  -1  -7  11 243.855 14.2794  10
   0  -7  11 13.6463 0.94860  13
   0  -7  11 13.2718 0.81281  10
   1  -7  11 14.4898 0.95719  13
  -6  -6  11 2.34003 0.52111   9
  -6  -6  11 3.16969 0.45646  14
  -5  -6  11 7.85467 0.79467  14
  -5  -6  11 10.6238 0.82662   9
  -4  -6  11 17.0196 1.19496   9
  -4  -6  11 12.8974 1.07231  14
  -3  -6  11 1.07189 0.51662  14
  -3  -6  11 1.41246 0.46738  10
  -3  -6  11 1.12455 0.32534  13
  -3  -6  11 1.02852 0.45362   9
  -2  -6  11 0.46092 0.35213   9
  -2  -6  11 0.16210 0.32424  13
  -2  -6  11 0.72356 0.44226  10
  -1  -6  11 41.3002 2.44449  13
  -1  -6  11 39.9584 2.25786   9
  -1  -6  11 42.2016 2.39320  10
   0  -6  11 0.31580 0.33899  13
   0  -6  11 0.82759 0.26844  10
   1  -6  11 71.6059 3.91950  10
   1  -6  11 73.2944 4.07869  13
   2  -6  11 2.62308 0.26418  10
   2  -6  11 2.57477 0.39968  13
   2  -6  11 2.11565 0.33694  12
   3  -6  11 127.223 6.82285  12
   7   5 -11 0.08570 0.23398   8
  -7  -5  11 0.13019 0.28976   8
   6   5 -11 4.13009 0.43420   8
  -6  -5  11 3.45166 0.43250   8
  -5  -5  11 29.4305 1.65077   8
  -5  -5  11 26.5529 1.78306   9
  -4  -5  11 6.70054 0.80599   9
  -4  -5  11 6.91056 0.60781   8
  -3  -5  11 38.4358 2.23027   9
  -3  -5  11 35.6013 2.19467  13
  -3  -5  11 36.1081 2.02071   8
  -2  -5  11 58.1122 3.24432  13
  -2  -5  11 58.2473 3.22889  10
  -2  -5  11 47.5632 3.22741  14
  -2  -5  11 59.9902 3.23803   9
  -1  -5  11 0.94119 0.47095  10
  -1  -5  11 1.10964 0.37979  13
  -1  -5  11 0.85918 0.43272   9
   0  -5  11 1.55113 0.44618  10
   0  -5  11 1.20745 0.34672   9
   0  -5  11 1.07587 0.39020  13
   1  -5  11 15.4431 1.26150  13
   1  -5  11 16.2270 1.11150  10
   2  -5  11 0.56880 0.41737  12
   2  -5  11 0.62920 0.35890  13
   2  -5  11 0.87010 0.23491  10
   3  -5  11 44.8923 2.58792  13
   3  -5  11 44.3985 2.57714  12
   3  -5  11 44.7216 2.43526  10
   4  -5  11 27.3244 1.56621  12
   4  -5  11 24.7621 1.56564  13
   5  -5  11 70.1590 3.82164  12
   7   4 -11 -0.1281 0.16233   8
  -7  -4  11 -0.1255 0.25247   8
   6   4 -11 49.2780 2.79637   8
  -6  -4  11 53.1510 2.89202   8
   5   4 -11 108.899 5.83939   8
  -5  -4  11 107.391 5.85509   8
  -4  -4  11 0.74200 0.61371   9
  -4  -4  11 0.17874 0.40864   8
  -3  -4  11 2.93157 0.44451   8
  -3  -4  11 2.14510 0.51569  13
  -3  -4  11 4.57218 0.59299   9
  -2  -4  11 115.588 6.38388   9
  -2  -4  11 119.531 6.42999  13
  -2  -4  11 112.140 6.20826   8
  -1  -4  11 380.168 20.7486   8
  -1  -4  11 402.689 20.9260   9
  -1  -4  11 384.046 20.9076  10
  -1  -4  11 405.190 21.0043  13
   0  -4  11 14.2493 1.24357  13
   0  -4  11 13.8742 1.15279  10
   0  -4  11 13.7045 1.13498   9
   1  -4  11 0.05336 0.33945  13
   1  -4  11 -0.1558 0.42754  10
   1  -4  11 0.32411 0.44078   9
   2  -4  11 213.873 10.9174   9
   2  -4  11 208.437 10.9998  10
   2  -4  11 199.976 11.0349  12
   2  -4  11 199.606 11.0955  13
   3  -4  11 28.6024 1.81393  12
   3  -4  11 28.1846 1.79442  13
   3  -4  11 28.7742 1.69381  10
   4  -4  11 8.69908 0.78331  12
   4  -4  11 8.50853 0.74407  13
   4  -4  11 9.44080 0.64605  10
   5  -4  11 11.5530 0.85064  12
   6  -4  11 107.364 5.78546  12
   7   3 -11 248.359 14.1404   9
   7   3 -11 282.921 14.0499   8
   6   3 -11 31.0669 1.74960   8
  -6  -3  11 29.4350 1.80031   8
   5   3 -11 70.9792 3.90625   8
  -5  -3  11 71.7812 3.98216   8
  -4  -3  11 5.47992 0.56963   8
  -3  -3  11 10.5571 0.95502   8
  -3  -3  11 10.8794 1.04490  13
  -2  -3  11 8.09155 1.02169   9
  -2  -3  11 9.53436 0.81402   8
  -1  -3  11 20.4535 1.50484   9
  -1  -3  11 20.4369 1.27083   8
   0  -3  11 11.7985 1.12810  10
   0  -3  11 14.9725 1.10938  13
   0  -3  11 13.0409 1.13052   9
   0  -3  11 13.1211 0.86070   8
   1  -3  11 25.0774 1.68025  10
   1  -3  11 23.8450 1.39373   8
   1  -3  11 26.8503 1.76335  13
   1  -3  11 26.8982 1.65662   9
   2  -3  11 41.0368 2.39731  10
   2  -3  11 39.6953 2.33120   9
   2  -3  11 37.5408 2.39217  12
   2  -3  11 42.6445 2.50417  13
   3  -3  11 2.53696 0.52501  12
   3  -3  11 2.75921 0.56824  13
   3  -3  11 3.54994 0.45020  10
   3  -3  11 3.11405 0.41653   9
   4  -3  11 162.718 8.72535  12
   4  -3  11 155.347 8.73044  13
   4  -3  11 165.394 8.64192  10
   5  -3  11 3.30739 0.46522  12
   5  -3  11 2.66477 0.36843  10
   6  -3  11 26.0941 1.53555  12
   6  -3  11 24.0154 1.35779  10
   7  -3  11 85.1739 4.61849  12
   8   2 -11 2.71983 0.29444   9
   8   2 -11 2.17995 0.42208  18
   7   2 -11 5.43366 0.38676   8
   7   2 -11 6.17896 0.72649  18
   7   2 -11 4.11633 0.59231   9
   6   2 -11 139.897 7.32575   8
   6   2 -11 134.828 7.45236   9
   5   2 -11 14.8806 1.00926   8
   4   2 -11 25.7892 1.61465   8
  -4  -2  11 27.5558 1.71173   8
  -3  -2  11 175.814 9.44462   8
  -2  -2  11 316.504 16.1686   8
  -2  -2  11 288.432 17.4424   5
  -1  -2  11 0.21369 0.35500   9
  -1  -2  11 0.97589 0.37704   8
  -1  -2  11 0.35592 1.15428   5
   0  -2  11 1.27566 1.20105   5
   0  -2  11 0.55726 0.33465   8
   0  -2  11 0.85310 1.19953   2
   0  -2  11 1.47872 0.41033   9
   1  -2  11 290.401 15.4880   8
   1  -2  11 299.190 15.6390  10
   1  -2  11 300.515 15.6289   9
   1  -2  11 276.760 16.7530   5
   2  -2  11 36.8274 2.00154   8
   2  -2  11 37.8611 2.18468  10
   2  -2  11 31.1264 3.20969   5
   2  -2  11 36.8489 2.18699   9
   2  -2  11 36.3596 2.19081  12
   3  -2  11 5.33905 0.67536  13
   3  -2  11 5.93199 0.59686   9
   3  -2  11 4.91303 0.61962  12
   3  -2  11 4.97638 0.62533  10
   4  -2  11 19.4960 1.36661  12
   4  -2  11 19.5457 1.21363   9
   4  -2  11 19.5801 1.31382  13
   4  -2  11 18.3255 1.24077  10
   5  -2  11 2.74284 0.54124  12
   5  -2  11 2.98391 0.32067   9
   5  -2  11 2.33319 0.44733  10
   6  -2  11 1.58847 0.36708  12
   6  -2  11 1.44626 0.34416  10
   7  -2  11 1.03498 0.32300  12
   7  -2  11 0.44054 0.18622  10
   8   1 -11 0.43699 0.19219   9
   8   1 -11 0.56379 0.32049  18
   7   1 -11 26.7314 1.45703   9
   7   1 -11 21.3899 1.57349  18
   6   1 -11 46.1607 2.55774   8
   6   1 -11 48.4062 2.74456   9
   5   1 -11 27.4775 1.76778  17
   5   1 -11 28.2821 1.83753   9
   5   1 -11 29.1246 1.61599   8
   4   1 -11 10.6594 0.83810   8
   3   1 -11 95.2214 4.86939   8
   3   1 -11 86.9504 5.65724   7
  -3  -1  11 81.6981 6.06709   5
   2   1 -11 112.478 7.16553   7
  -2  -1  11 115.483 7.56920   5
  -2  -1  11 124.625 6.43298   8
  -1  -1  11 148.409 9.35857   5
  -1  -1  11 153.527 8.14055   8
   0  -1  11 5.58199 1.40816   5
   0  -1  11 5.61552 0.54752   8
   1  -1  11 61.1337 4.48546   5
   1  -1  11 63.7947 3.28363   8
   1  -1  11 48.6769 4.61416   3
   1  -1  11 60.0219 3.42910   9
   1  -1  11 58.3565 4.13211   2
   2  -1  11 80.4330 5.63770   5
   2  -1  11 80.8523 5.34932   2
   2  -1  11 85.4077 4.72970   9
   2  -1  11 85.0390 4.69282  12
   2  -1  11 86.1207 4.74462  10
   2  -1  11 88.5404 4.59509   8
   3  -1  11 214.858 11.2931   9
   3  -1  11 214.780 11.1617   8
   3  -1  11 215.427 11.3254  10
   3  -1  11 212.121 11.3037  12
   3  -1  11 192.004 12.2943   5
   4  -1  11 0.37969 0.30062  12
   4  -1  11 -0.0558 0.31023  10
   4  -1  11 0.55524 0.43513  13
   4  -1  11 0.32384 0.37616   9
   5  -1  11 124.354 6.67193   9
   5  -1  11 125.987 6.76078  12
   5  -1  11 121.651 6.73136  10
   6  -1  11 25.1508 1.47914  10
   6  -1  11 24.0161 1.37851   9
   6  -1  11 23.9654 1.54151  12
   7  -1  11 0.19564 0.21904  10
   7  -1  11 0.04905 0.42137  12
   8  -1  11 15.3876 1.00252  12
   8  -1  11 15.0799 0.88939  10
   7   0 -11 150.933 8.75711  10
   7   0 -11 182.510 8.74454   9
   7   0 -11 157.863 8.91088  18
   6   0 -11 30.5504 2.02761  18
   6   0 -11 32.7621 1.82162   9
   6   0 -11 26.3185 1.76660  17
   5   0 -11 25.7009 1.45970   8
   5   0 -11 26.0234 1.67853   9
   5   0 -11 25.1702 1.67247  17
   4   0 -11 357.104 19.9372  17
   4   0 -11 396.730 19.8091   8
   4   0 -11 368.564 19.9178   9
   3   0 -11 5.79040 1.29231   7
   3   0 -11 7.84871 0.70034   8
   2   0 -11 4.12024 0.47478   8
   2   0 -11 3.50252 1.05121   7
   0   0  11 130.598 7.02764   8
   1   0  11 39.1841 2.23255   8
   2   0  11 6.81384 0.72601   9
   2   0  11 5.62830 1.28627   2
   2   0  11 3.68087 1.65979   3
   2   0  11 6.62872 0.61567   8
   2   0  11 6.52253 0.65852  12
   3   0  11 1.02223 0.27859   8
   3   0  11 1.07678 0.97990   2
   3   0  11 0.15650 0.42764   9
   3   0  11 1.19770 0.30087  12
   3   0  11 -0.2603 0.92066   5
   4   0  11 7.19589 0.77614   9
   4   0  11 6.37229 0.52346   8
   4   0  11 6.30486 0.73657  12
   4   0  11 7.16433 0.70990  10
   5   0  11 14.9037 0.97383  12
   5   0  11 14.4629 1.06996  10
   5   0  11 10.7612 0.68280   8
   5   0  11 13.8397 0.98762   9
   6   0  11 27.8384 1.68277   9
   6   0  11 28.3169 1.70899  10
   6   0  11 28.0757 1.73024  12
   7   0  11 131.547 7.13064  10
   7   0  11 128.915 7.04535   9
   7   0  11 137.176 7.20743  12
   8   0  11 12.7427 0.82410  10
   8   0  11 9.69737 0.82019  12
   9   0  11 3.67799 0.40372  12
   9   0  11 3.49052 0.31673  10
   7  -1 -11 27.3256 1.64457  17
   7  -1 -11 25.0123 1.60658  10
   7  -1 -11 31.3372 1.53945   9
   6  -1 -11 49.5681 2.58514   9
   6  -1 -11 44.7847 2.58807  10
   6  -1 -11 41.6416 2.78683  18
   6  -1 -11 47.1186 2.64811  17
   5  -1 -11 0.53205 0.50178  18
   5  -1 -11 0.61109 0.41154   9
   5  -1 -11 0.25014 0.42277  10
   5  -1 -11 -0.0764 0.44491  17
   5  -1 -11 0.49167 0.13736   8
   4  -1 -11 16.8182 1.06301   8
   4  -1 -11 18.6374 1.23021  17
   4  -1 -11 16.2152 1.25514   9
   3  -1 -11 134.476 7.34224   9
   3  -1 -11 136.202 7.24097   8
   2  -1 -11 134.611 7.98636   7
   2  -1 -11 132.118 7.13649   8
   1  -1 -11 4.54498 0.48245   8
   0  -1 -11 21.9661 1.40144   8
   1   1  11 131.733 7.06977   8
   2   1  11 43.4931 2.44515   8
   3   1  11 0.33567 0.29457   8
   3   1  11 0.18863 0.44425   9
   4   1  11 327.408 19.4824   2
   4   1  11 357.897 18.8164   8
   4   1  11 378.056 18.9531   9
   5   1  11 3.78058 0.61122  10
   5   1  11 3.87302 0.47673  12
   5   1  11 4.58622 0.44875   8
   5   1  11 4.27099 0.56402   9
   6   1  11 15.6150 1.04063  12
   6   1  11 13.5310 1.13156  10
   6   1  11 14.3204 0.81528   8
   6   1  11 13.7575 1.06607   9
   7   1  11 7.63843 0.71577   9
   7   1  11 6.88048 0.81542  10
   7   1  11 8.02331 0.85134  12
   8   1  11 19.9646 1.16113   9
   8   1  11 19.0116 1.23957  10
   8   1  11 20.7209 1.36014  12
   9   1  11 101.543 5.40796  12
   9   1  11 98.5499 5.36432  10
   7  -2 -11 0.14531 0.18732  10
   7  -2 -11 0.27294 0.23170  17
   6  -2 -11 75.9607 4.35088  10
   6  -2 -11 79.5735 4.43612  17
   6  -2 -11 84.9702 4.30346   9
   5  -2 -11 44.9123 2.57693  10
   5  -2 -11 44.8582 2.67797  17
   5  -2 -11 44.8263 2.53372   9
   4  -2 -11 9.10952 0.83940  17
   4  -2 -11 8.72618 0.84950  10
   4  -2 -11 9.33863 0.85227   9
   4  -2 -11 8.59248 0.53486   8
   3  -2 -11 64.8751 3.59982   9
   3  -2 -11 64.5186 3.45918   8
   3  -2 -11 61.9388 3.55410  10
   2  -2 -11 73.6775 4.02031   9
   2  -2 -11 65.1457 4.63921   2
   2  -2 -11 75.9632 3.89453   8
   2  -2 -11 66.1043 4.72333   7
   1  -2 -11 13.2392 1.12640   9
   1  -2 -11 13.9658 0.93119   8
   1  -2 -11 14.2362 1.61810   7
   0  -2 -11 5.66496 0.52907   8
  -1  -2 -11 7.97566 0.73502   8
   2   2  11 734.946 38.8165   8
   3   2  11 0.89343 0.34500   8
   4   2  11 73.3667 3.99554   8
   5   2  11 77.1254 4.41059   9
   5   2  11 81.6460 4.31354   8
   6   2  11 619.162 32.8997   9
   6   2  11 623.330 32.7765   8
   7   2  11 43.9126 2.46606  12
   7   2  11 40.2582 2.22759   8
   7   2  11 42.3041 2.42856   9
   7   2  11 40.5386 2.46418  10
   8   2  11 52.0718 2.80657   9
   8   2  11 46.3097 2.82555  10
   8   2  11 51.7226 2.84859  12
   9   2  11 16.9790 0.95023   9
   9   2  11 16.2150 1.05720  10
   9   2  11 16.6018 1.06887  12
   7  -3 -11 41.3655 2.33974  17
   6  -3 -11 21.0553 1.35285  17
   6  -3 -11 21.3005 1.23382  10
   5  -3 -11 44.7376 2.36847  10
   5  -3 -11 41.5910 2.27820   9
   5  -3 -11 38.0568 2.44464  17
   4  -3 -11 95.2474 5.16114   9
   4  -3 -11 94.0011 5.18587  10
   4  -3 -11 96.4543 5.32978  17
   3  -3 -11 2.53240 0.45935   9
   3  -3 -11 2.65004 0.21228   8
   3  -3 -11 3.20766 0.62488  17
   3  -3 -11 2.34545 0.45516  10
   2  -3 -11 14.7800 1.72994   7
   2  -3 -11 12.4801 1.06953   9
   2  -3 -11 14.8193 1.04502  10
   2  -3 -11 13.1867 0.84294   8
   1  -3 -11 91.1696 5.20923   9
   1  -3 -11 102.126 5.09950   8
   1  -3 -11 97.0313 5.98016   7
   1  -3 -11 85.0291 5.78190   2
   0  -3 -11 15.7375 3.09550   3
   0  -3 -11 25.2132 1.39357   8
   0  -3 -11 22.0852 2.27765   2
   0  -3 -11 22.6696 1.55937   9
  -1  -3 -11 44.6757 2.51649   8
  -2  -3 -11 5.31456 0.54003   8
   4   3  11 214.146 11.3983   8
   5   3  11 37.6537 2.11618   8
   6   3  11 0.75420 0.47379   9
   6   3  11 0.36089 0.31688   8
   7   3  11 21.4164 1.26256   8
   7   3  11 20.8862 1.42941   9
   8   3  11 2.42653 0.57840  10
   8   3  11 2.93155 0.48441   9
   8   3  11 2.59398 0.47371  12
   9   3  11 6.56205 0.68225  12
   9   3  11 5.97882 0.64305  10
   9   3  11 6.34460 0.52267   9
   6  -4 -11 53.0849 2.89486  10
   6  -4 -11 55.0808 3.03344  17
   5  -4 -11 1.81033 0.32458  10
   5  -4 -11 1.74480 0.43002  17
   4  -4 -11 37.8904 2.08456  10
   4  -4 -11 37.4266 2.23816  17
   4  -4 -11 35.2625 2.01390   9
   3  -4 -11 60.2151 3.32681  10
   3  -4 -11 57.2818 3.28448   9
   3  -4 -11 61.7604 3.49865  17
   2  -4 -11 94.3086 5.05512  17
   2  -4 -11 83.1155 4.91475  16
   2  -4 -11 88.8727 4.89381   9
   2  -4 -11 92.4109 4.91198  10
   1  -4 -11 1.99253 0.25707   8
   1  -4 -11 2.29030 0.46306  10
   1  -4 -11 0.40919 0.96543   7
   1  -4 -11 1.86372 0.46405   9
   1  -4 -11 2.09300 0.43792  16
   0  -4 -11 2.77520 0.41201  10
   0  -4 -11 2.07379 0.45345  16
   0  -4 -11 2.28653 0.96344   7
   0  -4 -11 3.04466 0.51034   9
   0  -4 -11 1.34401 1.02586   2
   0  -4 -11 2.09469 0.31091   8
  -1  -4 -11 296.799 15.6466  16
  -1  -4 -11 301.615 15.5354   8
  -1  -4 -11 270.553 16.2852   2
  -1  -4 -11 298.656 15.6543   9
  -2  -4 -11 14.9917 1.02961   8
  -3  -4 -11 0.07214 0.25624   8
  -4  -4 -11 522.211 27.6480   8
   5   4  11 146.186 7.83142   8
   6   4  11 -0.5157 0.31158   8
   7   4  11 14.0423 0.89653   8
   7   4  11 12.3343 0.98038   9
   8   4  11 -0.0141 0.41738   9
   8   4  11 0.06903 0.21285   8
   9   4  11 13.7115 0.99088  12
   9   4  11 14.2262 1.00844   9
  10   4  11 0.13902 0.16969  12
  10   4  11 0.32390 0.21404   9
   5  -5 -11 4.40284 0.55901  17
   5  -5 -11 5.08550 0.37802  10
   4  -5 -11 3.16061 0.35132  10
   4  -5 -11 2.43108 0.44129  16
   4  -5 -11 2.83468 0.59442  17
   3  -5 -11 39.5262 2.14804   9
   3  -5 -11 36.4666 2.28436  16
   3  -5 -11 44.4939 2.48339  17
   3  -5 -11 39.8453 2.25875  10
   2  -5 -11 212.492 11.2188   9
   2  -5 -11 206.749 11.2425  10
   2  -5 -11 222.259 11.4177  17
   2  -5 -11 202.162 11.2898  16
   1  -5 -11 6.14711 0.71907   9
   1  -5 -11 6.17588 0.60413  10
   1  -5 -11 5.74192 0.63402  16
   1  -5 -11 5.99363 0.71746  17
   0  -5 -11 2.15478 0.26305   8
   0  -5 -11 1.84735 0.44159  10
   0  -5 -11 1.88822 0.46044   9
   0  -5 -11 1.90659 0.48159  16
   0  -5 -11 0.39574 0.97380   7
  -1  -5 -11 15.8639 1.91911   7
  -1  -5 -11 15.5772 1.13179  16
  -1  -5 -11 16.0179 1.21575   9
  -1  -5 -11 16.5563 1.00962   8
  -1  -5 -11 15.6861 1.18482  10
  -1  -5 -11 13.5765 1.93291   2
  -2  -5 -11 33.3927 3.03497   2
  -2  -5 -11 37.5289 2.25040   9
  -2  -5 -11 36.1074 2.06237   8
  -3  -5 -11 32.4972 1.92630   8
  -3  -5 -11 33.3805 2.12020   9
  -4  -5 -11 5.90823 0.59916   8
  -5  -5 -11 106.342 5.78816   8
  -6  -5 -11 15.2405 1.06827   8
   6   5  11 16.0591 1.06433   8
   7   5  11 9.22098 0.74236   8
   8   5  11 6.53230 0.54176   8
   8   5  11 4.01172 0.59911   9
   9   5  11 137.673 7.39762   9
   9   5  11 136.839 7.26153   8
  10   5  11 10.6483 0.70811  12
  10   5  11 11.1275 0.71410   9
   5  -6 -11 5.06406 0.49686  17
   4  -6 -11 90.7643 5.12313  16
   4  -6 -11 98.6699 5.03294  10
   3  -6 -11 2.50438 0.56631  17
   3  -6 -11 2.73714 0.32013  10
   3  -6 -11 1.28781 0.44903  16
   2  -6 -11 19.7220 1.40379  16
   2  -6 -11 21.1727 1.40009  17
   2  -6 -11 20.5096 1.26698  10
   1  -6 -11 244.430 13.2280  16
   1  -6 -11 254.523 13.1754  10
   1  -6 -11 243.060 13.1230   9
   1  -6 -11 247.391 13.2998  17
   0  -6 -11 85.0785 4.72728  17
   0  -6 -11 81.5473 4.68577  16
   0  -6 -11 84.7996 4.60177   9
   0  -6 -11 84.6538 4.62872  10
  -1  -6 -11 6.31204 0.44899   8
  -1  -6 -11 7.68299 0.86600  16
  -1  -6 -11 7.19808 0.80311   9
  -1  -6 -11 5.91777 0.66440  10
  -1  -6 -11 6.64675 0.76676  17
  -2  -6 -11 2.15646 0.53332  16
  -2  -6 -11 1.16468 0.46309  10
  -2  -6 -11 1.17762 0.50905   9
  -2  -6 -11 1.53687 0.25132   8
  -3  -6 -11 26.7972 1.80659   9
  -3  -6 -11 26.5910 1.56814   8
  -4  -6 -11 62.9561 3.42651   8
  -4  -6 -11 60.6463 3.60265   9
  -5  -6 -11 2.05543 0.43000   8
  -6  -6 -11 78.5207 4.32247   8
  -7  -6 -11 290.529 15.3540   8
   7   6  11 287.133 15.3148   8
  -8  -6 -11 27.3094 1.66237   8
   8   6  11 26.6839 1.53784   8
  -9  -6 -11 15.4898 1.06811   8
   9   6  11 17.0787 1.20609   9
   9   6  11 18.4607 1.00995   8
  10   6  11 146.702 7.24682   9
  10   6  11 124.318 7.21896  12
   4  -7 -11 9.75337 0.69318  17
   3  -7 -11 13.9438 1.04473  17
   3  -7 -11 17.9799 1.05196  16
   2  -7 -11 0.32015 0.33386  16
   2  -7 -11 0.53690 0.33291  17
   2  -7 -11 0.42406 0.22107  10
   1  -7 -11 2.44539 0.37130  10
   1  -7 -11 2.24518 0.41352  17
   1  -7 -11 1.39346 0.52209  16
   0  -7 -11 7.39353 0.70896  10
   0  -7 -11 6.50757 0.77183  17
   0  -7 -11 5.68728 0.69383  16
   0  -7 -11 6.97857 0.57550   9
  -1  -7 -11 31.6836 1.91686   9
  -1  -7 -11 32.0066 1.94219  10
  -1  -7 -11 32.5478 2.04931  16
  -2  -7 -11 17.9285 1.27204   9
  -2  -7 -11 19.5009 1.39730  16
  -2  -7 -11 16.8542 1.19206  10
  -3  -7 -11 1.76163 0.53637  16
  -3  -7 -11 1.18466 0.50237   9
  -3  -7 -11 1.16140 0.24455   8
  -4  -7 -11 157.545 8.29231   8
  -4  -7 -11 153.346 8.45561   9
  -5  -7 -11 20.3363 1.41143   9
  -5  -7 -11 19.7776 1.26817   8
  -6  -7 -11 23.2364 1.44357   8
  -7  -7 -11 21.9428 1.31345   8
   7   7  11 21.0486 1.32996   8
  -8  -7 -11 34.7632 1.98185   8
   8   7  11 33.3785 1.92952   8
  -9  -7 -11 1.98642 0.38339   8
   9   7  11 2.74834 0.31812   8
   3  -8 -11 3.75357 0.42550  16
   2  -8 -11 58.0438 3.21734  16
   1  -8 -11 52.7305 2.83671  10
   1  -8 -11 52.2634 2.99968  16
   0  -8 -11 23.4728 1.38496  10
   0  -8 -11 23.4094 1.58842  16
  -1  -8 -11 180.762 9.43212  16
  -1  -8 -11 181.624 9.33423  10
  -1  -8 -11 161.994 9.20908   9
  -2  -8 -11 3.67500 0.52993  10
  -2  -8 -11 4.09957 0.53513  16
  -2  -8 -11 4.44089 0.49347   9
  -3  -8 -11 3.93762 0.55543   9
  -3  -8 -11 5.43187 0.62327  10
  -3  -8 -11 5.65966 0.62812  16
  -4  -8 -11 3.32225 0.51366  16
  -4  -8 -11 3.18941 0.56402   9
  -5  -8 -11 3.20857 0.51400  16
  -5  -8 -11 3.71155 0.33767   8
  -5  -8 -11 2.89253 0.61039   9
  -6  -8 -11 55.6117 3.08055   8
  -6  -8 -11 57.5919 3.23947   9
  -7  -8 -11 58.0254 3.42298   9
  -7  -8 -11 62.8906 3.30411   8
  -8  -8 -11 91.2070 4.59926   8
   8   8  11 79.5761 4.59713   8
  -9  -8 -11 41.8804 2.21876   8
   9   8  11 38.9027 2.19707   8
   1  -9 -11 194.648 10.3848  16
   0  -9 -11 6.05811 0.40229  10
   0  -9 -11 5.34899 0.64009  16
  -1  -9 -11 21.4719 1.27120  10
  -1  -9 -11 22.2039 1.48633  16
  -2  -9 -11 198.426 10.4419  16
  -2  -9 -11 190.236 10.3528  10
  -3  -9 -11 375.959 20.1489  10
  -3  -9 -11 384.477 20.2234  16
  -3  -9 -11 379.545 20.0740   9
  -4  -9 -11 16.0571 1.07811   9
  -4  -9 -11 16.1906 1.17047  16
  -4  -9 -11 15.3336 1.06211  10
  -5  -9 -11 4.70875 0.57933   9
  -5  -9 -11 5.12572 0.59844  16
  -6  -9 -11 2.40847 0.44469  16
  -6  -9 -11 2.61560 0.50675   9
  -7  -9 -11 0.27915 0.34216  16
  -7  -9 -11 0.56430 0.46296   9
  -8  -9 -11 4.42855 0.48207   9
  -8  -9 -11 4.24219 0.46036  16
  -1 -10 -11 76.0288 4.14642  16
  -2 -10 -11 33.3219 1.90493  16
  -2 -10 -11 30.3615 1.73275  10
  -3 -10 -11 35.4880 1.97252  16
  -3 -10 -11 30.2720 1.81525  10
  -4 -10 -11 54.0736 2.90687  10
  -4 -10 -11 51.2126 2.96212  16
  -5 -10 -11 13.3550 0.96262  10
  -5 -10 -11 15.8649 0.90335   9
  -5 -10 -11 16.2497 1.03910  16
  -6 -10 -11 0.15696 0.27416  16
  -6 -10 -11 0.87577 0.29274   9
  -7 -10 -11 169.344 9.69320  16
  -7 -10 -11 193.758 9.66420   9
  -5  -6  12 -0.4922 0.33517   9
  -4  -6  12 2.52473 0.37883  14
  -4  -6  12 2.95429 0.35811   9
  -3  -6  12 198.716 10.6269  10
  -3  -6  12 198.870 10.5781   9
  -2  -6  12 6.00590 0.54823   9
  -2  -6  12 7.73667 0.72215  10
  -2  -6  12 6.29925 0.60631  13
  -1  -6  12 3.81610 0.49450  13
  -1  -6  12 3.49175 0.46324  10
   0  -6  12 31.0127 1.94638  13
   0  -6  12 33.4202 1.84347  10
   1  -6  12 163.318 9.04859  10
   1  -6  12 178.534 9.17293  13
   2  -6  12 27.2977 1.59579  13
  -6  -5  12 16.1219 1.11228  14
  -5  -5  12 6.34887 0.69726   9
  -5  -5  12 6.42510 0.46887   8
  -5  -5  12 6.29063 0.65947  14
  -4  -5  12 2.48515 0.56277  14
  -4  -5  12 3.93563 0.31182   8
  -4  -5  12 4.00212 0.63627   9
  -3  -5  12 12.8022 1.09740  14
  -3  -5  12 14.8737 1.16367   9
  -3  -5  12 13.6425 0.96528  13
  -2  -5  12 7.13382 0.83457   9
  -2  -5  12 7.44003 0.84755  10
  -2  -5  12 7.44898 0.71400  13
  -1  -5  12 39.2968 2.19704  10
  -1  -5  12 36.5321 2.11894   9
  -1  -5  12 34.1417 2.17485  13
   0  -5  12 52.8060 2.96433   9
   0  -5  12 55.5911 3.15430  13
   0  -5  12 54.9233 3.07005  10
   1  -5  12 2.69420 0.35610  10
   1  -5  12 2.55626 0.43156  13
   2  -5  12 18.0094 1.07172  10
   2  -5  12 18.3460 1.22511  13
   3  -5  12 14.5836 0.97287  13
   3  -5  12 14.8140 0.95282  12
   6   4 -12 -0.0334 0.18730   8
  -6  -4  12 0.20891 0.24962   8
   5   4 -12 2.87293 0.33495   8
  -5  -4  12 1.59548 0.40005   8
  -4  -4  12 22.6182 1.38557   8
  -4  -4  12 22.3818 1.63173   9
  -3  -4  12 23.6421 1.51324  13
  -3  -4  12 22.9841 1.43158   8
  -3  -4  12 23.7158 1.65152   9
  -2  -4  12 6.52597 0.70567  13
  -2  -4  12 6.41895 0.77249   9
  -2  -4  12 4.69946 0.49303   8
  -1  -4  12 350.311 18.0447  13
  -1  -4  12 338.420 17.9737   9
  -1  -4  12 323.212 17.9736  10
   0  -4  12 36.8773 2.25181  13
   0  -4  12 36.0447 2.18406  10
   0  -4  12 37.9334 2.20023   9
   1  -4  12 4.95907 0.59715  10
   1  -4  12 5.19628 0.67605  13
   1  -4  12 6.79053 0.61804   9
   2  -4  12 3.44086 0.41089  10
   2  -4  12 3.24310 0.56388  13
   2  -4  12 2.91158 0.30809   9
   3  -4  12 14.3617 1.01349  12
   3  -4  12 15.4854 1.15245  13
   3  -4  12 15.3032 0.98528  10
   4  -4  12 9.52548 0.75525  12
   4  -4  12 10.7156 0.74587  13
   5  -4  12 4.34066 0.46354  12
   7   3 -12 200.245 10.7564  18
   6   3 -12 17.4237 1.01998   8
  -6  -3  12 15.5963 1.07210   8
   5   3 -12 11.5450 0.78099   8
  -5  -3  12 11.6287 0.86774   8
   4   3 -12 4.64921 0.52946   8
  -4  -3  12 6.35046 0.62454   8
  -3  -3  12 13.7586 1.00664   8
  -3  -3  12 11.5900 1.08249  13
  -2  -3  12 53.1403 2.88307   8
  -2  -3  12 52.4339 3.06680  13
  -2  -3  12 48.4749 2.99411   9
  -1  -3  12 14.2777 1.24647   9
  -1  -3  12 13.8186 0.95044   8
  -1  -3  12 14.8837 1.23717  13
   0  -3  12 10.5712 0.89741   9
   0  -3  12 10.6157 1.04984  13
   0  -3  12 10.4881 1.02169  10
   0  -3  12 9.74068 0.70450   8
   1  -3  12 35.4185 2.18827  13
   1  -3  12 35.4059 2.14361   9
   1  -3  12 35.4224 2.16606  10
   2  -3  12 46.9945 2.64721   9
   2  -3  12 47.3883 2.71237  10
   2  -3  12 45.5622 2.75057  13
   3  -3  12 64.9755 3.58021  13
   3  -3  12 62.3204 3.54804  12
   3  -3  12 61.6033 3.49841  10
   3  -3  12 62.3640 3.40834   9
   4  -3  12 151.917 8.01898  12
   4  -3  12 161.282 7.96627  10
   4  -3  12 132.699 8.01204  13
   5  -3  12 22.2253 1.37655  12
   5  -3  12 21.8726 1.27215  10
   6  -3  12 0.05321 0.25088  12
   7   2 -12 2.79752 0.41708  18
   6   2 -12 0.51225 0.23317   8
   6   2 -12 0.73129 0.36191   9
   5   2 -12 115.373 6.14125   8
  -5  -2  12 114.099 6.21364   8
   4   2 -12 1.23636 0.38509   8
  -4  -2  12 2.55794 0.51964   8
   3   2 -12 17.6869 1.21419   8
  -3  -2  12 17.6211 1.17798   8
  -2  -2  12 292.172 15.5422   8
  -1  -2  12 28.7246 1.99399   9
  -1  -2  12 32.7171 1.85114   8
   0  -2  12 13.2266 1.02287   9
   0  -2  12 11.7681 0.90144   8
   1  -2  12 59.8016 3.38601   9
   1  -2  12 57.1658 3.40123  10
   1  -2  12 59.3614 3.21471   8
   2  -2  12 7.22085 0.76586  12
   2  -2  12 8.31201 0.86103   9
   2  -2  12 8.02251 0.94379  13
   2  -2  12 7.18345 0.47562   8
   2  -2  12 7.58809 0.88168  10
   3  -2  12 59.5683 3.41373  13
   3  -2  12 60.6981 3.34741  10
   3  -2  12 55.1919 3.30441  12
   3  -2  12 59.2245 3.27878   9
   4  -2  12 36.6494 2.17001  10
   4  -2  12 39.5813 2.26924  12
   4  -2  12 38.7313 2.12794   9
   4  -2  12 35.3918 2.22624  13
   5  -2  12 169.787 9.19951  12
   5  -2  12 171.639 9.13125  10
   6  -2  12 53.6778 2.90440  10
   6  -2  12 52.4812 2.99049  12
   7  -2  12 65.0491 3.56872  12
   7   1 -12 -0.0428 0.41208  18
   7   1 -12 0.11739 0.21890   9
   6   1 -12 14.5653 1.14386  18
   6   1 -12 16.2235 1.12702   9
   6   1 -12 14.8265 0.84673   8
   5   1 -12 -0.2550 0.33039   9
   5   1 -12 -0.0251 0.26884   8
   4   1 -12 19.0680 1.14288   8
   4   1 -12 18.3951 1.30265  17
   3   1 -12 0.27445 0.26450   8
  -3  -1  12 -0.4634 0.44104   8
   2   1 -12 27.9010 1.82254   8
  -2  -1  12 33.1046 1.87343   8
  -1  -1  12 166.713 8.94537   8
   0  -1  12 14.8129 1.04597   8
   1  -1  12 -0.1807 0.73890   5
   1  -1  12 -0.0070 0.33145   9
   1  -1  12 -0.3551 0.29936   8
   2  -1  12 135.429 7.27959   9
   2  -1  12 131.922 7.13830   8
   3  -1  12 2.73951 0.49019  12
   3  -1  12 3.09360 0.48562  10
   3  -1  12 2.29361 0.50502   9
   3  -1  12 2.89843 0.28427   8
   4  -1  12 64.7967 3.77986  13
   4  -1  12 68.5905 3.69588   9
   4  -1  12 67.1231 3.71796  10
   4  -1  12 65.2415 3.71949  12
   5  -1  12 88.6346 4.82457   9
   5  -1  12 90.1718 4.91438  12
   5  -1  12 88.9704 4.89402  10
   6  -1  12 15.0125 1.05259  12
   6  -1  12 14.8002 1.04108  10
   7  -1  12 -0.2516 0.37146  12
   7  -1  12 0.48280 0.20654  10
   7   0 -12 139.372 7.16986   9
   7   0 -12 130.264 7.22746  10
   6   0 -12 20.5523 1.50530  18
   6   0 -12 26.2782 1.47060  17
   5   0 -12 0.33082 0.19134   8
   5   0 -12 0.03907 0.41428  17
   5   0 -12 -0.2492 0.46754   9
   4   0 -12 124.442 6.63940  17
   4   0 -12 120.166 6.59559   9
   4   0 -12 118.875 6.47872   8
   3   0 -12 8.83706 0.75589   8
   2   0 -12 28.8624 1.74025   8
   1   0 -12 4.52053 0.54256   8
  -1   0  12 5.02732 0.57380   8
   0   0  12 37.3549 2.17951   8
   1   0  12 334.202 17.7250   8
   2   0  12 106.911 5.75012   9
   2   0  12 107.511 5.59510   8
   2   0  12 93.6609 6.70042   5
   3   0  12 36.0558 2.22362  12
   3   0  12 39.7124 2.29708   9
   3   0  12 37.6957 2.11287   8
   4   0  12 299.595 16.1036  10
   4   0  12 302.779 16.0816  12
   4   0  12 298.570 16.0772   9
   4   0  12 305.609 15.9470   8
   5   0  12 7.43837 0.88465  10
   5   0  12 9.09342 0.83759   9
   5   0  12 8.44511 0.74826  12
   6   0  12 132.033 7.18534   9
   6   0  12 133.916 7.26885  12
   6   0  12 136.554 7.25735  10
   7   0  12 40.0989 2.34787  12
   7   0  12 41.2467 2.32801  10
   8   0  12 6.43409 0.54335  10
   7  -1 -12 -0.0199 0.19593  10
   6  -1 -12 221.167 11.4614   9
   6  -1 -12 210.393 11.4929  10
   5  -1 -12 1.47050 0.39630  17
   5  -1 -12 0.44149 0.30504  10
   5  -1 -12 0.86305 0.42799   9
   4  -1 -12 22.6735 1.45141  17
   4  -1 -12 21.2401 1.27375   8
   4  -1 -12 21.9160 1.48739   9
   3  -1 -12 150.076 8.18551   9
   3  -1 -12 151.713 8.05331   8
   2  -1 -12 465.448 24.6227   8
   1  -1 -12 2.02305 0.32726   8
   0  -1 -12 0.89784 0.38235   8
   1   1  12 138.519 7.44623   8
   2   1  12 25.2612 1.52491   8
   3   1  12 9.08568 0.97154   9
   3   1  12 9.29618 0.73265   8
   3   1  12 8.99634 0.79430  12
   4   1  12 26.5017 1.47878   8
   4   1  12 24.7491 1.54430  12
   4   1  12 23.8667 1.64845   9
   5   1  12 37.2223 2.12907   8
   5   1  12 38.2311 2.29194  10
   5   1  12 39.6018 2.30804   9
   5   1  12 39.8614 2.26368  12
   6   1  12 11.2864 0.96052   9
   6   1  12 12.6435 0.91473  12
   6   1  12 11.5614 1.02013  10
   7   1  12 87.5902 4.97864  10
   7   1  12 94.5255 5.03077  12
   7   1  12 91.7799 4.93532   9
   8   1  12 149.777 7.48878  12
   8   1  12 127.999 7.42077  10
   9   1  12 169.597 9.04275  12
   6  -2 -12 0.25327 0.33330  10
   6  -2 -12 0.41089 0.29217  17
   5  -2 -12 2.86255 0.46316  17
   5  -2 -12 2.80455 0.38094  10
   5  -2 -12 2.75587 0.39428   9
   4  -2 -12 121.924 6.67226  17
   4  -2 -12 121.562 6.58737  10
   4  -2 -12 121.754 6.58925   9
   3  -2 -12 48.6974 2.65825   8
   3  -2 -12 46.6073 2.77493   9
   3  -2 -12 50.9976 2.91393  17
   2  -2 -12 6.68936 0.75712   9
   2  -2 -12 8.42737 0.65354   8
   1  -2 -12 85.4968 4.83389   9
   1  -2 -12 90.5283 4.69191   8
   1  -2 -12 80.7190 5.55848   7
   0  -2 -12 8.12742 0.73946   8
  -1  -2 -12 40.3469 2.30079   8
   2   2  12 125.727 6.77030   8
   3   2  12 46.2047 2.59580   8
   4   2  12 8.85141 0.69717   8
   4   2  12 6.75301 0.81051   9
   5   2  12 18.2467 1.32098   9
   5   2  12 17.6617 1.10845   8
   6   2  12 104.081 5.68529   9
   6   2  12 103.129 5.53373   8
   6   2  12 104.113 5.68337  12
   7   2  12 6.47306 0.72889  10
   7   2  12 7.19697 0.80876  12
   7   2  12 9.55265 0.80498   9
   8   2  12 153.026 8.19746   9
   8   2  12 151.589 8.25540  12
   8   2  12 156.564 8.26019  10
   9   2  12 92.8698 5.17160  10
   9   2  12 99.6033 5.19501  12
   6  -3 -12 12.9570 0.78535  10
   5  -3 -12 33.1671 1.86205   9
   5  -3 -12 36.8908 1.97091  10
   5  -3 -12 34.4508 2.06667  17
   4  -3 -12 168.330 9.05746  17
   4  -3 -12 169.235 8.94862  10
   4  -3 -12 163.341 8.90765   9
   3  -3 -12 39.3476 2.32949   9
   3  -3 -12 40.8785 2.46443  17
   3  -3 -12 39.8018 2.34013  10
   2  -3 -12 1.03500 0.23759   8
   2  -3 -12 1.85791 0.46488  10
   2  -3 -12 1.76259 0.47758   9
   1  -3 -12 5.35605 0.66972   9
   1  -3 -12 4.83362 0.53897   8
   0  -3 -12 11.9154 1.14658   9
   0  -3 -12 12.9778 0.90112   8
   0  -3 -12 13.3207 1.68459   7
  -1  -3 -12 2.29625 0.40756   8
  -2  -3 -12 28.1482 1.72617   8
  -3  -3 -12 244.639 12.7567   8
   3   3  12 231.551 12.6669   8
   4   3  12 489.248 25.8780   8
   5   3  12 98.9762 5.34221   8
   6   3  12 2.61039 0.35927   8
   6   3  12 1.66882 0.49622   9
   7   3  12 182.010 9.35738  12
   7   3  12 167.891 9.20636   8
   7   3  12 171.855 9.34397   9
   8   3  12 1.20792 0.40749   9
   8   3  12 1.78096 0.42794  12
   9   3  12 42.9890 2.43192  12
   9   3  12 43.5620 2.35538   9
   9   3  12 42.3934 2.43804  10
   5  -4 -12 34.9484 1.92611  10
   5  -4 -12 33.9991 2.03281  17
   4  -4 -12 23.1852 1.61831  17
   4  -4 -12 25.2827 1.47040  10
   3  -4 -12 14.2472 1.00173  10
   3  -4 -12 18.4382 1.29838  17
   3  -4 -12 14.6003 1.00854   9
   2  -4 -12 2.14889 0.43644   9
   2  -4 -12 2.70464 0.61789  17
   2  -4 -12 1.73510 0.46416  10
   1  -4 -12 83.7997 4.40122   8
   1  -4 -12 82.2123 4.56313  16
   1  -4 -12 78.8348 4.54989  10
   1  -4 -12 83.6889 4.55659   9
   0  -4 -12 6.44761 0.75105  16
   0  -4 -12 6.49499 0.63472   8
   0  -4 -12 6.39252 0.71488   9
  -1  -4 -12 10.8854 0.97644  16
  -1  -4 -12 12.0559 0.83233   8
  -1  -4 -12 10.5649 1.09741   9
  -2  -4 -12 3.12566 0.45288   8
  -3  -4 -12 197.577 10.5572   8
  -4  -4 -12 659.469 34.8009   8
   4   4  12 656.512 34.7644   8
   5   4  12 126.336 6.78530   8
   6   4  12 38.5353 2.18257   8
   7   4  12 6.16056 0.53326   8
   7   4  12 4.45051 0.61425   9
   8   4  12 0.56347 0.43060   9
   8   4  12 1.32531 0.18799   8
   8   4  12 0.89809 0.38020  12
   9   4  12 24.6492 1.46447   9
   9   4  12 24.4318 1.48510  12
   5  -5 -12 10.2964 0.74830  17
   4  -5 -12 59.9799 3.26740  10
   4  -5 -12 60.5921 3.39995  17
   3  -5 -12 0.33512 0.32413  10
   3  -5 -12 0.44474 0.36145  17
   2  -5 -12 70.9707 3.89495   9
   2  -5 -12 75.2551 4.10661  17
   2  -5 -12 66.5180 3.94427  16
   2  -5 -12 74.1940 3.95122  10
   1  -5 -12 133.895 7.19068   9
   1  -5 -12 136.251 7.21809  10
   1  -5 -12 123.854 7.20919  16
   1  -5 -12 140.001 7.33786  17
   0  -5 -12 25.8204 1.67475   9
   0  -5 -12 25.1412 1.67183  10
   0  -5 -12 26.1230 1.43033   8
   0  -5 -12 25.9660 1.67444  16
  -1  -5 -12 1.14778 0.49736   9
  -1  -5 -12 0.17118 0.23574   8
  -1  -5 -12 0.06069 0.35067  10
  -1  -5 -12 0.21878 0.32363  16
  -2  -5 -12 519.647 27.7732  16
  -2  -5 -12 524.505 27.7798   9
  -2  -5 -12 524.803 27.6413   8
  -3  -5 -12 3.02054 0.44863   8
  -3  -5 -12 3.08793 0.65189   9
  -4  -5 -12 86.8131 4.75217   8
  -5  -5 -12 6.14256 0.65498   8
   5   5  12 6.85061 0.70797   8
  -6  -5 -12 40.4392 2.36079   8
   6   5  12 40.8551 2.30670   8
   7   5  12 0.69584 0.32506   8
   8   5  12 5.72595 0.65716   9
   8   5  12 7.13234 0.53074   8
   9   5  12 8.41609 0.65722   9
   9   5  12 8.16074 0.62068  12
   4  -6 -12 29.9914 1.75426  17
   3  -6 -12 2.39123 0.49606  17
   3  -6 -12 2.23187 0.29491  10
   3  -6 -12 1.43766 0.29270  16
   2  -6 -12 12.5862 1.10081  17
   2  -6 -12 14.3058 0.91849  10
   2  -6 -12 12.4914 1.02572  16
   1  -6 -12 175.481 9.38791  10
   1  -6 -12 181.794 9.34144   9
   1  -6 -12 181.550 9.52203  17
   1  -6 -12 163.084 9.42290  16
   0  -6 -12 50.9947 3.04438  17
   0  -6 -12 53.8634 2.92239   9
   0  -6 -12 51.5711 3.00995  16
   0  -6 -12 50.9069 2.92069  10
  -1  -6 -12 0.19441 0.41972  10
  -1  -6 -12 -0.0435 0.41901   9
  -1  -6 -12 -0.4105 0.44515  16
  -1  -6 -12 0.64624 0.40984  17
  -2  -6 -12 15.4342 1.22893   9
  -2  -6 -12 14.8788 0.91676   8
  -2  -6 -12 15.5779 1.23006  16
  -2  -6 -12 14.3647 1.16853  10
  -3  -6 -12 22.2580 1.31341   8
  -3  -6 -12 22.2068 1.47049  16
  -3  -6 -12 20.0454 1.55766   9
  -4  -6 -12 27.9265 1.64714   8
  -4  -6 -12 26.5326 1.76166   9
  -5  -6 -12 5.84839 0.58998   8
  -6  -6 -12 336.234 17.8417   8
  -7  -6 -12 107.148 5.62304   8
   7   6  12 100.436 5.57447   8
  -8  -6 -12 38.6283 2.24190   8
   8   6  12 41.0937 2.19201   8
  -9  -6 -12 0.95863 0.24429   8
   9   6  12 0.87453 0.30615   9
   9   6  12 1.08658 0.25375  12
   9   6  12 1.27637 0.19279   8
   3  -7 -12 207.206 10.9001  16
   3  -7 -12 202.709 10.9319  17
   2  -7 -12 173.140 8.59871  10
   2  -7 -12 162.866 8.67050  16
   2  -7 -12 149.468 8.69925  17
   1  -7 -12 95.0988 5.00501  16
   1  -7 -12 95.7657 4.92930  10
   1  -7 -12 82.8965 5.01695  17
   0  -7 -12 0.77185 0.40155  17
   0  -7 -12 0.17276 0.21864   9
   0  -7 -12 -0.3188 0.31366  16
   0  -7 -12 -0.5310 0.34010  10
  -1  -7 -12 163.799 8.94519  16
  -1  -7 -12 167.062 8.89774  10
  -1  -7 -12 165.808 8.85501   9
  -2  -7 -12 14.9636 1.06208  10
  -2  -7 -12 15.8651 1.25983  16
  -2  -7 -12 14.7425 1.14492   9
  -3  -7 -12 10.2864 0.92569  10
  -3  -7 -12 9.16504 0.60803   8
  -3  -7 -12 9.62407 0.87535  16
  -3  -7 -12 9.03765 0.97815   9
  -4  -7 -12 51.8762 3.01234   9
  -4  -7 -12 48.7815 2.98594  16
  -4  -7 -12 52.8941 2.80623   8
  -5  -7 -12 1.30371 0.33228   8
  -5  -7 -12 1.59693 0.44180   9
  -6  -7 -12 117.596 6.30792   8
  -7  -7 -12 105.859 5.69998   8
  -8  -7 -12 9.91013 0.71382   8
   8   7  12 11.2594 0.75001   8
  -9  -7 -12 27.1399 1.59599   8
   9   7  12 28.9022 1.54457   8
   2  -8 -12 73.2711 3.97611  16
   1  -8 -12 0.27516 0.16052  10
   1  -8 -12 0.30001 0.30220  16
   0  -8 -12 0.75160 0.28667  10
   0  -8 -12 1.26716 0.36451  16
  -1  -8 -12 8.12710 0.77435  16
  -1  -8 -12 8.31501 0.72619  10
  -2  -8 -12 43.6887 2.47150  16
  -2  -8 -12 40.1671 2.36495  10
  -2  -8 -12 39.4087 2.27944   9
  -3  -8 -12 0.49901 0.48022  16
  -3  -8 -12 0.72545 0.39514   9
  -3  -8 -12 1.12855 0.46345  10
  -4  -8 -12 8.32407 0.88242   9
  -4  -8 -12 8.22370 0.83357  10
  -4  -8 -12 6.99199 0.78214  16
  -5  -8 -12 28.7293 1.84848  16
  -5  -8 -12 26.0558 1.50913   8
  -5  -8 -12 29.9452 1.72913   9
  -6  -8 -12 14.4881 1.16745   9
  -6  -8 -12 14.1145 0.88261   8
  -7  -8 -12 23.6101 1.63890   9
  -7  -8 -12 26.2688 1.43278   8
  -8  -8 -12 2.99866 0.31810   8
   8   8  12 3.53248 0.36326   8
  -1  -9 -12 46.0923 2.65779  16
  -1  -9 -12 47.8178 2.56207  10
  -2  -9 -12 52.1501 2.87813  10
  -2  -9 -12 52.8482 2.97453  16
  -3  -9 -12 74.2162 4.18948  16
  -3  -9 -12 72.6009 4.01226   9
  -3  -9 -12 80.1658 4.12504  10
  -4  -9 -12 5.31131 0.55226   9
  -4  -9 -12 4.94883 0.56002  10
  -4  -9 -12 5.02639 0.62756  16
  -5  -9 -12 26.3599 1.55792   9
  -5  -9 -12 26.4661 1.67279  16
  -5  -9 -12 23.4569 1.56121  10
  -6  -9 -12 13.2291 0.95593  16
  -6  -9 -12 12.7435 0.90151   9
  -7  -9 -12 172.269 9.15664   9
  -7  -9 -12 170.595 9.18521  16
  -2 -10 -12 24.3032 1.37261  10
  -2 -10 -12 26.4803 1.48935  16
  -3 -10 -12 26.7824 1.60515  16
  -3 -10 -12 27.7013 1.53976  10
  -4 -10 -12 109.756 6.47998  10
  -4 -10 -12 133.774 6.56263  16
  -5 -10 -12 4.64763 0.51317  16
  -6 -10 -12 0.06954 0.16940   9
  -6 -10 -12 0.37687 0.22188  16
  -1  -6  13 4.96899 0.47122  13
  -4  -5  13 19.4082 1.22296   9
  -3  -5  13 5.84495 0.71330   9
  -2  -5  13 1.50979 0.37786   9
  -2  -5  13 0.87754 0.29851  10
  -2  -5  13 1.30547 0.31215  13
  -1  -5  13 21.6316 1.42303  13
  -1  -5  13 24.1225 1.33466   9
  -1  -5  13 23.0749 1.39323  10
   0  -5  13 -0.0129 0.27797  13
   0  -5  13 0.47039 0.25320  10
   1  -5  13 8.50401 0.69395  13
   1  -5  13 7.97900 0.58543  10
   2  -5  13 370.635 19.5638  10
  -5  -4  13 5.91435 0.48343   8
  -4  -4  13 1.08989 0.25155   8
  -4  -4  13 0.96257 0.40497   9
  -3  -4  13 10.3221 0.84185  13
  -3  -4  13 9.46980 0.63959   8
  -3  -4  13 11.3060 1.03697   9
  -2  -4  13 23.6872 1.47559   9
  -2  -4  13 22.4275 1.47354  13
  -1  -4  13 66.6192 3.68880  13
  -1  -4  13 66.1137 3.62457   9
  -1  -4  13 63.0974 3.64153  10
   0  -4  13 5.65951 0.60103  10
   0  -4  13 5.35041 0.62264   9
   0  -4  13 4.03104 0.57849  13
   1  -4  13 3.54712 0.45929  13
   1  -4  13 3.22044 0.37050   9
   1  -4  13 3.04941 0.41068  10
   2  -4  13 21.2717 1.35952  13
   2  -4  13 21.0351 1.26293  10
   3  -4  13 40.1321 1.90797  10
   3  -4  13 27.7887 1.96271  13
   6   3 -13 30.8924 1.64576   8
  -6  -3  13 29.4775 1.70750   8
   5   3 -13 0.76925 0.29504   8
  -5  -3  13 1.30241 0.28455   8
  -4  -3  13 20.5800 1.32804   8
  -3  -3  13 664.368 33.5109   8
  -3  -3  13 607.569 33.6354   9
  -3  -3  13 631.108 33.6118  13
  -2  -3  13 49.7556 2.92257  13
  -2  -3  13 50.7618 2.93735   9
  -2  -3  13 50.7218 2.78827   8
  -1  -3  13 69.5607 3.87810   8
  -1  -3  13 75.8821 4.09394   9
  -1  -3  13 71.4654 4.09644  13
   0  -3  13 77.8928 4.25515   9
   0  -3  13 74.3854 4.27909  13
   1  -3  13 137.235 7.72851  10
   1  -3  13 148.306 7.71734   9
   1  -3  13 143.812 7.81267  13
   2  -3  13 76.7411 4.28044  13
   2  -3  13 76.3796 4.13199   9
   2  -3  13 74.9561 4.17798  10
   3  -3  13 5.87257 0.66493  12
   3  -3  13 6.15260 0.66759  10
   3  -3  13 7.39067 0.76999  13
   4  -3  13 5.06045 0.52380  12
   4  -3  13 6.30630 0.55080  10
   4  -3  13 5.57114 0.63325  13
   5  -3  13 24.2985 1.33131  10
   5  -3  13 23.8923 1.41435  12
   6   2 -13 51.1801 3.36148  18
   6   2 -13 64.3137 3.19422   8
   6   2 -13 60.8916 3.32157   9
  -6  -2  13 64.3561 3.30051   8
   5   2 -13 0.17760 0.26611   8
  -5  -2  13 0.60035 0.42447   8
   4   2 -13 1.06577 0.27157   8
  -4  -2  13 0.88435 0.45614   8
   3   2 -13 36.9069 2.20852   8
  -3  -2  13 37.4245 2.27534  13
  -3  -2  13 40.5416 2.25291   8
  -2  -2  13 391.837 20.7639   8
  -1  -2  13 2.45964 0.40516   8
  -1  -2  13 3.05972 0.65610   9
   0  -2  13 0.65764 0.51730   9
   0  -2  13 0.34818 0.27096   8
   1  -2  13 5.28248 0.67822  13
   1  -2  13 4.80292 0.45628   8
   1  -2  13 5.04858 0.65402   9
   2  -2  13 1.14959 0.47539  10
   2  -2  13 1.21794 0.44960   9
   2  -2  13 1.17898 0.49437  13
   3  -2  13 65.0198 3.71724  12
   3  -2  13 67.3363 3.75644  10
   3  -2  13 68.4514 3.79256  13
   3  -2  13 67.5211 3.68431   9
   4  -2  13 9.09706 0.75831  12
   4  -2  13 8.95987 0.74768  13
   4  -2  13 10.1315 0.67559   9
   4  -2  13 9.27832 0.73820  10
   5  -2  13 389.040 20.5020  12
   5  -2  13 384.001 20.4499  10
   6  -2  13 30.6827 1.69924  10
   6  -2  13 31.2319 1.78375  12
   6   1 -13 5.37396 0.52935   9
   5   1 -13 1.45282 0.25036   8
   5   1 -13 2.58708 0.54192   9
   4   1 -13 428.321 22.8740  17
   4   1 -13 456.456 22.7773   8
  -4  -1  13 407.374 22.8523   8
   3   1 -13 -0.0175 0.26150   8
  -3  -1  13 0.21009 0.31820   8
   2   1 -13 22.2834 1.38254   8
  -2  -1  13 20.0184 1.42917   8
  -1  -1  13 5.44426 0.60037   8
   0  -1  13 77.1519 3.91066   8
   0  -1  13 64.6799 4.00325   9
   1  -1  13 66.7354 3.84447   9
   1  -1  13 67.8086 3.67358   8
   2  -1  13 18.2769 1.31721   9
   2  -1  13 17.2403 1.05299   8
   3  -1  13 27.4956 1.73195  10
   3  -1  13 28.8552 1.78027  13
   3  -1  13 28.2921 1.75491   9
   3  -1  13 27.1050 1.72066  12
   4  -1  13 43.7827 2.46355   9
   4  -1  13 44.0833 2.58096  13
   4  -1  13 43.1915 2.54593  12
   4  -1  13 44.0367 2.51791  10
   5  -1  13 7.90774 0.82024  12
   5  -1  13 7.49186 0.62385   9
   5  -1  13 7.97955 0.66548  10
   6  -1  13 3.38075 0.42707  12
   6  -1  13 3.56446 0.44859  10
   7  -1  13 202.793 10.1184  12
   7  -1  13 176.928 10.0369  10
   6   0 -13 2.80686 0.31676   9
   5   0 -13 29.2655 1.61468   9
   5   0 -13 25.1191 1.56640  17
   5   0 -13 23.3290 1.35184   8
   4   0 -13 3.32117 0.46517  17
   4   0 -13 2.33838 0.31854   8
   4   0 -13 2.12348 0.44396   9
   3   0 -13 3.26390 0.42494   8
   2   0 -13 5.06787 0.53382   8
  -2   0  13 4.36607 0.59015   8
   1   0 -13 6.46990 0.61955   8
  -1   0  13 5.24384 0.62295   8
   0   0  13 76.9208 4.21075   8
   1   0  13 51.6117 2.89494   8
   2   0  13 11.9858 0.88932   8
   2   0  13 12.9260 1.00736   9
   3   0  13 3.58900 0.48628   9
   3   0  13 2.50792 0.32969   8
   3   0  13 2.06417 0.43468  12
   4   0  13 170.748 9.25643  12
   4   0  13 176.317 9.29114  10
   4   0  13 171.188 9.31051  13
   4   0  13 170.405 9.09209   8
   4   0  13 171.705 9.24077   9
   5   0  13 22.8358 1.47613  12
   5   0  13 22.0761 1.47485  10
   5   0  13 22.2912 1.36266   9
   6   0  13 38.3611 2.22697  10
   6   0  13 39.4615 2.17776   9
   6   0  13 39.1919 2.25617  12
   7   0  13 3.41893 0.44065  10
   6  -1 -13 21.0618 1.29337  10
   6  -1 -13 23.0667 1.25740   9
   4  -1 -13 1.50757 0.48151  17
   4  -1 -13 1.45695 0.18473   8
   4  -1 -13 1.89566 0.39884   9
   3  -1 -13 33.8251 2.13850  17
   3  -1 -13 34.7935 2.18314   9
   3  -1 -13 37.0232 1.98679   8
   2  -1 -13 94.4323 5.10520   8
   1  -1 -13 2.89900 0.45310   8
   0  -1 -13 21.5063 1.41401   8
   0   1  13 22.1693 1.35936   8
   1   1  13 150.485 8.07560   8
   2   1  13 164.832 8.81064   8
   3   1  13 5.25216 0.58884   9
   3   1  13 3.79892 0.50369  12
   3   1  13 4.14621 0.45242   8
   4   1  13 -0.3971 0.36093  12
   4   1  13 0.05513 0.45784   9
   4   1  13 0.44588 0.31598   8
   5   1  13 1.39261 0.43586  12
   5   1  13 0.65760 0.18776   8
   5   1  13 1.35790 0.45808   9
   6   1  13 79.0445 4.53143  10
   6   1  13 85.4401 4.56746  12
   6   1  13 83.2332 4.51163   9
   7   1  13 26.2546 1.56699  10
   7   1  13 24.1036 1.58124  12
   7   1  13 28.6505 1.51033   9
   8   1  13 159.037 8.16538  12
   8   1  13 146.133 8.11991  10
   6  -2 -13 26.4566 1.50204  10
   5  -2 -13 94.6265 5.32577  10
   5  -2 -13 102.761 5.28868   9
   4  -2 -13 72.8751 4.33661  10
   4  -2 -13 78.9373 4.43802  17
   4  -2 -13 86.0936 4.35598   9
   3  -2 -13 2.06788 0.25234   8
   3  -2 -13 1.75573 0.52094   9
   3  -2 -13 2.37478 0.45618  17
   2  -2 -13 12.6743 0.90579   8
   2  -2 -13 12.6601 1.11554   9
   1  -2 -13 235.761 12.3857   8
   1  -2 -13 230.008 12.5117   9
   0  -2 -13 0.10664 0.35750   8
  -1  -2 -13 0.25744 0.40090   8
   2   2  13 28.7257 1.73565   8
   3   2  13 180.787 10.1853  12
   3   2  13 200.170 10.1604   8
   4   2  13 1.87962 0.34524  12
   4   2  13 1.96355 0.29845   8
   4   2  13 2.56546 0.56179   9
   5   2  13 15.6875 1.05698  12
   5   2  13 16.0216 0.97495   8
   5   2  13 14.7541 1.19447   9
   6   2  13 7.42019 0.68880  12
   6   2  13 8.82548 0.71476   9
   6   2  13 7.59154 0.50703   8
   7   2  13 0.84585 0.37768   9
   7   2  13 0.41610 0.29182  12
   7   2  13 -0.2729 0.43195  10
   8   2  13 8.45352 0.76202  10
   8   2  13 8.46977 0.68674  12
   8   2  13 9.27526 0.62660   9
   5  -3 -13 64.1306 3.53567  17
   5  -3 -13 63.5775 3.46511  10
   4  -3 -13 147.005 8.00098  10
   4  -3 -13 151.560 8.07604  17
   4  -3 -13 149.108 7.95083   9
   3  -3 -13 3.04906 0.46998   9
   3  -3 -13 2.69808 0.48469  10
   3  -3 -13 2.17569 0.57287  17
   2  -3 -13 3.81822 0.65298  17
   2  -3 -13 3.40965 0.37447   8
   2  -3 -13 4.28134 0.49206   9
   1  -3 -13 18.4427 1.37284   9
   1  -3 -13 18.5607 1.13754   8
   0  -3 -13 64.1954 3.76283   9
   0  -3 -13 66.3240 3.58401   8
  -1  -3 -13 121.335 6.54114   8
  -2  -3 -13 157.334 8.45092   8
  -3  -3 -13 79.9803 4.49300   8
   3   3  13 82.8606 4.45555   8
   4   3  13 262.012 13.9161   8
   5   3  13 5.86562 0.60038   8
   6   3  13 1.67962 0.28258   8
   6   3  13 1.63495 0.49499   9
   6   3  13 1.20460 0.43015  12
   7   3  13 104.268 5.72618   8
   7   3  13 114.198 5.88524  12
   7   3  13 107.138 5.87108   9
   8   3  13 0.89940 0.34612   9
   8   3  13 0.45221 0.27041  12
   5  -4 -13 1.49874 0.30200  17
   5  -4 -13 1.43760 0.23236  10
   4  -4 -13 10.3666 0.72094  10
   4  -4 -13 11.4513 0.84782  17
   3  -4 -13 0.37520 0.28664   9
   3  -4 -13 0.81873 0.39189  10
   3  -4 -13 1.16599 0.51675  17
   2  -4 -13 98.8860 5.35104  10
   2  -4 -13 100.083 5.46321  17
   2  -4 -13 95.2858 5.32222   9
   1  -4 -13 8.71608 0.56911   8
   1  -4 -13 8.37475 0.83039  17
   1  -4 -13 8.36339 0.88301  10
   1  -4 -13 8.79152 0.91040   9
   0  -4 -13 15.3132 0.96933   8
   0  -4 -13 15.1174 1.25707   9
  -1  -4 -13 47.7627 2.83065   9
  -1  -4 -13 48.9198 2.62912   8
  -1  -4 -13 44.5094 2.70123  16
  -2  -4 -13 14.3972 1.06241   8
  -2  -4 -13 16.2064 1.20386  16
  -3  -4 -13 20.2705 1.27933   8
  -4  -4 -13 80.2652 4.35836   8
   4   4  13 77.7838 4.31727   8
  -5  -4 -13 14.5324 1.07454   8
   5   4  13 14.3465 1.00158   8
   6   4  13 23.3071 1.38844   8
   7   4  13 3.61406 0.42773  12
   7   4  13 2.85434 0.31292   8
   7   4  13 3.38961 0.45883   9
   8   4  13 14.4637 1.00184  12
   8   4  13 17.0693 1.09147   9
   9   4  13 123.136 6.73482  12
   9   4  13 128.720 6.70636   9
   4  -5 -13 65.4615 3.51806  10
   3  -5 -13 7.02733 0.56466  10
   3  -5 -13 8.04476 0.70958  17
   2  -5 -13 62.4789 3.37872   9
   2  -5 -13 60.4688 3.43254  10
   2  -5 -13 63.3818 3.56743  17
   1  -5 -13 9.72673 0.79112  10
   1  -5 -13 9.30805 0.87156  16
   1  -5 -13 10.8137 0.84218   9
   1  -5 -13 10.3880 0.88521  17
   0  -5 -13 9.99674 1.02227  17
   0  -5 -13 11.2489 1.00448   9
   0  -5 -13 12.9932 0.98766  10
   0  -5 -13 10.1454 0.94615  16
  -1  -5 -13 68.2471 3.65699   8
  -1  -5 -13 64.1688 3.81688  16
  -1  -5 -13 70.2048 3.80930   9
  -2  -5 -13 655.100 35.2412   8
  -2  -5 -13 676.594 35.3778  16
  -2  -5 -13 671.262 35.3866   9
  -3  -5 -13 196.516 10.6186   9
  -3  -5 -13 199.252 10.4725   8
  -3  -5 -13 193.275 10.5855  16
  -4  -5 -13 15.8143 1.12753   8
  -5  -5 -13 3.76499 0.51286   8
   5   5  13 1.96452 0.41309   8
  -6  -5 -13 187.756 10.3335   8
   6   5  13 199.202 10.3009   8
  -7  -5 -13 18.1051 1.18301   8
   7   5  13 20.0787 1.15530   8
   8   5  13 22.2811 1.23464   8
   8   5  13 22.1901 1.37875  12
   9   5  13 1.09056 0.21178  12
   3  -6 -13 0.83660 0.29226  17
   3  -6 -13 1.95937 0.23344  10
   2  -6 -13 46.6006 2.44155  10
   2  -6 -13 44.5932 2.47760  16
   2  -6 -13 41.2396 2.53400  17
   1  -6 -13 38.6524 2.07464   9
   1  -6 -13 35.7383 2.22727  17
   1  -6 -13 36.3999 2.16668  16
   1  -6 -13 39.2031 2.16888  10
   0  -6 -13 11.9689 0.99197  16
   0  -6 -13 11.0210 0.84621  10
   0  -6 -13 11.4841 0.87944   9
   0  -6 -13 11.5329 0.91019  17
  -1  -6 -13 16.2940 1.28697  17
  -1  -6 -13 20.2288 1.32589  10
  -1  -6 -13 18.6154 1.30903   9
  -1  -6 -13 19.0838 1.33915  16
  -2  -6 -13 12.1934 0.98156  17
  -2  -6 -13 14.8583 1.18153  16
  -2  -6 -13 13.8265 1.18300   9
  -2  -6 -13 14.3589 0.82215   8
  -3  -6 -13 8.31627 0.94837  16
  -3  -6 -13 4.93075 0.55352   8
  -3  -6 -13 8.56015 0.96395   9
  -4  -6 -13 87.9852 4.69160   8
  -4  -6 -13 85.1008 4.81840   9
  -5  -6 -13 20.1999 1.23640   8
  -6  -6 -13 -0.0154 0.27182   8
   6   6  13 0.36723 0.35165   8
  -7  -6 -13 100.054 5.63282   8
   7   6  13 109.682 5.62461   8
  -8  -6 -13 38.6148 2.44355   8
   8   6  13 50.3409 2.42585   8
   2  -7 -13 31.4061 1.88713  16
   2  -7 -13 34.2861 1.79740  10
   1  -7 -13 20.1770 1.35797  16
   1  -7 -13 21.9576 1.26211  10
   0  -7 -13 8.07263 0.70638  16
   0  -7 -13 7.26978 0.69960  10
  -1  -7 -13 175.544 9.43705   9
  -1  -7 -13 174.006 9.52080  16
  -1  -7 -13 181.999 9.49180  10
  -2  -7 -13 4.01326 0.52296   9
  -2  -7 -13 3.17166 0.48014  16
  -2  -7 -13 3.89109 0.46680  10
  -3  -7 -13 3.63786 0.58306   9
  -3  -7 -13 3.63823 0.57384  10
  -3  -7 -13 5.19839 0.57820  16
  -4  -7 -13 7.83560 0.58350   8
  -4  -7 -13 8.32629 0.96255  16
  -4  -7 -13 8.11828 0.95492   9
  -5  -7 -13 16.3737 0.98791   8
  -5  -7 -13 15.1356 1.15075  16
  -5  -7 -13 15.5295 1.27544   9
  -6  -7 -13 3.39361 0.40495   8
  -6  -7 -13 4.05995 0.51667   9
  -7  -7 -13 15.4944 0.95798   8
   7   7  13 13.7938 0.94947   8
  -8  -7 -13 205.301 10.0832   8
   8   7  13 175.169 10.0622   8
   0  -8 -13 5.25842 0.47457  10
   0  -8 -13 5.21154 0.54839  16
  -1  -8 -13 0.59004 0.32488  16
  -1  -8 -13 0.45787 0.24465  10
  -2  -8 -13 27.8226 1.62371  10
  -2  -8 -13 27.6706 1.75456  16
  -2  -8 -13 27.5956 1.56250   9
  -3  -8 -13 33.2316 1.82673   9
  -3  -8 -13 30.2965 1.92592  16
  -3  -8 -13 31.9088 1.86322  10
  -4  -8 -13 7.91418 0.91294  16
  -4  -8 -13 7.43621 0.66465  10
  -4  -8 -13 8.09763 0.67864   9
  -5  -8 -13 63.6055 3.66149   9
  -5  -8 -13 67.6986 3.71784  16
  -6  -8 -13 6.68178 0.64924  16
  -6  -8 -13 3.96865 0.58126   9
  -7  -8 -13 4.12570 0.46266  16
  -7  -8 -13 4.48795 0.46503   9
  -7  -8 -13 4.11627 0.31965   8
   7   8  13 3.34884 0.38756   8
  -1  -9 -13 0.60704 0.24603  16
  -1  -9 -13 -0.2284 0.16023  10
  -2  -9 -13 0.89775 0.28875  10
  -2  -9 -13 0.51265 0.30587  16
  -3  -9 -13 12.4716 0.89336  10
  -3  -9 -13 13.5797 0.93503  16
  -4  -9 -13 0.09623 0.30676  16
  -4  -9 -13 0.62473 0.24713  10
  -4  -9 -13 0.29205 0.23583   9
  -5  -9 -13 2.03452 0.37906  16
  -5  -9 -13 2.23879 0.31826  10
  -5  -9 -13 1.99575 0.34259   9
  -6  -9 -13 21.3893 1.32841  16
  -6  -9 -13 21.7076 1.27181   9
  -3  -4  14 17.5620 1.20974   9
  -2  -4  14 0.34130 0.28360   9
  -2  -4  14 0.05439 0.22222  13
  -1  -4  14 0.36357 0.27563  13
  -1  -4  14 0.24817 0.26667  10
  -1  -4  14 0.77125 0.33733   9
   0  -4  14 21.3238 1.31246  13
   0  -4  14 21.0782 1.21227   9
   0  -4  14 20.2246 1.27361  10
   1  -4  14 0.54093 0.33457  10
   1  -4  14 0.05133 0.27252  13
   2  -4  14 5.09908 0.41935  10
   2  -4  14 5.57084 0.49962  13
   4   3 -14 8.08801 0.64351   8
  -4  -3  14 8.18484 0.61333   8
   3   3 -14 241.736 12.9375   8
  -3  -3  14 245.571 13.0035  13
  -3  -3  14 244.015 12.8947   8
  -2  -3  14 41.9510 2.79750  13
  -2  -3  14 55.1773 2.89516   9
  -2  -3  14 51.6565 2.66574   8
  -1  -3  14 4.89663 0.58295  13
  -1  -3  14 5.17399 0.55890   9
   0  -3  14 5.58255 0.59733   9
   0  -3  14 4.74086 0.62432  10
   0  -3  14 6.43067 0.74858  13
   1  -3  14 127.443 6.68254   9
   1  -3  14 121.442 6.71132  10
   2  -3  14 0.47123 0.23844   9
   2  -3  14 0.90602 0.30071  13
   2  -3  14 0.50504 0.28003  10
   3  -3  14 32.2864 1.77977  10
   3  -3  14 30.5013 1.82662  13
   4  -3  14 54.3434 2.93195  10
   5   2 -14 36.5402 2.03337   8
  -5  -2  14 39.1510 2.12547   8
   4   2 -14 8.92120 0.68258   8
  -4  -2  14 8.76328 0.78441   8
   3   2 -14 1.73495 0.31161   8
  -3  -2  14 2.48616 0.34281   8
  -3  -2  14 1.60968 0.32219  13
  -2  -2  14 11.7322 0.86501   8
  -2  -2  14 11.4360 0.91688  13
  -1  -2  14 71.6547 3.99587   9
  -1  -2  14 68.9552 3.95318  13
  -1  -2  14 70.5548 3.81133   8
   0  -2  14 7.49962 0.74779  13
   0  -2  14 6.80567 0.51552   8
   0  -2  14 8.64592 0.93533   9
   1  -2  14 0.40090 0.32278   9
   1  -2  14 0.48642 0.44716  13
   2  -2  14 105.662 5.54733  10
   2  -2  14 92.8369 5.57816  13
   2  -2  14 106.861 5.51124   9
   3  -2  14 4.63731 0.55042  10
   3  -2  14 5.30855 0.58096  13
   3  -2  14 5.65899 0.52017   9
   4  -2  14 23.7224 1.51633  12
   4  -2  14 28.6567 1.52431  10
   4  -2  14 24.2971 1.50758  13
   5  -2  14 0.25099 0.24374  10
   5   1 -14 8.42509 0.67878   9
   4   1 -14 241.104 12.5409   8
  -4  -1  14 232.692 12.6027   8
   3   1 -14 12.0866 0.84655   8
   3   1 -14 10.0509 0.82372  17
  -3  -1  14 10.7902 0.94510   8
   2   1 -14 87.3236 5.01070   8
  -2  -1  14 98.1925 5.05347   8
  -1  -1  14 25.2874 1.50429   8
   0  -1  14 47.0768 2.60207   8
   0  -1  14 45.9969 2.77498   9
   1  -1  14 63.9587 3.48874   9
   1  -1  14 59.4379 3.33687   8
   2  -1  14 88.3412 4.79778   9
   2  -1  14 84.9912 4.61539   8
   2  -1  14 87.4211 4.83704  13
   3  -1  14 75.2101 4.22483  13
   3  -1  14 72.3940 4.18503  10
   3  -1  14 79.7343 4.17946   9
   4  -1  14 29.6509 1.81956  13
   4  -1  14 29.4305 1.70438   9
   4  -1  14 32.3821 1.83249  10
   4  -1  14 29.2821 1.75422  12
   5  -1  14 5.19178 0.50530  10
   5  -1  14 4.83784 0.50379  12
   5   0 -14 22.4633 1.33430   9
   4   0 -14 1.05951 0.36217   9
   4   0 -14 0.64534 0.17763   8
   4   0 -14 0.87574 0.38300  17
   3   0 -14 35.1785 2.15451  17
   3   0 -14 35.8123 1.99109   8
  -3   0  14 36.4542 2.07861   8
   2   0 -14 96.9842 5.23175   8
  -1   0  14 89.4599 4.89063   8
   0   0  14 44.4496 2.49903   8
   1   0  14 23.8634 1.58080   9
   1   0  14 23.7982 1.45360   8
   2   0  14 14.8972 0.95262   8
   2   0  14 14.4370 1.19698   9
   3   0  14 1.21282 0.24766   8
   3   0  14 1.03680 0.36895   9
   4   0  14 29.3150 1.77226  12
   4   0  14 30.1610 1.87959  10
   4   0  14 32.0893 1.84136   9
   4   0  14 29.5949 1.85428  13
   5   0  14 6.58400 0.52698   9
   5   0  14 5.74703 0.59950  10
   5   0  14 6.25710 0.68379  12
   6   0  14 18.1769 1.13887  10
   6   0  14 19.2426 1.17372  12
   5  -1 -14 23.7724 1.53812  17
   5  -1 -14 29.2534 1.53051   9
   4  -1 -14 18.7228 1.26204   9
   3  -1 -14 11.5604 0.75878   8
   3  -1 -14 12.6851 1.06885   9
   3  -1 -14 12.3352 0.91844  17
   2  -1 -14 56.0846 3.08331   8
   1  -1 -14 10.8212 0.88242   8
  -1   1  14 10.5241 0.95456   8
   0  -1 -14 0.32979 0.39889   8
   0   1  14 -0.2389 0.40741   8
  -1  -1 -14 1.12655 0.44541   8
   1   1  14 0.87742 0.40430   8
   2   1  14 79.9534 4.34979   8
   3   1  14 5.42607 0.67925   9
   3   1  14 6.04251 0.57482   8
   4   1  14 7.57971 0.53690   8
   4   1  14 7.10468 0.62743  12
   4   1  14 7.32574 0.85643   9
   5   1  14 63.8985 3.37566   9
   5   1  14 57.6010 3.36374  12
   6   1  14 22.6742 1.44578  10
   6   1  14 22.4890 1.39268  12
   6   1  14 23.1351 1.33557   9
   7   1  14 10.7767 0.81046  12
   7   1  14 14.1133 0.81797  10
   4  -2 -14 194.340 10.0089  10
   4  -2 -14 180.420 9.95654   9
   3  -2 -14 13.0726 1.00837  17
   3  -2 -14 15.1046 0.99420   9
   2  -2 -14 7.92639 0.93287   9
   2  -2 -14 7.62942 0.58313   8
   1  -2 -14 67.1760 3.86247   9
   1  -2 -14 68.3624 3.68585   8
   0  -2 -14 1.75502 0.41700   8
  -1  -2 -14 135.357 7.23457   8
   1   2  14 133.211 7.23087   8
  -2  -2 -14 113.361 6.28254   8
   2   2  14 118.481 6.25568   8
   3   2  14 90.4837 4.89783   8
   4   2  14 2.98004 0.43940  12
   4   2  14 3.75717 0.50727   9
   4   2  14 3.52094 0.39107   8
   5   2  14 17.9324 1.00194   8
   5   2  14 15.7141 1.10198  12
   5   2  14 17.6280 1.25040   9
   6   2  14 0.48113 0.27722  12
   6   2  14 0.10935 0.41251   9
   7   2  14 73.2557 3.97707  10
   7   2  14 77.1350 3.98679  12
   7   2  14 68.2553 3.92553   9
   4  -3 -14 -0.0125 0.27567  17
   4  -3 -14 0.24981 0.17235   9
   4  -3 -14 0.53184 0.24832  10
   3  -3 -14 5.18703 0.52456   9
   3  -3 -14 5.77310 0.62586  17
   3  -3 -14 6.05171 0.57601  10
   2  -3 -14 9.57632 0.83508  17
   2  -3 -14 9.97801 0.92112   9
   1  -3 -14 19.6660 1.18363   8
   1  -3 -14 20.9402 1.45336   9
   0  -3 -14 163.246 8.55536   8
   0  -3 -14 157.277 8.67372   9
  -1  -3 -14 242.356 12.8910   8
  -2  -3 -14 33.7936 1.94258   8
   2   3  14 31.1809 1.87890   8
  -3  -3 -14 5.60229 0.60082   8
   3   3  14 5.59066 0.56282   8
   4   3  14 256.452 14.2551  12
   4   3  14 279.282 14.2154   8
   5   3  14 9.53291 0.69939   8
   5   3  14 9.33795 0.72509  12
   5   3  14 9.54713 0.94362   9
   6   3  14 0.24265 0.18380   8
   6   3  14 0.23530 0.31034   9
   6   3  14 -0.0390 0.36249  12
   7   3  14 12.7574 0.86708   9
   7   3  14 12.6660 0.85987  12
   8   3  14 12.5703 0.80125  12
   8   3  14 12.0322 0.76230   9
   4  -4 -14 33.7863 2.00908  10
   4  -4 -14 39.7599 2.10107  17
   3  -4 -14 9.87115 0.78136  17
   3  -4 -14 8.99243 0.68573  10
   3  -4 -14 9.53930 0.62127   9
   2  -4 -14 6.57716 0.61336  10
   2  -4 -14 6.43306 0.67406   9
   2  -4 -14 6.16013 0.67772  17
   1  -4 -14 29.8268 1.79890   9
   1  -4 -14 30.8395 1.93347  17
   0  -4 -14 136.557 7.25134   9
   0  -4 -14 130.325 7.08924   8
  -1  -4 -14 0.36938 0.32661   8
  -1  -4 -14 0.76090 0.44558   9
  -2  -4 -14 301.332 15.9853   8
  -3  -4 -14 1.61526 0.43083   8
   3   4  14 1.09824 0.41216   8
  -4  -4 -14 7.01940 0.76290   8
   4   4  14 7.54447 0.69976   8
  -5  -4 -14 21.9771 1.41337   8
   5   4  14 24.7774 1.36976   8
   6   4  14 56.3329 3.19028  12
   6   4  14 55.7405 3.23921   9
   6   4  14 60.5495 3.12839   8
   7   4  14 2.15325 0.21115   8
   7   4  14 1.08715 0.43005   9
   7   4  14 2.01607 0.33283  12
   8   4  14 92.7967 5.12996   9
   8   4  14 98.5244 5.15438  12
   3  -5 -14 3.00886 0.34834  10
   3  -5 -14 4.05567 0.43883  17
   2  -5 -14 21.0402 1.34579  17
   2  -5 -14 21.2305 1.18743   9
   2  -5 -14 20.7561 1.30621  10
   1  -5 -14 18.3965 1.24158  10
   1  -5 -14 16.5464 1.24005  17
   1  -5 -14 20.7163 1.19757   9
   0  -5 -14 28.0505 1.72400  17
   0  -5 -14 28.6389 1.66677  10
   0  -5 -14 25.8582 1.65043   9
  -1  -5 -14 8.36165 0.59906   8
  -1  -5 -14 10.2152 1.02615   9
  -1  -5 -14 7.73253 0.86378  16
  -2  -5 -14 106.962 5.75489   9
  -2  -5 -14 104.201 5.57171   8
  -2  -5 -14 100.701 5.69697  16
  -3  -5 -14 158.235 8.50440  16
  -3  -5 -14 156.900 8.55437   9
  -3  -5 -14 157.057 8.40602   8
  -4  -5 -14 6.76901 0.70644  16
  -4  -5 -14 6.40735 0.60183   8
   4   5  14 7.16771 0.58395   8
  -5  -5 -14 0.44113 0.37531   8
   5   5  14 0.54897 0.25056   8
  -6  -5 -14 18.7811 1.21023   8
   6   5  14 18.6147 1.10006   8
  -7  -5 -14 0.30886 0.33404   8
   7   5  14 0.10147 0.21526   8
   7   5  14 0.01416 0.22958  12
   8   5  14 16.6966 1.01198  12
   2  -6 -14 11.4465 0.68081  10
   2  -6 -14 9.49674 0.81299  17
   1  -6 -14 6.28781 0.59290  17
   1  -6 -14 6.83640 0.65369  10
   0  -6 -14 116.096 6.41973  10
   0  -6 -14 113.953 6.44114  16
   0  -6 -14 127.541 6.39545   9
  -1  -6 -14 43.7608 2.42830  10
  -1  -6 -14 41.4759 2.39268  16
  -1  -6 -14 38.0813 2.39945  17
  -1  -6 -14 43.3491 2.37184   9
  -2  -6 -14 1.02532 0.54037   9
  -2  -6 -14 0.98469 0.30405  17
  -2  -6 -14 0.82541 0.45075  16
  -3  -6 -14 40.6607 2.25553   8
  -3  -6 -14 42.0362 2.49265   9
  -3  -6 -14 41.2444 2.41798  16
  -4  -6 -14 52.3039 3.19856  16
  -4  -6 -14 57.5338 3.08408   8
  -4  -6 -14 59.6783 3.27950   9
  -5  -6 -14 36.7484 2.15056  16
  -5  -6 -14 39.4508 2.04985   8
   5   6  14 32.4374 2.02162   8
  -6  -6 -14 27.8284 1.61076   8
   6   6  14 28.8744 1.60927   8
  -7  -6 -14 115.844 6.30319   8
   7   6  14 120.380 6.28411   8
   8   6  14 24.1364 1.38659  12
   1  -7 -14 6.21075 0.49382  10
   0  -7 -14 2.66783 0.34121  16
   0  -7 -14 3.53746 0.35451  10
  -1  -7 -14 5.52905 0.55380  10
  -1  -7 -14 6.18081 0.51436   9
  -1  -7 -14 7.19417 0.73784  16
  -2  -7 -14 11.2240 0.86841   9
  -2  -7 -14 10.4720 0.83631  16
  -2  -7 -14 11.6971 0.90691  10
  -3  -7 -14 15.6338 1.16185   9
  -3  -7 -14 15.9227 1.18830  16
  -4  -7 -14 3.67986 0.59841   9
  -4  -7 -14 4.43798 0.51265  16
  -5  -7 -14 117.014 6.36179   8
  -5  -7 -14 122.960 6.51481   9
  -5  -7 -14 119.993 6.50401  16
  -6  -7 -14 37.2657 2.24050   9
  -6  -7 -14 37.2460 2.20467  16
  -6  -7 -14 40.1961 2.07639   8
   6   7  14 36.6688 2.12003   8
  -7  -7 -14 1.01568 0.17711   8
  -7  -7 -14 1.07129 0.31556  16
   7   7  14 1.21580 0.20278   8
  -1  -8 -14 11.6935 0.77832  10
  -2  -8 -14 49.8786 2.78458  16
  -3  -8 -14 6.40284 0.62945  16
  -3  -8 -14 7.57013 0.67456  10
  -3  -8 -14 7.16519 0.56357   9
  -4  -8 -14 11.3401 0.82821  16
  -4  -8 -14 10.1050 0.73841   9
  -5  -8 -14 0.11660 0.27884   9
  -5  -8 -14 0.26855 0.30048  16
  -6  -8 -14 18.1988 1.17017  16
  -2  -3  15 87.1108 4.72490   9
  -1  -3  15 1.89050 0.38457   9
  -1  -3  15 1.81876 0.30047  13
   0  -3  15 4.93179 0.50827  13
   0  -3  15 5.23846 0.52510   9
   1  -3  15 0.41629 0.26060  13
   1  -3  15 0.90144 0.21889   9
   2  -3  15 0.92814 0.23085  13
   3   2 -15 2.82224 0.30870   8
  -3  -2  15 3.31765 0.33271   8
   2   2 -15 38.7953 2.19550   8
  -2  -2  15 40.9022 2.15796   8
  -2  -2  15 38.7632 2.29503   9
  -1  -2  15 39.8224 2.28397   9
  -1  -2  15 39.0443 2.11778   8
   0  -2  15 3.64748 0.43260   9
   0  -2  15 2.28580 0.38060  13
   1  -2  15 3.08080 0.41902  13
   1  -2  15 2.89253 0.46033   9
   2  -2  15 161.842 8.87282  10
   2  -2  15 162.982 8.90082  13
   2  -2  15 172.541 8.82707   9
   3  -2  15 -0.0410 0.21219  13
   3  -2  15 -0.4188 0.21163  10
   3   1 -15 97.9898 5.51078   8
  -3  -1  15 109.037 5.54949   8
   2   1 -15 0.11107 0.24587   8
  -2  -1  15 0.25199 0.38224  13
  -2  -1  15 0.09162 0.23742   8
   1   1 -15 52.3401 2.88916   8
  -1  -1  15 51.0275 2.83496   8
   0  -1  15 10.3818 0.97791   9
   0  -1  15 9.36500 0.66121   8
   0  -1  15 9.10059 0.79295  13
   1  -1  15 0.40558 0.33489   9
   1  -1  15 0.40358 0.15765   8
   1  -1  15 0.61258 0.32050  13
   2  -1  15 0.04195 0.40972   9
   2  -1  15 0.11717 0.28735  13
   3  -1  15 8.11157 0.77085  13
   3  -1  15 8.07770 0.69745   9
   3  -1  15 7.93580 0.77264  10
   4  -1  15 262.727 12.5247   9
   4  -1  15 228.464 12.5878  10
   4  -1  15 219.291 12.5984  13
   3   0 -15 59.0421 3.22807   8
   3   0 -15 53.4543 3.34527  17
  -3   0  15 68.6976 3.31715   8
   2   0 -15 4.90592 0.48011   8
  -2   0  15 6.69905 0.70050   8
   1   0 -15 -0.2553 0.38240   8
  -1   0  15 0.33132 0.38640   8
   0   0 -15 38.6710 2.36362   8
   0   0  15 43.4729 2.32762   8
   1   0  15 53.4299 2.85953   8
   1   0  15 50.6843 2.97626   9
   2   0  15 16.5440 0.97836   8
   2   0  15 17.0171 1.14427   9
   3   0  15 23.9754 1.46875   9
   3   0  15 21.6088 1.47722  13
   4   0  15 8.41803 0.67073  13
   4   0  15 10.0275 0.74930   9
   4   0  15 8.48034 0.71569  10
   5   0  15 9.42264 0.58635   9
   5   0  15 8.41677 0.66459  10
   4  -1 -15 0.09677 0.31294   9
   3  -1 -15 3.94885 0.26978   8
   3  -1 -15 3.82426 0.45936   9
   3  -1 -15 3.95852 0.52121  17
   2  -1 -15 4.29017 0.51338  17
   2  -1 -15 3.73406 0.51658   9
   2  -1 -15 3.36397 0.36724   8
  -2   1  15 4.24546 0.44853   8
   1  -1 -15 103.131 5.59394   8
  -1   1  15 105.485 5.64842   8
   0  -1 -15 0.37754 0.29084   8
   0   1  15 0.31950 0.28513   8
  -1  -1 -15 53.0299 2.96276   8
   1   1  15 52.3767 2.90140   8
   2   1  15 104.140 5.58847   8
   3   1  15 35.4048 2.08429   9
   3   1  15 33.1008 1.88582   8
   4   1  15 7.86760 0.65106   9
   4   1  15 5.73441 0.58237  13
   5   1  15 33.4776 1.91746   9
   5   1  15 34.1121 1.94626  12
   6   1  15 3.84499 0.40768  12
   6   1  15 4.14052 0.38370   9
   3  -2 -15 -0.0606 0.26164   9
   3  -2 -15 0.11837 0.28781  17
   2  -2 -15 19.9132 1.10148   8
   2  -2 -15 19.1412 1.28177   9
   2  -2 -15 20.3113 1.29344  17
   1  -2 -15 13.0290 0.88429   8
   1  -2 -15 14.7080 1.17352   9
   0  -2 -15 14.2647 1.02154   8
   0   2  15 14.9680 1.08581   8
  -1  -2 -15 0.87449 0.40828   8
   1   2  15 1.38836 0.31427   8
  -2  -2 -15 0.38489 0.39648   8
   2   2  15 0.71865 0.26666   8
  -3  -2 -15 0.46740 0.32119   8
   3   2  15 0.90834 0.23792   8
   4   2  15 2.48490 0.29640   8
   4   2  15 2.23590 0.51174   9
   5   2  15 0.49720 0.24261  12
   5   2  15 0.40142 0.42188   9
   6   2  15 8.21387 0.62696  12
   3  -3 -15 9.47198 0.63883   9
   3  -3 -15 7.40243 0.75959  17
   3  -3 -15 8.14651 0.67934  10
   2  -3 -15 69.5338 3.61885   9
   2  -3 -15 62.0933 3.67433  17
   1  -3 -15 3.54813 0.31213   8
   1  -3 -15 3.11382 0.57322   9
   1  -3 -15 2.85240 0.54808  17
   0  -3 -15 84.6250 4.27752   8
   0  -3 -15 73.6803 4.38206   9
  -1  -3 -15 18.5799 1.19781   8
  -2  -3 -15 12.9129 0.90213   8
   2   3  15 14.1200 0.98947   8
  -3  -3 -15 2.40031 0.35537   8
   3   3  15 2.51252 0.32666   8
  -4  -3 -15 15.4583 1.06012   8
   4   3  15 18.1472 1.05301   8
   5   3  15 8.93133 0.76125   9
   5   3  15 9.89325 0.62225   8
   5   3  15 8.68344 0.65966  12
   6   3  15 63.7227 3.52620   9
   6   3  15 64.9472 3.52061  12
   7   3  15 0.48671 0.20738   9
   2  -4 -15 126.365 6.41385   9
   2  -4 -15 113.557 6.50539  17
   1  -4 -15 3.63635 0.56388  17
   1  -4 -15 4.60691 0.52538   9
   0  -4 -15 8.30614 0.86686  17
   0  -4 -15 8.49648 0.91542   9
   0  -4 -15 8.08436 0.51222   8
  -1  -4 -15 0.49481 0.26367   8
  -1  -4 -15 0.00792 0.40920   9
  -3  -4 -15 1.85739 0.30276   8
   3   4  15 1.00538 0.40676   8
  -4  -4 -15 12.6102 0.93838   8
   4   4  15 13.0850 0.89040   8
  -5  -4 -15 62.0258 3.36161   8
   5   4  15 57.1443 3.35790  12
   5   4  15 64.4291 3.32065   8
   7   4  15 42.0141 2.19798   9
   7   4  15 36.8058 2.18149  12
   2  -5 -15 7.59755 0.58060  17
   2  -5 -15 5.90801 0.49202  10
   1  -5 -15 44.0529 2.57998  10
   1  -5 -15 48.9801 2.55272   9
   0  -5 -15 77.4439 3.98468   9
   0  -5 -15 67.5937 4.01616  17
  -1  -5 -15 55.8361 2.88409   9
  -1  -5 -15 45.9924 2.90652  17
  -2  -5 -15 42.9141 2.50101   8
  -2  -5 -15 50.5972 2.74186   9
  -3  -5 -15 153.137 8.15195   8
  -3  -5 -15 153.266 8.27028   9
  -4  -5 -15 26.1190 1.47756   8
  -4  -5 -15 26.0723 1.54526  16
   4   5  15 25.2409 1.48561   8
  -5  -5 -15 2.88813 0.38119   8
  -5  -5 -15 2.06169 0.32001  16
   5   5  15 2.69617 0.30012   8
   5   5  15 2.45951 0.31178  12
  -6  -5 -15 0.10275 0.28225   8
  -6  -5 -15 0.15847 0.30407  16
   6   5  15 -0.2283 0.28107  12
   6   5  15 0.20734 0.23901   8
   1  -6 -15 54.8430 2.97655  10
   0  -6 -15 94.0897 5.62016  17
   0  -6 -15 113.728 5.54875   9
  -1  -6 -15 408.664 20.5131   9
  -1  -6 -15 366.279 20.5186  10
  -2  -6 -15 27.7767 1.60851   9
  -2  -6 -15 25.7096 1.56638  16
  -3  -6 -15 0.09268 0.37103  16
  -3  -6 -15 0.18521 0.36771   9
  -4  -6 -15 2.55758 0.43516   9
  -4  -6 -15 2.50019 0.35656  16
  -4  -6 -15 2.78492 0.27344   8
  -5  -6 -15 27.1415 1.40016   8
   5   6  15 22.1064 1.39401   8
  -6  -6 -15 1.70170 0.26446   8
  -6  -6 -15 1.51689 0.29246  16
   6   6  15 1.24251 0.21010   8
   6   6  15 1.35766 0.23391  12
  -1  -7 -15 0.42702 0.30026  10
  -2  -7 -15 0.77388 0.26110  16
  -2  -7 -15 0.74784 0.27077  10
  -2  -7 -15 0.53093 0.25494   9
  -3  -7 -15 0.05576 0.22706  16
  -3  -7 -15 0.06590 0.37403   9
  -4  -7 -15 0.97964 0.42892   9
  -4  -7 -15 0.69997 0.29268  16
  -5  -7 -15 310.505 16.4777  16
   1   1 -16 30.5154 1.63908   8
  -1  -1  16 30.5916 1.58792   8
  -1  -1  16 26.3723 1.69704  13
   0  -1  16 16.4149 1.06978   9
   0  -1  16 16.8603 1.07771  13
   1  -1  16 3.56371 0.45478  13
   1  -1  16 3.84290 0.39998   9
   2  -1  16 22.7060 1.30627   9
   2  -1  16 22.4961 1.35483  13
   2   0 -16 20.0553 1.15052   8
  -2   0  16 20.5972 1.20915   8
   1   0 -16 5.99049 0.57440   8
  -1   0  16 6.75246 0.57600  13
  -1   0  16 6.16005 0.47490   8
   0   0 -16 0.40686 0.23908   8
   0   0  16 0.92685 0.19108   8
  -1   0 -16 22.2409 1.32314   8
   1   0  16 24.6414 1.25079   8
   1   0  16 24.8457 1.47327   9
   1   0  16 18.1417 1.37473  13
   2   0  16 74.8796 4.22299  13
   2   0  16 79.1102 4.21706   9
   3   0  16 52.3735 3.31942  13
   3   0  16 69.0211 3.31514   9
   4   0  16 0.05315 0.24250   9
   2  -1 -16 23.1298 1.15496   8
   2  -1 -16 18.7021 1.28421  17
  -2   1  16 21.1466 1.24311   8
   1  -1 -16 35.6721 1.95449   8
   0  -1 -16 0.50199 0.32594   8
   0   1  16 0.87943 0.24638   8
  -1  -1 -16 21.8191 1.29641   8
   1   1  16 21.8150 1.25498   8
  -2  -1 -16 129.054 7.00410   8
   2   1  16 127.380 7.05168   9
   2   1  16 135.994 6.95217   8
   3   1  16 1.32318 0.30263  13
   3   1  16 2.27444 0.35682   9
   4   1  16 0.89446 0.33814   9
   2  -2 -16 19.3092 1.19606  17
   1  -2 -16 31.9539 1.85200  17
   1  -2 -16 30.9013 1.69871   8
   1  -2 -16 30.9050 1.89278   9
   0  -2 -16 33.0283 1.86054   8
   0   2  16 33.4224 1.88022   8
  -1  -2 -16 104.747 5.51777   8
   1   2  16 101.035 5.51362   8
  -2  -2 -16 15.6809 0.98701   8
   2   2  16 16.0226 1.00575   8
  -3  -2 -16 0.55406 0.24416   8
   3   2  16 0.25979 0.45550   9
   3   2  16 0.35405 0.16846   8
   4   2  16 41.0415 2.07476   9
   4   2  16 31.4551 2.02811  13
   5   2  16 7.32268 0.55825   9
   2  -3 -16 15.7061 1.00166   9
   1  -3 -16 0.32339 0.29312  17
   1  -3 -16 0.37280 0.29861   9
   0  -3 -16 8.85017 0.72326  17
   0  -3 -16 8.75968 0.56140   8
   0  -3 -16 8.44289 0.76241   9
  -1  -3 -16 175.621 9.15425   8
   1   3  16 169.200 9.19188   8
  -2  -3 -16 0.23711 0.21874   8
   2   3  16 0.09347 0.33372   8
  -3  -3 -16 1.92576 0.28633   8
   3   3  16 1.90483 0.26425   8
  -4  -3 -16 1.17817 0.25221   8
   4   3  16 1.02789 0.23758   8
   5   3  16 50.3035 2.78756   9
   1  -4 -16 110.546 6.62097  17
   1  -4 -16 135.083 6.56549   9
   0  -4 -16 13.6154 0.92475   9
   0  -4 -16 13.5434 0.93147  17
  -1  -4 -16 127.789 6.52064   8
  -1  -4 -16 118.500 6.67189  17
  -2  -4 -16 66.4479 3.74530   8
  -2  -4 -16 72.3325 3.90807   9
   2   4  16 71.5099 3.80986   8
  -3  -4 -16 3.30434 0.32208   8
   3   4  16 3.41629 0.34145   8
  -4  -4 -16 18.7568 1.09801   8
   4   4  16 17.2595 1.03878   8
  -5  -4 -16 25.6904 1.36306   8
   5   4  16 22.5925 1.31447   8
   0  -5 -16 119.022 6.77176  17
   0  -5 -16 133.041 6.72558   9
  -1  -5 -16 28.6688 1.68102  17
  -1  -5 -16 28.6878 1.65449   9
  -2  -5 -16 6.34018 0.52921  17
  -2  -5 -16 6.43467 0.64273   9
  -3  -5 -16 2.80418 0.41236   9
  -3  -5 -16 2.78889 0.26254   8
   3   5  16 2.59753 0.37278   8
  -4  -5 -16 33.0506 1.90274   8
   4   5  16 37.2213 1.93769   8
  -5  -5 -16 51.2686 2.60351   8
   5   5  16 44.9285 2.58597   8
  -1  -6 -16 79.4210 4.25967   9
  -2  -6 -16 0.20259 0.31778   9
  -3  -6 -16 46.1531 2.55976   9
   2   3  17 20.0013 1.15603   8
   0   0   0    0.00    0.00   0

 _exptl_absorpt_process_details 'SADABS 2014/4'
 _exptl_absorpt_correction_type   multiscan
 _exptl_absorpt_correction_T_max  0.7726
 _exptl_absorpt_correction_T_min  0.6089
 _exptl_special_details
)
 The following wavelength and cell were deduced by SADABS from the
 direction cosines etc. They are given here for emergency use only:
 CELL 1.54182   10.148   10.378   14.129   78.713   82.088   69.299
)

;
_shelx_hkl_checksum   75580

