data_x16035 
 
_audit_creation_method            'SHELXL-2014/7 and CIFFIX' 
# CIF edited on-the-fly by script CIFFIX (S. Parkin, 2000-2014). 
# CIFFIX: http://xray.uky.edu/people/parkin/programs/ciffix 
_audit_update_record              ? 
 
_shelx_SHELXL_version_number      '2014/7' 
 
_publ_section_exptl_refinement 
; 
H atoms were found in difference Fourier maps, but subsequently included 
in the refinement using riding models, with constrained distances set to 
0.95 %A (C~sp2~H), 0.98 %A (RCH~3~) and 0.99 %A (R~2~CH~2~).  U~iso~(H) 
parameters were set to values of either 1.2U~eq~ or 1.5U~eq~ (RCH~3~ only) 
of the attached atom. 
 
To ensure satisfactory refinement for disordered groups in the structure, 
a combination of constraints and restraints were employed. The constraints 
(SHELXL commands EXYZ and EADP) were used to fix overlapping fragments. 
Restraints were used to ensure the integrity of ill-defined or disordered 
groups (SHELXL commands SAME and RIGU). 
; 
 
_publ_section_references 
; 
Bruker-AXS (2006). 
  <i>APEX2</i> Bruker-AXS Inc., Madison, WI, USA. 
 
Hope, H. (1994). 
  <i>Prog. Inorg. Chem.</i> <b>41</b>, 1--19. 
 
Krause, L., Herbst-Irmer, R., Sheldrick, G.M. & Stalke, D. (2015). 
  <i>J. Appl. Cryst.</i> <b>48</b>, 3--10. 
 
Parkin, S. & Hope, H. (1998). 
  <i>J. Appl. Cryst.</i> <b>31</b>, 945--953. 
 
Parkin, S. (2000). 
  <i>Acta Cryst.</i> A<b>56</b>, 157--162. 
 
Parkin, S. (2013). 
  <i>CIFFIX</i>, http://xray.uky.edu/people/parkin/programs/ciffix 
 
Sheldrick, G.M. (2008). 
  <i>Acta Cryst.</i> A<b>64</b>, 112--122. 
 
Sheldrick, G.M. (2015a). 
  <i>Acta Cryst.</i> A<b>71</b>, 3--8. 
 
Sheldrick, G.M. (2015b). 
  <i>Acta Cryst.</i> C<b>71</b>, 3--8. 
 
Spek, A.L. (2009). 
  <i>Acta Cryst.</i> D<b>65</b>, 148--155. 
; 
 
_publ_section_acknowledgements 
; 
The X8 Proteum diffractometer was funded by the NSF (MRI CHE0319176, 70%), 
and by the University of Kentucky (cost share, 30%). 
; 
 
_chemical_name_systematic         ? 
_chemical_name_common             ? 
_chemical_melting_point           ? 
_chemical_formula_moiety          'C58 H64 F2 S6 Si2' 
_chemical_formula_sum             'C58 H64 F2 S6 Si2' 
_chemical_formula_weight          1047.63 
 
loop_ 
 _atom_type_symbol 
 _atom_type_description 
 _atom_type_scat_dispersion_real 
 _atom_type_scat_dispersion_imag 
 _atom_type_scat_source 
 'C'  'C'   0.0181   0.0091 
 'International Tables Vol C Tables 4.2.6.8 and 6.1.1.4' 
 'H'  'H'   0.0000   0.0000 
 'International Tables Vol C Tables 4.2.6.8 and 6.1.1.4' 
 'F'  'F'   0.0727   0.0534 
 'International Tables Vol C Tables 4.2.6.8 and 6.1.1.4' 
 'Si'  'Si'   0.2541   0.3302 
 'International Tables Vol C Tables 4.2.6.8 and 6.1.1.4' 
 'S'  'S'   0.3331   0.5567 
 'International Tables Vol C Tables 4.2.6.8 and 6.1.1.4' 
 
_space_group_crystal_system       triclinic 
_space_group_IT_number            2 
_space_group_name_H-M_alt         'P -1' 
_space_group_name_Hall            '-P 1' 
 
_shelx_space_group_comment 
; 
The symmetry employed for this shelxl refinement is uniquely defined 
by the following loop, which should always be used as a source of 
symmetry information in preference to the above space-group names. 
They are only intended as comments. 
; 
 
loop_ 
 _space_group_symop_operation_xyz 
 'x, y, z' 
 '-x, -y, -z' 
 
_cell_length_a                    8.2718(1) 
_cell_length_b                    10.5045(2) 
_cell_length_c                    16.6383(3) 
_cell_angle_alpha                 80.085(1) 
_cell_angle_beta                  79.992(1) 
_cell_angle_gamma                 71.713(1) 
_cell_volume                      1341.07(4) 
_cell_formula_units_Z             1 
_cell_measurement_temperature     90.0(2) 
_cell_measurement_reflns_used     6158 
_cell_measurement_theta_min       2.72 
_cell_measurement_theta_max       68.19 
 
_exptl_crystal_description        needle 
_exptl_crystal_colour             yellow 
_exptl_crystal_density_meas       ? 
_exptl_crystal_density_method     ? 
_exptl_crystal_density_diffrn     1.297 
_exptl_crystal_F_000              554 
_exptl_transmission_factor_min    ? 
_exptl_transmission_factor_max    ? 
_exptl_crystal_size_max           0.350 
_exptl_crystal_size_mid           0.040 
_exptl_crystal_size_min           0.020 
_exptl_absorpt_coefficient_mu     3.133 
_shelx_estimated_absorpt_T_min    0.407 
_shelx_estimated_absorpt_T_max    0.940 
_exptl_absorpt_correction_type    multi-scan 
_exptl_absorpt_correction_T_min   0.578 
_exptl_absorpt_correction_T_max   0.907 
_exptl_absorpt_process_details    '<i>SADABS</i> (Krause et al., 2015)' 
_exptl_absorpt_special_details 
; 
In addition to absorption, multi-scan techniques also correct other slowly 
varying changes in scale factor over reciprocal space, such as those caused 
by x-ray beam inhomogeneity, goniometer imperfection, crystal decomposition, 
crystal longer than the x-ray beam cross section, absorption by the crystal 
mount etc.  These account, by and large, for much of the difference between 
estimated values of Tmin and Tmax and the _exptl_absorpt_correction_ values. 
; 
 
_exptl_special_details 
; 
The crystal was mounted using polyisobutene oil on the tip of a fine glass 
fibre, which was fastened in a copper mounting pin with electrical solder. 
It was placed directly into the cold gas stream of a liquid-nitrogen based 
cryostat (Hope, 1994; Parkin & Hope, 1998). 
 
Diffraction data were collected with the crystal at 90K, which is standard 
practice in this laboratory for the majority of flash-cooled crystals. 
; 
 
_diffrn_ambient_temperature       90.0(2) 
_diffrn_radiation_wavelength      1.54178 
_diffrn_radiation_type            CuK\a 
_diffrn_source                    'fine-focus rotating anode' 
_diffrn_measurement_device_type   'Bruker X8 Proteum diffractometer' 
_diffrn_measurement_method        '\f and \w scans' 
_diffrn_detector_area_resol_mean  5.6 
_diffrn_reflns_number             18570 
_diffrn_reflns_av_unetI/netI      0.0614 
_diffrn_reflns_av_R_equivalents   0.0655 
_diffrn_reflns_limit_h_min        -3 
_diffrn_reflns_limit_h_max        9 
_diffrn_reflns_limit_k_min        -12 
_diffrn_reflns_limit_k_max        12 
_diffrn_reflns_limit_l_min        -19 
_diffrn_reflns_limit_l_max        20 
_diffrn_reflns_theta_min          2.718 
_diffrn_reflns_theta_max          68.202 
_diffrn_reflns_theta_full         67.679 
_diffrn_measured_fraction_theta_max                0.977 
_diffrn_measured_fraction_theta_full               0.979 
_diffrn_reflns_Laue_measured_fraction_max          0.977 
_diffrn_reflns_Laue_measured_fraction_full         0.979 
_diffrn_reflns_point_group_measured_fraction_max   0.977 
_diffrn_reflns_point_group_measured_fraction_full  0.979 
 
_reflns_number_total              4780 
_reflns_number_gt                 3602 
_reflns_threshold_expression      'I > 2\s(I)' 
_reflns_Friedel_coverage          0.000 
_reflns_Friedel_fraction_max      . 
_reflns_Friedel_fraction_full     . 
_reflns_special_details 
; 
Reflections were merged by SHELXL according to the crystal 
class for the calculation of statistics and refinement. 
 
_reflns_Friedel_fraction is defined as the number of unique 
Friedel pairs measured divided by the number that would be 
possible theoretically, ignoring centric projections and 
systematic absences. 
; 
 
_computing_data_collection        '<i>APEX2</i> (Bruker-AXS, 2006)' 
_computing_cell_refinement        '<i>APEX2</i> (Bruker-AXS, 2006)' 
_computing_data_reduction         '<i>APEX2</i> (Bruker-AXS, 2006)' 
_computing_structure_solution     '<i>SHELXT</i> (Sheldrick, 2015a)' 
_computing_structure_refinement   '<i>SHELXL-2014/7</i> (Sheldrick, 2015b)' 
_computing_molecular_graphics     '<i>XP in SHELXTL</i> (Sheldrick, 2008)' 
_computing_publication_material 
'<i>SHELX</i> (Sheldrick, 2008) and <i>CIFFIX</i> (Parkin, 2013)' 
 
_refine_special_details 
; 
Refinement progress was checked using <i>Platon</i> (Spek, 2009) and by 
an <i>R</i>-tensor (Parkin, 2000). The final model was further checked 
with the IUCr utility <i>checkCIF</i>. 
; 
_refine_ls_structure_factor_coef  Fsqd 
_refine_ls_matrix_type            full 
_refine_ls_weighting_scheme       calc 
_refine_ls_weighting_details 
'w=1/[\s^2^(Fo^2^)+(0.0745P)^2^+0.3009P] where P=(Fo^2^+2Fc^2^)/3' 
_atom_sites_solution_primary      direct 
_atom_sites_solution_secondary    difmap 
_atom_sites_solution_hydrogens    difmap 
_refine_ls_hydrogen_treatment     constr 
_refine_ls_extinction_method      none 
_refine_ls_extinction_coef        . 
_refine_ls_number_reflns          4780 
_refine_ls_number_parameters      359 
_refine_ls_number_restraints      329 
_refine_ls_R_factor_all           0.0737 
_refine_ls_R_factor_gt            0.0517 
_refine_ls_wR_factor_ref          0.1433 
_refine_ls_wR_factor_gt           0.1288 
_refine_ls_goodness_of_fit_ref    1.036 
_refine_ls_restrained_S_all       1.008 
_refine_ls_shift/su_max           0.000 
_refine_ls_shift/su_mean          0.000 
 
loop_ 
 _atom_site_label 
 _atom_site_type_symbol 
 _atom_site_fract_x 
 _atom_site_fract_y 
 _atom_site_fract_z 
 _atom_site_U_iso_or_equiv 
 _atom_site_adp_type 
 _atom_site_occupancy 
 _atom_site_site_symmetry_order 
 _atom_site_calc_flag 
 _atom_site_refinement_flags_posn 
 _atom_site_refinement_flags_adp 
 _atom_site_refinement_flags_occupancy 
 _atom_site_disorder_assembly 
 _atom_site_disorder_group 
Si1 Si 0.54957(8) 0.36668(7) 0.16779(4) 0.01741(19) Uani 1 1 d . . . . . 
C1 C 0.5375(3) 0.4493(3) 0.42138(15) 0.0179(5) Uani 1 1 d . . . . . 
C2 C 0.3993(3) 0.4296(3) 0.47973(16) 0.0184(5) Uani 0.6486(17) 1 d D U P A 1 
S3 S 0.27220(13) 0.33984(12) 0.45951(7) 0.0187(3) Uani 0.6486(17) 1 d D U P A 1 
C4 C 0.150(4) 0.366(4) 0.5542(14) 0.0170(11) Uani 0.6486(17) 1 d D U P A 1 
C5 C 0.2160(7) 0.4350(6) 0.5964(3) 0.0147(5) Uani 0.6486(17) 1 d D U P A 1 
F1 F 0.1500(3) 0.4656(3) 0.67220(19) 0.0233(5) Uani 0.6486(17) 1 d D U P A 1 
C6 C 0.3635(3) 0.4792(3) 0.55621(15) 0.0183(5) Uani 0.6486(17) 1 d D U P A 1 
C2' C 0.3993(3) 0.4296(3) 0.47973(16) 0.0184(5) Uani 0.3514(17) 1 d D U P A 2 
F1' F 0.2544(5) 0.3022(5) 0.4247(3) 0.0233(5) Uani 0.3514(17) 1 d D U P A 2 
C3' C 0.2576(11) 0.3694(9) 0.4897(5) 0.0187(3) Uani 0.3514(17) 1 d D U P A 2 
C4' C 0.149(7) 0.367(7) 0.561(3) 0.0170(11) Uani 0.3514(17) 1 d D U P A 2 
S5' S 0.1884(3) 0.4636(2) 0.62505(14) 0.0147(5) Uani 0.3514(17) 1 d D U P A 2 
C6' C 0.3635(3) 0.4792(3) 0.55621(15) 0.0183(5) Uani 0.3514(17) 1 d D U P A 2 
C7 C 0.006(2) 0.311(2) 0.5854(8) 0.0157(17) Uani 0.6486(17) 1 d D U P A 1 
S8 S -0.12027(12) 0.34333(11) 0.68006(6) 0.0182(3) Uani 0.6486(17) 1 d D U P A 
1 
C9 C -0.2557(10) 0.2564(10) 0.6642(4) 0.0156(11) Uani 0.6486(17) 1 d D U P A 1 
C10 C -0.3991(12) 0.2380(11) 0.7164(5) 0.0180(11) Uani 0.6486(17) 1 d D U P A 1 
H10 H -0.4329 0.2739 0.7674 0.022 Uiso 0.6486(17) 1 calc R U P A 1 
C11 C -0.492(2) 0.165(2) 0.6912(10) 0.0189(9) Uani 0.6486(17) 1 d D U P A 1 
C12 C -0.6446(15) 0.1345(13) 0.7338(6) 0.0299(7) Uani 0.6486(17) 1 d D U P A 1 
H12 H -0.6956 0.1598 0.7867 0.036 Uiso 0.6486(17) 1 calc R U P A 1 
C13 C -0.7074(16) 0.0679(17) 0.6922(12) 0.023(2) Uani 0.6486(17) 1 d D U P A 1 
H13 H -0.8124 0.0467 0.7102 0.028 Uiso 0.6486(17) 1 calc R U P A 1 
S14 S -0.57717(19) 0.02313(16) 0.60092(8) 0.0240(3) Uani 0.6486(17) 1 d D U P A 
1 
C15 C -0.438(3) 0.109(3) 0.6162(14) 0.0223(7) Uani 0.6486(17) 1 d D U P A 1 
C16 C -0.2980(16) 0.1327(13) 0.5625(8) 0.0188(14) Uani 0.6486(17) 1 d D U P A 1 
H16 H -0.2676 0.1004 0.5103 0.023 Uiso 0.6486(17) 1 calc R U P A 1 
C17 C -0.2045(13) 0.2051(11) 0.5873(6) 0.0160(11) Uani 0.6486(17) 1 d D U P A 1 
C18 C -0.0562(6) 0.2414(5) 0.5440(3) 0.0220(5) Uani 0.6486(17) 1 d D U P A 1 
H18 H -0.0064 0.2183 0.4906 0.026 Uiso 0.6486(17) 1 calc R U P A 1 
C8' C -0.1081(10) 0.3240(8) 0.6417(5) 0.0182(3) Uani 0.3514(17) 1 d D U P A 2 
H8' H -0.1049 0.3707 0.6853 0.022 Uiso 0.3514(17) 1 calc R U P A 2 
C9' C -0.233(2) 0.254(2) 0.6433(9) 0.0156(11) Uani 0.3514(17) 1 d D U P A 2 
C10' C -0.373(2) 0.250(2) 0.7031(11) 0.0180(11) Uani 0.3514(17) 1 d D U P A 2 
H10' H -0.3968 0.2964 0.7499 0.022 Uiso 0.3514(17) 1 calc R U P A 2 
C11' C -0.477(4) 0.175(4) 0.6912(19) 0.0189(9) Uani 0.3514(17) 1 d D U P A 2 
S12' S -0.6606(6) 0.1533(5) 0.7530(2) 0.0299(7) Uani 0.3514(17) 1 d D U P A 2 
C13' C -0.685(3) 0.047(3) 0.689(2) 0.023(2) Uani 0.3514(17) 1 d D U P A 2 
H13' H -0.7712 0.0015 0.7010 0.028 Uiso 0.3514(17) 1 calc R U P A 2 
C14' C -0.5713(16) 0.0364(14) 0.6232(7) 0.0240(3) Uani 0.3514(17) 1 d D U P A 2 
H14' H -0.5706 -0.0139 0.5808 0.029 Uiso 0.3514(17) 1 calc R U P A 2 
C15' C -0.447(6) 0.108(6) 0.621(3) 0.0223(7) Uani 0.3514(17) 1 d D U P A 2 
C16' C -0.302(3) 0.107(3) 0.5624(15) 0.0188(14) Uani 0.3514(17) 1 d D U P A 2 
H16' H -0.2741 0.0565 0.5173 0.023 Uiso 0.3514(17) 1 calc R U P A 2 
C17' C -0.202(2) 0.185(2) 0.5740(12) 0.0160(11) Uani 0.3514(17) 1 d D U P A 2 
S18' S -0.0211(2) 0.2083(2) 0.50907(13) 0.0220(5) Uani 0.3514(17) 1 d D U P A 2 
C7' C 0.004(4) 0.316(4) 0.5725(16) 0.0157(17) Uani 0.3514(17) 1 d D U P A 2 
C19 C 0.5648(3) 0.4067(3) 0.34175(16) 0.0221(6) Uani 1 1 d . . . . . 
C20 C 0.5768(3) 0.3767(3) 0.27395(16) 0.0202(6) Uani 1 1 d . . . . . 
C21 C 0.5972(3) 0.5182(3) 0.10282(16) 0.0207(6) Uani 1 1 d . . . . . 
H21A H 0.5987 0.5098 0.0443 0.025 Uiso 1 1 calc R U . . . 
H21B H 0.5030 0.5997 0.1165 0.025 Uiso 1 1 calc R U . . . 
C22 C 0.7677(3) 0.5384(3) 0.11320(16) 0.0223(6) Uani 1 1 d . . . . . 
H22A H 0.7668 0.5467 0.1717 0.027 Uiso 1 1 calc R U . . . 
H22B H 0.8624 0.4573 0.0992 0.027 Uiso 1 1 calc R U . . . 
C23 C 0.8035(3) 0.6626(3) 0.06007(17) 0.0237(6) Uani 1 1 d . . . . . 
H23A H 0.7092 0.7440 0.0741 0.028 Uiso 1 1 calc R U . . . 
H23B H 0.8049 0.6544 0.0015 0.028 Uiso 1 1 calc R U . . . 
C24 C 0.9738(3) 0.6810(3) 0.07138(19) 0.0298(7) Uani 1 1 d . . . . . 
H24A H 0.9719 0.6919 0.1289 0.045 Uiso 1 1 calc R U . . . 
H24B H 0.9909 0.7614 0.0357 0.045 Uiso 1 1 calc R U . . . 
H24C H 1.0680 0.6013 0.0568 0.045 Uiso 1 1 calc R U . . . 
C25 C 0.6925(3) 0.2064(3) 0.12977(15) 0.0185(5) Uani 1 1 d . . . . . 
H25A H 0.8136 0.2060 0.1250 0.022 Uiso 1 1 calc R U . . . 
H25B H 0.6776 0.1288 0.1704 0.022 Uiso 1 1 calc R U . . . 
C26 C 0.6541(3) 0.1890(3) 0.04607(16) 0.0202(6) Uani 1 1 d . . . . . 
H26A H 0.5289 0.2062 0.0480 0.024 Uiso 1 1 calc R U . . . 
H26B H 0.6895 0.2568 0.0035 0.024 Uiso 1 1 calc R U . . . 
C27 C 0.7467(3) 0.0482(3) 0.02205(17) 0.0251(6) Uani 1 1 d . . . . . 
H27A H 0.8703 0.0270 0.0268 0.030 Uiso 1 1 calc R U . . . 
H27B H 0.7013 -0.0185 0.0613 0.030 Uiso 1 1 calc R U . . . 
C28 C 0.7273(4) 0.0333(3) -0.0650(2) 0.0377(8) Uani 1 1 d . . . . . 
H28A H 0.6053 0.0535 -0.0701 0.057 Uiso 1 1 calc R U . . . 
H28B H 0.7879 -0.0594 -0.0763 0.057 Uiso 1 1 calc R U . . . 
H28C H 0.7763 0.0964 -0.1044 0.057 Uiso 1 1 calc R U . . . 
C29 C 0.3211(3) 0.3694(3) 0.17261(16) 0.0210(6) Uani 1 1 d . . . . . 
H29A H 0.2455 0.4512 0.1964 0.025 Uiso 1 1 calc R U . . . 
H29B H 0.2948 0.3760 0.1159 0.025 Uiso 1 1 calc R U . . . 
C30 C 0.2798(3) 0.2449(3) 0.22361(17) 0.0231(6) Uani 1 1 d . . . . . 
H30A H 0.3498 0.1635 0.1979 0.028 Uiso 1 1 calc R U . . . 
H30B H 0.3122 0.2350 0.2794 0.028 Uiso 1 1 calc R U . . . 
C31 C 0.0909(3) 0.2527(3) 0.23107(19) 0.0283(6) Uani 1 1 d . . . . . 
H31A H 0.0205 0.3368 0.2540 0.034 Uiso 1 1 calc R U . . . 
H31B H 0.0600 0.2578 0.1755 0.034 Uiso 1 1 calc R U . . . 
C32 C 0.0476(4) 0.1330(3) 0.2852(2) 0.0352(7) Uani 1 1 d . . . . . 
H32A H 0.1086 0.0503 0.2602 0.053 Uiso 1 1 calc R U . . . 
H32B H -0.0764 0.1466 0.2908 0.053 Uiso 1 1 calc R U . . . 
H32C H 0.0826 0.1248 0.3397 0.053 Uiso 1 1 calc R U . . . 
 
loop_ 
 _atom_site_aniso_label 
 _atom_site_aniso_U_11 
 _atom_site_aniso_U_22 
 _atom_site_aniso_U_33 
 _atom_site_aniso_U_23 
 _atom_site_aniso_U_13 
 _atom_site_aniso_U_12 
Si1 0.0181(4) 0.0218(4) 0.0157(3) -0.0023(3) -0.0050(3) -0.0091(3) 
C1 0.0143(12) 0.0225(14) 0.0164(12) -0.0024(10) -0.0061(10) -0.0027(10) 
C2 0.0174(12) 0.0202(13) 0.0211(13) 0.0021(10) -0.0096(10) -0.009(1) 
S3 0.0151(5) 0.0274(6) 0.0178(6) -0.0023(4) -0.0024(4) -0.0122(4) 
C4 0.0135(12) 0.0234(14) 0.016(3) 0.001(3) -0.004(2) -0.009(1) 
C5 0.014(1) 0.0248(12) 0.0092(15) -0.0027(9) -0.0003(10) -0.0115(9) 
F1 0.0242(12) 0.0355(13) 0.0189(13) -0.010(1) -0.0010(10) -0.0185(10) 
C6 0.0111(12) 0.0244(14) 0.0181(12) 0.0026(10) -0.0045(9) -0.0049(10) 
C2' 0.0174(12) 0.0202(13) 0.0211(13) 0.0021(10) -0.0096(10) -0.009(1) 
F1' 0.0242(12) 0.0355(13) 0.0189(13) -0.010(1) -0.0010(10) -0.0185(10) 
C3' 0.0151(5) 0.0274(6) 0.0178(6) -0.0023(4) -0.0024(4) -0.0122(4) 
C4' 0.0135(12) 0.0234(14) 0.016(3) 0.001(3) -0.004(2) -0.009(1) 
S5' 0.014(1) 0.0248(12) 0.0092(15) -0.0027(9) -0.0003(10) -0.0115(9) 
C6' 0.0111(12) 0.0244(14) 0.0181(12) 0.0026(10) -0.0045(9) -0.0049(10) 
C7 0.0124(13) 0.022(2) 0.014(4) 0.003(4) -0.007(3) -0.0071(15) 
S8 0.0147(5) 0.0278(5) 0.0172(6) -0.0068(4) 0.0014(4) -0.0133(4) 
C9 0.016(2) 0.0200(14) 0.013(3) 0.001(2) -0.002(2) -0.0086(16) 
C10 0.014(3) 0.022(2) 0.018(3) -0.001(2) 0.0021(18) -0.0087(15) 
C11 0.013(3) 0.020(3) 0.0245(13) 0.0045(15) -0.0046(15) -0.0086(13) 
C12 0.0175(11) 0.0325(17) 0.039(2) 0.0056(12) 0.0022(12) -0.0145(11) 
C13 0.012(3) 0.025(5) 0.0337(19) 0.007(3) -0.005(2) -0.010(4) 
S14 0.0206(5) 0.0316(6) 0.0278(8) -0.0028(5) -0.0045(5) -0.0186(4) 
C15 0.015(3) 0.0285(15) 0.026(2) 0.003(2) -0.0056(12) -0.0114(18) 
C16 0.0175(14) 0.025(5) 0.0202(13) -0.005(2) -0.0031(10) -0.013(2) 
C17 0.0115(12) 0.022(3) 0.017(3) -0.0019(18) -0.0035(17) -0.0086(17) 
C18 0.0172(9) 0.0326(11) 0.0230(12) -0.0053(8) -0.0028(8) -0.0161(8) 
C8' 0.0147(5) 0.0278(5) 0.0172(6) -0.0068(4) 0.0014(4) -0.0133(4) 
C9' 0.016(2) 0.0200(14) 0.013(3) 0.001(2) -0.002(2) -0.0086(16) 
C10' 0.014(3) 0.022(2) 0.018(3) -0.001(2) 0.0021(18) -0.0087(15) 
C11' 0.013(3) 0.020(3) 0.0245(13) 0.0045(15) -0.0046(15) -0.0086(13) 
S12' 0.0175(11) 0.0325(17) 0.039(2) 0.0056(12) 0.0022(12) -0.0145(11) 
C13' 0.012(3) 0.025(5) 0.0337(19) 0.007(3) -0.005(2) -0.010(4) 
C14' 0.0206(5) 0.0316(6) 0.0278(8) -0.0028(5) -0.0045(5) -0.0186(4) 
C15' 0.015(3) 0.0285(15) 0.026(2) 0.003(2) -0.0056(12) -0.0114(18) 
C16' 0.0175(14) 0.025(5) 0.0202(13) -0.005(2) -0.0031(10) -0.013(2) 
C17' 0.0115(12) 0.022(3) 0.017(3) -0.0019(18) -0.0035(17) -0.0086(17) 
S18' 0.0172(9) 0.0326(11) 0.0230(12) -0.0053(8) -0.0028(8) -0.0161(8) 
C7' 0.0124(13) 0.022(2) 0.014(4) 0.003(4) -0.007(3) -0.0071(15) 
C19 0.0187(13) 0.0267(15) 0.0216(14) -0.0023(11) -0.0063(10) -0.0058(11) 
C20 0.0176(13) 0.0245(14) 0.0218(14) -0.0043(11) -0.0027(10) -0.0099(11) 
C21 0.0227(13) 0.0237(14) 0.0189(13) -0.0024(10) -0.0054(10) -0.0103(11) 
C22 0.0234(14) 0.0241(14) 0.0221(14) -0.0018(11) -0.0070(11) -0.0090(11) 
C23 0.0240(14) 0.0221(14) 0.0276(15) 0.0000(11) -0.0075(11) -0.0097(11) 
C24 0.0267(15) 0.0270(16) 0.0374(17) -0.0009(13) -0.0060(12) -0.0110(12) 
C25 0.0160(12) 0.0233(14) 0.0194(13) 0.0005(10) -0.0049(10) -0.0104(10) 
C26 0.0164(13) 0.0245(14) 0.0217(13) -0.0043(11) -0.004(1) -0.0075(11) 
C27 0.0214(14) 0.0258(15) 0.0292(15) -0.0078(12) -0.0012(11) -0.0073(11) 
C28 0.0390(18) 0.0387(19) 0.0367(18) -0.0189(15) -0.0040(14) -0.0064(15) 
C29 0.0186(13) 0.0245(14) 0.0216(13) -0.0062(11) -0.0063(10) -0.0052(11) 
C30 0.0165(13) 0.0290(15) 0.0257(14) -0.0014(12) -0.0081(10) -0.0074(11) 
C31 0.0178(14) 0.0292(16) 0.0409(17) -0.0056(13) -0.0065(12) -0.0093(12) 
C32 0.0204(15) 0.0370(18) 0.051(2) -0.0019(15) -0.0059(13) -0.0136(13) 
 
_geom_special_details 
; 
 All esds (except the esd in the dihedral angle between two l.s. planes) 
 are estimated using the full covariance matrix.  The cell esds are taken 
 into account individually in the estimation of esds in distances, angles 
 and torsion angles; correlations between esds in cell parameters are only 
 used when they are defined by crystal symmetry.  An approximate (isotropic) 
 treatment of cell esds is used for estimating esds involving l.s. planes. 
; 
 
loop_ 
 _geom_bond_atom_site_label_1 
 _geom_bond_atom_site_label_2 
 _geom_bond_distance 
 _geom_bond_site_symmetry_2 
 _geom_bond_publ_flag 
Si1 C20 1.844(3) . ? 
Si1 C25 1.869(3) . ? 
Si1 C29 1.869(2) . ? 
Si1 C21 1.873(3) . ? 
C1 C6' 1.400(4) 2_666 ? 
C1 C6 1.400(4) 2_666 ? 
C1 C2 1.409(4) . ? 
C1 C2' 1.409(4) . ? 
C1 C19 1.429(4) . ? 
C2 C6 1.407(4) . ? 
C2 S3 1.721(2) . ? 
S3 C4 1.732(15) . ? 
C4 C5 1.363(15) . ? 
C4 C7 1.468(11) . ? 
C5 F1 1.334(5) . ? 
C5 C6 1.456(6) . ? 
C6 C1 1.400(4) 2_666 ? 
C2' C6' 1.407(4) . ? 
C2' C3' 1.471(8) . ? 
F1' C3' 1.397(8) . ? 
C3' C4' 1.36(2) . ? 
C4' C7' 1.44(2) . ? 
C4' S5' 1.72(3) . ? 
S5' C6' 1.716(3) . ? 
C6' C1 1.400(4) 2_666 ? 
C7 C18 1.342(12) . ? 
C7 S8 1.755(12) . ? 
S8 C9 1.728(7) . ? 
C9 C10 1.388(7) . ? 
C9 C17 1.419(6) . ? 
C10 C11 1.399(11) . ? 
C10 H10 0.9500 . ? 
C11 C15 1.411(7) . ? 
C11 C12 1.434(15) . ? 
C12 C13 1.326(17) . ? 
C12 H12 0.9500 . ? 
C13 S14 1.746(13) . ? 
C13 H13 0.9500 . ? 
S14 C15 1.745(13) . ? 
C15 C16 1.392(12) . ? 
C16 C17 1.392(8) . ? 
C16 H16 0.9500 . ? 
C17 C18 1.436(9) . ? 
C18 H18 0.9500 . ? 
C8' C7' 1.34(2) . ? 
C8' C9' 1.441(14) . ? 
C8' H8' 0.9500 . ? 
C9' C10' 1.396(13) . ? 
C9' C17' 1.407(11) . ? 
C10' C11' 1.391(18) . ? 
C10' H10' 0.9500 . ? 
C11' C15' 1.412(12) . ? 
C11' S12' 1.73(2) . ? 
S12' C13' 1.74(2) . ? 
C13' C14' 1.31(2) . ? 
C13' H13' 0.9500 . ? 
C14' C15' 1.44(2) . ? 
C14' H14' 0.9500 . ? 
C15' C16' 1.41(2) . ? 
C16' C17' 1.389(14) . ? 
C16' H16' 0.9500 . ? 
C17' S18' 1.742(15) . ? 
S18' C7' 1.75(2) . ? 
C19 C20 1.202(4) . ? 
C21 C22 1.533(3) . ? 
C21 H21A 0.9900 . ? 
C21 H21B 0.9900 . ? 
C22 C23 1.525(4) . ? 
C22 H22A 0.9900 . ? 
C22 H22B 0.9900 . ? 
C23 C24 1.527(4) . ? 
C23 H23A 0.9900 . ? 
C23 H23B 0.9900 . ? 
C24 H24A 0.9800 . ? 
C24 H24B 0.9800 . ? 
C24 H24C 0.9800 . ? 
C25 C26 1.533(3) . ? 
C25 H25A 0.9900 . ? 
C25 H25B 0.9900 . ? 
C26 C27 1.523(4) . ? 
C26 H26A 0.9900 . ? 
C26 H26B 0.9900 . ? 
C27 C28 1.523(4) . ? 
C27 H27A 0.9900 . ? 
C27 H27B 0.9900 . ? 
C28 H28A 0.9800 . ? 
C28 H28B 0.9800 . ? 
C28 H28C 0.9800 . ? 
C29 C30 1.531(4) . ? 
C29 H29A 0.9900 . ? 
C29 H29B 0.9900 . ? 
C30 C31 1.523(3) . ? 
C30 H30A 0.9900 . ? 
C30 H30B 0.9900 . ? 
C31 C32 1.517(4) . ? 
C31 H31A 0.9900 . ? 
C31 H31B 0.9900 . ? 
C32 H32A 0.9800 . ? 
C32 H32B 0.9800 . ? 
C32 H32C 0.9800 . ? 
 
loop_ 
 _geom_angle_atom_site_label_1 
 _geom_angle_atom_site_label_2 
 _geom_angle_atom_site_label_3 
 _geom_angle 
 _geom_angle_site_symmetry_1 
 _geom_angle_site_symmetry_3 
 _geom_angle_publ_flag 
C20 Si1 C25 112.06(12) . . ? 
C20 Si1 C29 105.28(11) . . ? 
C25 Si1 C29 108.80(11) . . ? 
C20 Si1 C21 106.57(11) . . ? 
C25 Si1 C21 111.33(12) . . ? 
C29 Si1 C21 112.67(12) . . ? 
C6 C1 C2 116.3(2) 2_666 . ? 
C6' C1 C2' 116.3(2) 2_666 . ? 
C6' C1 C19 122.7(2) 2_666 . ? 
C6 C1 C19 122.7(2) 2_666 . ? 
C2 C1 C19 120.8(2) . . ? 
C2' C1 C19 120.8(2) . . ? 
C6 C2 C1 121.5(2) . . ? 
C6 C2 S3 118.23(19) . . ? 
C1 C2 S3 120.2(2) . . ? 
C2 S3 C4 89.4(4) . . ? 
C5 C4 C7 126.0(12) . . ? 
C5 C4 S3 110.7(6) . . ? 
C7 C4 S3 123.0(11) . . ? 
F1 C5 C4 123.4(7) . . ? 
F1 C5 C6 118.4(4) . . ? 
C4 C5 C6 118.3(6) . . ? 
C1 C6 C2 122.1(2) 2_666 . ? 
C1 C6 C5 134.6(3) 2_666 . ? 
C2 C6 C5 103.2(3) . . ? 
C6' C2' C1 121.5(2) . . ? 
C6' C2' C3' 98.3(4) . . ? 
C1 C2' C3' 140.2(4) . . ? 
C4' C3' F1' 122.6(12) . . ? 
C4' C3' C2' 121.6(11) . . ? 
F1' C3' C2' 115.4(6) . . ? 
C3' C4' C7' 124(2) . . ? 
C3' C4' S5' 109.4(10) . . ? 
C7' C4' S5' 126(2) . . ? 
C6' S5' C4' 88.5(6) . . ? 
C1 C6' C2' 122.1(2) 2_666 . ? 
C1 C6' S5' 116.1(2) 2_666 . ? 
C2' C6' S5' 121.6(2) . . ? 
C18 C7 C4 125.8(11) . . ? 
C18 C7 S8 111.6(6) . . ? 
C4 C7 S8 122.3(10) . . ? 
C9 S8 C7 91.9(3) . . ? 
C10 C9 C17 122.0(8) . . ? 
C10 C9 S8 127.0(5) . . ? 
C17 C9 S8 111.0(5) . . ? 
C9 C10 C11 117.6(8) . . ? 
C9 C10 H10 121.2 . . ? 
C11 C10 H10 121.2 . . ? 
C10 C11 C15 120.5(12) . . ? 
C10 C11 C12 127.5(11) . . ? 
C15 C11 C12 112.(1) . . ? 
C13 C12 C11 113.3(10) . . ? 
C13 C12 H12 123.3 . . ? 
C11 C12 H12 123.3 . . ? 
C12 C13 S14 113.1(6) . . ? 
C12 C13 H13 123.5 . . ? 
S14 C13 H13 123.5 . . ? 
C15 S14 C13 91.0(5) . . ? 
C16 C15 C11 121.6(13) . . ? 
C16 C15 S14 127.9(11) . . ? 
C11 C15 S14 110.4(9) . . ? 
C17 C16 C15 118.1(10) . . ? 
C17 C16 H16 121.0 . . ? 
C15 C16 H16 121.0 . . ? 
C16 C17 C9 120.0(8) . . ? 
C16 C17 C18 128.7(6) . . ? 
C9 C17 C18 111.2(5) . . ? 
C7 C18 C17 114.3(6) . . ? 
C7 C18 H18 122.9 . . ? 
C17 C18 H18 122.9 . . ? 
C7' C8' C9' 113.1(11) . . ? 
C7' C8' H8' 123.4 . . ? 
C9' C8' H8' 123.4 . . ? 
C10' C9' C17' 120.5(14) . . ? 
C10' C9' C8' 127.6(12) . . ? 
C17' C9' C8' 111.9(10) . . ? 
C11' C10' C9' 117.1(16) . . ? 
C11' C10' H10' 121.4 . . ? 
C9' C10' H10' 121.4 . . ? 
C10' C11' C15' 122(2) . . ? 
C10' C11' S12' 127.9(17) . . ? 
C15' C11' S12' 109.7(16) . . ? 
C11' S12' C13' 92.0(9) . . ? 
C14' C13' S12' 112.3(10) . . ? 
C14' C13' H13' 123.8 . . ? 
S12' C13' H13' 123.8 . . ? 
C13' C14' C15' 114.0(14) . . ? 
C13' C14' H14' 123.0 . . ? 
C15' C14' H14' 123.0 . . ? 
C16' C15' C11' 120(2) . . ? 
C16' C15' C14' 128(2) . . ? 
C11' C15' C14' 111.8(17) . . ? 
C17' C16' C15' 116.5(17) . . ? 
C17' C16' H16' 121.7 . . ? 
C15' C16' H16' 121.7 . . ? 
C16' C17' C9' 122.9(15) . . ? 
C16' C17' S18' 126.1(11) . . ? 
C9' C17' S18' 111.(1) . . ? 
C17' S18' C7' 91.1(7) . . ? 
C8' C7' C4' 123(2) . . ? 
C8' C7' S18' 112.5(10) . . ? 
C4' C7' S18' 123(2) . . ? 
C20 C19 C1 175.5(3) . . ? 
C19 C20 Si1 166.2(2) . . ? 
C22 C21 Si1 114.55(18) . . ? 
C22 C21 H21A 108.6 . . ? 
Si1 C21 H21A 108.6 . . ? 
C22 C21 H21B 108.6 . . ? 
Si1 C21 H21B 108.6 . . ? 
H21A C21 H21B 107.6 . . ? 
C23 C22 C21 113.7(2) . . ? 
C23 C22 H22A 108.8 . . ? 
C21 C22 H22A 108.8 . . ? 
C23 C22 H22B 108.8 . . ? 
C21 C22 H22B 108.8 . . ? 
H22A C22 H22B 107.7 . . ? 
C22 C23 C24 112.8(2) . . ? 
C22 C23 H23A 109.0 . . ? 
C24 C23 H23A 109.0 . . ? 
C22 C23 H23B 109.0 . . ? 
C24 C23 H23B 109.0 . . ? 
H23A C23 H23B 107.8 . . ? 
C23 C24 H24A 109.5 . . ? 
C23 C24 H24B 109.5 . . ? 
H24A C24 H24B 109.5 . . ? 
C23 C24 H24C 109.5 . . ? 
H24A C24 H24C 109.5 . . ? 
H24B C24 H24C 109.5 . . ? 
C26 C25 Si1 112.26(18) . . ? 
C26 C25 H25A 109.2 . . ? 
Si1 C25 H25A 109.2 . . ? 
C26 C25 H25B 109.2 . . ? 
Si1 C25 H25B 109.2 . . ? 
H25A C25 H25B 107.9 . . ? 
C27 C26 C25 112.4(2) . . ? 
C27 C26 H26A 109.1 . . ? 
C25 C26 H26A 109.1 . . ? 
C27 C26 H26B 109.1 . . ? 
C25 C26 H26B 109.1 . . ? 
H26A C26 H26B 107.9 . . ? 
C28 C27 C26 113.4(2) . . ? 
C28 C27 H27A 108.9 . . ? 
C26 C27 H27A 108.9 . . ? 
C28 C27 H27B 108.9 . . ? 
C26 C27 H27B 108.9 . . ? 
H27A C27 H27B 107.7 . . ? 
C27 C28 H28A 109.5 . . ? 
C27 C28 H28B 109.5 . . ? 
H28A C28 H28B 109.5 . . ? 
C27 C28 H28C 109.5 . . ? 
H28A C28 H28C 109.5 . . ? 
H28B C28 H28C 109.5 . . ? 
C30 C29 Si1 113.74(18) . . ? 
C30 C29 H29A 108.8 . . ? 
Si1 C29 H29A 108.8 . . ? 
C30 C29 H29B 108.8 . . ? 
Si1 C29 H29B 108.8 . . ? 
H29A C29 H29B 107.7 . . ? 
C31 C30 C29 113.0(2) . . ? 
C31 C30 H30A 109.0 . . ? 
C29 C30 H30A 109.0 . . ? 
C31 C30 H30B 109.0 . . ? 
C29 C30 H30B 109.0 . . ? 
H30A C30 H30B 107.8 . . ? 
C32 C31 C30 113.2(2) . . ? 
C32 C31 H31A 108.9 . . ? 
C30 C31 H31A 108.9 . . ? 
C32 C31 H31B 108.9 . . ? 
C30 C31 H31B 108.9 . . ? 
H31A C31 H31B 107.8 . . ? 
C31 C32 H32A 109.5 . . ? 
C31 C32 H32B 109.5 . . ? 
H32A C32 H32B 109.5 . . ? 
C31 C32 H32C 109.5 . . ? 
H32A C32 H32C 109.5 . . ? 
H32B C32 H32C 109.5 . . ? 
 
loop_ 
 _geom_torsion_atom_site_label_1 
 _geom_torsion_atom_site_label_2 
 _geom_torsion_atom_site_label_3 
 _geom_torsion_atom_site_label_4 
 _geom_torsion 
 _geom_torsion_site_symmetry_1 
 _geom_torsion_site_symmetry_2 
 _geom_torsion_site_symmetry_3 
 _geom_torsion_site_symmetry_4 
 _geom_torsion_publ_flag 
C6 C1 C2 C6 0.0(4) 2_666 . . . ? 
C19 C1 C2 C6 -175.5(2) . . . . ? 
C6 C1 C2 S3 -178.54(19) 2_666 . . . ? 
C19 C1 C2 S3 6.0(4) . . . . ? 
C6 C2 S3 C4 1.9(15) . . . . ? 
C1 C2 S3 C4 -179.6(15) . . . . ? 
C2 S3 C4 C5 -3(2) . . . . ? 
C2 S3 C4 C7 -178(3) . . . . ? 
C7 C4 C5 F1 -3(5) . . . . ? 
S3 C4 C5 F1 -178.0(11) . . . . ? 
C7 C4 C5 C6 178(3) . . . . ? 
S3 C4 C5 C6 3(3) . . . . ? 
C1 C2 C6 C1 0.0(4) . . . 2_666 ? 
S3 C2 C6 C1 178.6(2) . . . 2_666 ? 
C1 C2 C6 C5 -179.0(3) . . . . ? 
S3 C2 C6 C5 -0.5(4) . . . . ? 
F1 C5 C6 C1 0.5(8) . . . 2_666 ? 
C4 C5 C6 C1 179(2) . . . 2_666 ? 
F1 C5 C6 C2 179.4(4) . . . . ? 
C4 C5 C6 C2 -2(2) . . . . ? 
C6' C1 C2' C6' 0.0(4) 2_666 . . . ? 
C19 C1 C2' C6' -175.5(2) . . . . ? 
C6' C1 C2' C3' 178.1(6) 2_666 . . . ? 
C19 C1 C2' C3' 2.7(8) . . . . ? 
C6' C2' C3' C4' -4(4) . . . . ? 
C1 C2' C3' C4' 178(4) . . . . ? 
C6' C2' C3' F1' -177.3(6) . . . . ? 
C1 C2' C3' F1' 4.3(12) . . . . ? 
F1' C3' C4' C7' -11(9) . . . . ? 
C2' C3' C4' C7' 177(5) . . . . ? 
F1' C3' C4' S5' -179(2) . . . . ? 
C2' C3' C4' S5' 8(6) . . . . ? 
C3' C4' S5' C6' -7(5) . . . . ? 
C7' C4' S5' C6' -175(6) . . . . ? 
C1 C2' C6' C1 0.0(4) . . . 2_666 ? 
C3' C2' C6' C1 -178.8(4) . . . 2_666 ? 
C1 C2' C6' S5' 176.3(2) . . . . ? 
C3' C2' C6' S5' -2.5(5) . . . . ? 
C4' S5' C6' C1 -177(3) . . . 2_666 ? 
C4' S5' C6' C2' 6(3) . . . . ? 
C5 C4 C7 C18 -179(3) . . . . ? 
S3 C4 C7 C18 -5(5) . . . . ? 
C5 C4 C7 S8 8(5) . . . . ? 
S3 C4 C7 S8 -178(2) . . . . ? 
C18 C7 S8 C9 1.9(16) . . . . ? 
C4 C7 S8 C9 176(3) . . . . ? 
C7 S8 C9 C10 -179.4(12) . . . . ? 
C7 S8 C9 C17 -0.6(11) . . . . ? 
C17 C9 C10 C11 0.9(18) . . . . ? 
S8 C9 C10 C11 179.5(12) . . . . ? 
C9 C10 C11 C15 2(3) . . . . ? 
C9 C10 C11 C12 -179.0(17) . . . . ? 
C10 C11 C12 C13 177.1(19) . . . . ? 
C15 C11 C12 C13 -4(3) . . . . ? 
C11 C12 C13 S14 5(2) . . . . ? 
C12 C13 S14 C15 -4(2) . . . . ? 
C10 C11 C15 C16 -4(4) . . . . ? 
C12 C11 C15 C16 176(3) . . . . ? 
C10 C11 C15 S14 179.9(18) . . . . ? 
C12 C11 C15 S14 0(3) . . . . ? 
C13 S14 C15 C16 -173(3) . . . . ? 
C13 S14 C15 C11 2(3) . . . . ? 
C11 C15 C16 C17 5(4) . . . . ? 
S14 C15 C16 C17 179(2) . . . . ? 
C15 C16 C17 C9 -2(2) . . . . ? 
C15 C16 C17 C18 179(2) . . . . ? 
C10 C9 C17 C16 -0.6(16) . . . . ? 
S8 C9 C17 C16 -179.4(10) . . . . ? 
C10 C9 C17 C18 178.1(9) . . . . ? 
S8 C9 C17 C18 -0.8(11) . . . . ? 
C4 C7 C18 C17 -177(3) . . . . ? 
S8 C7 C18 C17 -2.7(19) . . . . ? 
C16 C17 C18 C7 -179.2(16) . . . . ? 
C9 C17 C18 C7 2.3(16) . . . . ? 
C7' C8' C9' C10' -175(3) . . . . ? 
C7' C8' C9' C17' 4(3) . . . . ? 
C17' C9' C10' C11' 1(3) . . . . ? 
C8' C9' C10' C11' -180(3) . . . . ? 
C9' C10' C11' C15' -2(6) . . . . ? 
C9' C10' C11' S12' -179(3) . . . . ? 
C10' C11' S12' C13' -179(4) . . . . ? 
C15' C11' S12' C13' 4(4) . . . . ? 
C11' S12' C13' C14' -4(3) . . . . ? 
S12' C13' C14' C15' 3(5) . . . . ? 
C10' C11' C15' C16' 5(8) . . . . ? 
S12' C11' C15' C16' -178(5) . . . . ? 
C10' C11' C15' C14' 180(4) . . . . ? 
S12' C11' C15' C14' -3(6) . . . . ? 
C13' C14' C15' C16' 174(6) . . . . ? 
C13' C14' C15' C11' 0(7) . . . . ? 
C11' C15' C16' C17' -6(7) . . . . ? 
C14' C15' C16' C17' -180(5) . . . . ? 
C15' C16' C17' C9' 5(5) . . . . ? 
C15' C16' C17' S18' -177(4) . . . . ? 
C10' C9' C17' C16' -2(3) . . . . ? 
C8' C9' C17' C16' 178(2) . . . . ? 
C10' C9' C17' S18' 179.4(17) . . . . ? 
C8' C9' C17' S18' 0(2) . . . . ? 
C16' C17' S18' C7' 179(3) . . . . ? 
C9' C17' S18' C7' -3(2) . . . . ? 
C9' C8' C7' C4' -174(5) . . . . ? 
C9' C8' C7' S18' -6(4) . . . . ? 
C3' C4' C7' C8' -175(5) . . . . ? 
S5' C4' C7' C8' -9(9) . . . . ? 
C3' C4' C7' S18' 19(10) . . . . ? 
S5' C4' C7' S18' -175(4) . . . . ? 
C17' S18' C7' C8' 5(3) . . . . ? 
C17' S18' C7' C4' 173(5) . . . . ? 
C25 Si1 C20 C19 -171.1(10) . . . . ? 
C29 Si1 C20 C19 -53.(1) . . . . ? 
C21 Si1 C20 C19 66.8(10) . . . . ? 
C20 Si1 C21 C22 51.1(2) . . . . ? 
C25 Si1 C21 C22 -71.4(2) . . . . ? 
C29 Si1 C21 C22 166.03(18) . . . . ? 
Si1 C21 C22 C23 -179.73(19) . . . . ? 
C21 C22 C23 C24 180.0(2) . . . . ? 
C20 Si1 C25 C26 172.60(16) . . . . ? 
C29 Si1 C25 C26 56.6(2) . . . . ? 
C21 Si1 C25 C26 -68.15(19) . . . . ? 
Si1 C25 C26 C27 -169.62(17) . . . . ? 
C25 C26 C27 C28 -173.4(2) . . . . ? 
C20 Si1 C29 C30 -65.7(2) . . . . ? 
C25 Si1 C29 C30 54.6(2) . . . . ? 
C21 Si1 C29 C30 178.57(18) . . . . ? 
Si1 C29 C30 C31 176.58(19) . . . . ? 
C29 C30 C31 C32 -177.0(2) . . . . ? 
 
_refine_diff_density_max    0.420 
_refine_diff_density_min   -0.561 
_refine_diff_density_rms    0.071 
 
_shelx_res_file 
; 
 
    x16035.res created by SHELXL-2014/7 
 
 
TITL x16035 : space group P1bar 
CELL  1.54178   8.2718  10.5045  16.6383   80.085   79.992   71.713 
ZERR    1.000   0.0001   0.0002   0.0003    0.001    0.001    0.001 
LATT  1 
SFAC C H F SI S 
UNIT 58 64 2 2 6 
TEMP -183 
SIZE 0.35 0.04 0.02 
REM FORM needle 
REM COLR yellow 
L.S. 10 
BOND $H 
CONF 
HTAB 
ACTA 
LIST 4 
FMAP 2 
PLAN 5 
REM EXTI    0.000000 not needed. 
WGHT    0.074500    0.300900 
FVAR       0.42073   0.64859 
SI1   4    0.549572    0.366680    0.167790    11.00000    0.01810    0.02176 = 
         0.01569   -0.00231   -0.00496   -0.00906 
C1    1    0.537536    0.449298    0.421378    11.00000    0.01429    0.02250 = 
         0.01642   -0.00241   -0.00609   -0.00271 
EXYZ C2 C2' 
EXYZ C6 C6' 
EADP C2 C2' 
EADP S3 C3' 
EADP C4 C4' 
EADP C5 S5' 
EADP F1 F1' 
EADP C6 C6' 
SAME 0.020 C6' < C2' 
RIGU C2 > C6 
RIGU C2' > C6' 
PART 1 
C2    1    0.399304    0.429600    0.479734    21.00000    0.01738    0.02018 = 
         0.02110    0.00205   -0.00956   -0.00896 
S3    5    0.272200    0.339843    0.459515    21.00000    0.01510    0.02743 = 
         0.01781   -0.00231   -0.00237   -0.01220 
C4    1    0.150355    0.366476    0.554185    21.00000    0.01347    0.02338 = 
         0.01625    0.00099   -0.00421   -0.00899 
C5    1    0.215978    0.434987    0.596445    21.00000    0.01397    0.02481 = 
         0.00917   -0.00271   -0.00028   -0.01146 
F1    3    0.149977    0.465603    0.672202    21.00000    0.02416    0.03553 = 
         0.01888   -0.00996   -0.00095   -0.01847 
C6    1    0.363547    0.479244    0.556207    21.00000    0.01114    0.02444 = 
         0.01810    0.00256   -0.00452   -0.00492 
PART 2 
C2'   1    0.399304    0.429600    0.479734   -21.00000    0.01738    0.02018 = 
         0.02110    0.00205   -0.00956   -0.00896 
F1'   3    0.254395    0.302165    0.424732   -21.00000    0.02416    0.03553 = 
         0.01888   -0.00996   -0.00095   -0.01847 
C3'   1    0.257642    0.369370    0.489658   -21.00000    0.01510    0.02743 = 
         0.01781   -0.00231   -0.00237   -0.01220 
C4'   1    0.149456    0.367485    0.560833   -21.00000    0.01347    0.02338 = 
         0.01625    0.00099   -0.00421   -0.00899 
S5'   5    0.188448    0.463623    0.625054   -21.00000    0.01397    0.02481 = 
         0.00917   -0.00271   -0.00028   -0.01146 
C6'   1    0.363547    0.479244    0.556207   -21.00000    0.01114    0.02444 = 
         0.01810    0.00256   -0.00452   -0.00492 
PART 0 
EADP C7 C7' 
EADP S8 C8' 
EADP C9 C9' 
EADP C10 C10' 
EADP C11 C11' 
EADP C12 S12' 
EADP C13 C13' 
EADP S14 C14' 
EADP C15 C15' 
EADP C16 C16' 
EADP C17 C17' 
EADP C18 S18' 
SAME 0.020 C7' < C8' 
RIGU C7 > C18 
RIGU C8' > C7' 
PART 1 
C7    1    0.006141    0.310621    0.585374    21.00000    0.01244    0.02162 = 
         0.01426    0.00320   -0.00662   -0.00708 
S8    5   -0.120267    0.343327    0.680061    21.00000    0.01474    0.02776 = 
         0.01720   -0.00682    0.00141   -0.01335 
C9    1   -0.255682    0.256392    0.664211    21.00000    0.01551    0.02001 = 
         0.01275    0.00078   -0.00214   -0.00861 
C10   1   -0.399096    0.237964    0.716406    21.00000    0.01428    0.02174 = 
         0.01841   -0.00122    0.00209   -0.00870 
AFIX  43 
H10   2   -0.432901    0.273881    0.767419    21.00000   -1.20000 
AFIX   0 
C11   1   -0.492062    0.164572    0.691161    21.00000    0.01319    0.01985 = 
         0.02454    0.00447   -0.00464   -0.00864 
C12   1   -0.644588    0.134486    0.733819    21.00000    0.01748    0.03254 = 
         0.03874    0.00556    0.00218   -0.01454 
AFIX  43 
H12   2   -0.695588    0.159769    0.786655    21.00000   -1.20000 
AFIX   0 
C13   1   -0.707358    0.067886    0.692203    21.00000    0.01163    0.02476 = 
         0.03370    0.00684   -0.00509   -0.00976 
AFIX  43 
H13   2   -0.812420    0.046699    0.710220    21.00000   -1.20000 
AFIX   0 
S14   5   -0.577173    0.023130    0.600923    21.00000    0.02063    0.03160 = 
         0.02780   -0.00283   -0.00452   -0.01863 
C15   1   -0.437612    0.108981    0.616178    21.00000    0.01474    0.02851 = 
         0.02598    0.00265   -0.00559   -0.01142 
C16   1   -0.298044    0.132695    0.562458    21.00000    0.01747    0.02455 = 
         0.02023   -0.00459   -0.00309   -0.01304 
AFIX  43 
H16   2   -0.267563    0.100388    0.510335    21.00000   -1.20000 
AFIX   0 
C17   1   -0.204475    0.205083    0.587309    21.00000    0.01152    0.02243 = 
         0.01708   -0.00191   -0.00351   -0.00859 
C18   1   -0.056185    0.241379    0.543978    21.00000    0.01719    0.03264 = 
         0.02301   -0.00527   -0.00275   -0.01614 
AFIX  43 
H18   2   -0.006431    0.218339    0.490554    21.00000   -1.20000 
AFIX   0 
PART 2 
C8'   1   -0.108072    0.323961    0.641739   -21.00000    0.01474    0.02776 = 
         0.01720   -0.00682    0.00141   -0.01335 
AFIX  43 
H8'   2   -0.104939    0.370669    0.685256   -21.00000   -1.20000 
AFIX   0 
C9'   1   -0.233278    0.253972    0.643280   -21.00000    0.01551    0.02001 = 
         0.01275    0.00078   -0.00214   -0.00861 
C10'  1   -0.373311    0.249912    0.703093   -21.00000    0.01428    0.02174 = 
         0.01841   -0.00122    0.00209   -0.00870 
AFIX  43 
H10'  2   -0.396762    0.296440    0.749915   -21.00000   -1.20000 
AFIX   0 
C11'  1   -0.476972    0.174830    0.691176   -21.00000    0.01319    0.01985 = 
         0.02454    0.00447   -0.00464   -0.00864 
S12'  5   -0.660565    0.153319    0.752991   -21.00000    0.01748    0.03254 = 
         0.03874    0.00556    0.00218   -0.01454 
C13'  1   -0.685157    0.046807    0.689250   -21.00000    0.01163    0.02476 = 
         0.03370    0.00684   -0.00509   -0.00976 
AFIX  43 
H13'  2   -0.771161    0.001530    0.700994   -21.00000   -1.20000 
AFIX   0 
C14'  1   -0.571318    0.036363    0.623239   -21.00000    0.02063    0.03160 = 
         0.02780   -0.00283   -0.00452   -0.01863 
AFIX  43 
H14'  2   -0.570582   -0.013947    0.580816   -21.00000   -1.20000 
AFIX   0 
C15'  1   -0.447413    0.108117    0.620867   -21.00000    0.01474    0.02851 = 
         0.02598    0.00265   -0.00559   -0.01142 
C16'  1   -0.302090    0.107495    0.562381   -21.00000    0.01747    0.02455 = 
         0.02023   -0.00459   -0.00309   -0.01304 
AFIX  43 
H16'  2   -0.274090    0.056514    0.517324   -21.00000   -1.20000 
AFIX   0 
C17'  1   -0.201807    0.185315    0.574004   -21.00000    0.01152    0.02243 = 
         0.01708   -0.00191   -0.00351   -0.00859 
S18'  5   -0.021113    0.208342    0.509071   -21.00000    0.01719    0.03264 = 
         0.02301   -0.00527   -0.00275   -0.01614 
C7'   1    0.003828    0.316434    0.572470   -21.00000    0.01244    0.02162 = 
         0.01426    0.00320   -0.00662   -0.00708 
PART 0 
C19   1    0.564804    0.406686    0.341751    11.00000    0.01868    0.02669 = 
         0.02160   -0.00235   -0.00626   -0.00582 
C20   1    0.576755    0.376692    0.273953    11.00000    0.01761    0.02449 = 
         0.02180   -0.00434   -0.00272   -0.00991 
C21   1    0.597230    0.518166    0.102818    11.00000    0.02269    0.02374 = 
         0.01892   -0.00240   -0.00541   -0.01027 
AFIX  23 
H21A  2    0.598694    0.509757    0.044320    11.00000   -1.20000 
H21B  2    0.502969    0.599750    0.116466    11.00000   -1.20000 
AFIX   0 
C22   1    0.767727    0.538437    0.113203    11.00000    0.02341    0.02406 = 
         0.02212   -0.00183   -0.00702   -0.00904 
AFIX  23 
H22A  2    0.766757    0.546748    0.171670    11.00000   -1.20000 
H22B  2    0.862380    0.457307    0.099166    11.00000   -1.20000 
AFIX   0 
C23   1    0.803479    0.662601    0.060073    11.00000    0.02400    0.02210 = 
         0.02764    0.00001   -0.00753   -0.00969 
AFIX  23 
H23A  2    0.709174    0.743953    0.074074    11.00000   -1.20000 
H23B  2    0.804948    0.654434    0.001537    11.00000   -1.20000 
AFIX   0 
C24   1    0.973819    0.680953    0.071378    11.00000    0.02675    0.02703 = 
         0.03741   -0.00094   -0.00602   -0.01096 
AFIX 137 
H24A  2    0.971920    0.691869    0.128887    11.00000   -1.50000 
H24B  2    0.990851    0.761448    0.035675    11.00000   -1.50000 
H24C  2    1.067980    0.601316    0.056825    11.00000   -1.50000 
AFIX   0 
C25   1    0.692507    0.206365    0.129769    11.00000    0.01598    0.02325 = 
         0.01941    0.00052   -0.00485   -0.01035 
AFIX  23 
H25A  2    0.813612    0.206041    0.124980    11.00000   -1.20000 
H25B  2    0.677560    0.128801    0.170369    11.00000   -1.20000 
AFIX   0 
C26   1    0.654149    0.189015    0.046075    11.00000    0.01640    0.02455 = 
         0.02174   -0.00427   -0.00397   -0.00751 
AFIX  23 
H26A  2    0.528891    0.206238    0.047998    11.00000   -1.20000 
H26B  2    0.689477    0.256819    0.003460    11.00000   -1.20000 
AFIX   0 
C27   1    0.746728    0.048209    0.022051    11.00000    0.02136    0.02581 = 
         0.02919   -0.00778   -0.00117   -0.00734 
AFIX  23 
H27A  2    0.870328    0.026954    0.026796    11.00000   -1.20000 
H27B  2    0.701306   -0.018458    0.061280    11.00000   -1.20000 
AFIX   0 
C28   1    0.727332    0.033338   -0.064959    11.00000    0.03901    0.03873 = 
         0.03674   -0.01889   -0.00397   -0.00638 
AFIX 137 
H28A  2    0.605329    0.053464   -0.070107    11.00000   -1.50000 
H28B  2    0.787865   -0.059425   -0.076331    11.00000   -1.50000 
H28C  2    0.776322    0.096408   -0.104418    11.00000   -1.50000 
AFIX   0 
C29   1    0.321089    0.369364    0.172605    11.00000    0.01863    0.02455 = 
         0.02162   -0.00621   -0.00628   -0.00517 
AFIX  23 
H29A  2    0.245549    0.451175    0.196413    11.00000   -1.20000 
H29B  2    0.294841    0.375970    0.115938    11.00000   -1.20000 
AFIX   0 
C30   1    0.279751    0.244923    0.223615    11.00000    0.01650    0.02899 = 
         0.02569   -0.00144   -0.00808   -0.00744 
AFIX  23 
H30A  2    0.349840    0.163473    0.197879    11.00000   -1.20000 
H30B  2    0.312225    0.235024    0.279392    11.00000   -1.20000 
AFIX   0 
C31   1    0.090898    0.252748    0.231071    11.00000    0.01781    0.02923 = 
         0.04094   -0.00559   -0.00654   -0.00930 
AFIX  23 
H31A  2    0.020545    0.336769    0.254031    11.00000   -1.20000 
H31B  2    0.060043    0.257788    0.175482    11.00000   -1.20000 
AFIX   0 
C32   1    0.047624    0.133027    0.285219    11.00000    0.02039    0.03698 = 
         0.05101   -0.00185   -0.00592   -0.01363 
AFIX 137 
H32A  2    0.108638    0.050287    0.260157    11.00000   -1.50000 
H32B  2   -0.076368    0.146638    0.290822    11.00000   -1.50000 
H32C  2    0.082648    0.124821    0.339657    11.00000   -1.50000 
 
AFIX   0 
HKLF 4 
 
REM  x16035 : space group P1bar 
REM R1 =  0.0517 for    3602 Fo > 4sig(Fo)  and  0.0737 for all    4780 data 
REM    359 parameters refined using    329 restraints 
 
END 
 
WGHT      0.0745      0.3009 
 
REM No hydrogen bonds found for HTAB generation 
 
REM Highest difference peak  0.420,  deepest hole -0.561,  1-sigma level  0.071 
Q1    1   0.6025  0.4410  0.1403  11.00000  0.05    0.40 
Q2    1   0.6373  0.2791  0.1499  11.00000  0.05    0.39 
Q3    1   0.5883  0.3805  0.2224  11.00000  0.05    0.38 
Q4    1   0.0770  0.3391  0.5683  11.00000  0.05    0.35 
Q5    1  -0.6661  0.0546  0.6442  11.00000  0.05    0.33 
; 
_shelx_res_checksum   82407 
 
_shelx_hkl_file
;
  -1   0   0 751.868 43.5629   1
  -1   0   0 757.495 43.5907   1
   1   0   0 646.582 47.7411   4
   1   0   0 722.615 49.4402   5
   1   0   0 693.205 50.7012   6
   1   0   0 674.208 51.6141   7
   1   0   0 673.135 52.3746   3
   1   0   0 745.271 43.5495   1
   1   0   0 734.225 43.5631   1
   1   0   0 710.610 48.1461   2
   1   0   0 731.994 48.1737   2
   1   0   0 716.067 52.3907   3
  -2   0   0 138.509 8.61475   1
  -2   0   0 138.041 8.63828   1
   2   0   0 130.595 11.5128   6
   2   0   0 132.177 9.56173   2
   2   0   0 120.539 11.3981   7
   2   0   0 136.330 10.9220   5
   2   0   0 135.801 8.58557   1
   2   0   0 131.304 10.2139   3
   2   0   0 120.851 9.93969   4
  -3   0   0 56.0005 4.33531   1
  -3   0   0 60.2915 4.37293   1
   3   0   0 74.8499 8.14356   7
   3   0   0 66.5278 4.93183   2
   3   0   0 70.2638 5.20113   3
   3   0   0 60.6548 6.35229   4
   3   0   0 51.0333 6.89733   5
   3   0   0 64.9955 4.87958   2
   3   0   0 60.8666 4.29293   1
   3   0   0 65.3329 5.17699   3
   3   0   0 65.6796 4.37437   1
   3   0   0 66.4969 7.85198   6
   4   0   0 53.8447 6.49268   4
   4   0   0 58.1420 9.58439   7
   4   0   0 60.0478 9.40948   6
   5   0   0 7.81592 6.40182   7
   5   0   0 3.22919 2.86223  15
   5   0   0 6.46237 3.14993  16
   5   0   0 5.87737 6.05922   6
   5   0   0 6.08332 0.95125  10
   5   0   0 4.36910 2.56039  14
   5   0   0 6.72943 3.06877  17
   6   0   0 38.5994 6.49925  17
   6   0   0 40.9750 5.99886  18
   6   0   0 51.6618 5.61239  14
   6   0   0 39.1847 5.85188  15
   6   0   0 44.2281 6.01136  16
   6   0   0 36.2106 11.8718   7
   7   0   0 152.652 15.2323  17
   7   0   0 183.422 15.7377  15
   7   0   0 160.808 15.5439  16
   7   0   0 164.844 14.7435  18
   7   0   0 172.587 23.7863   7
   8   0   0 16.8214 3.78324  15
   8   0   0 11.7655 3.79059  17
   8   0   0 6.54118 3.70887  18
   8   0   0 9.43295 3.51033  16
   9   0   0 23.2241 4.92479  17
   9   0   0 21.5988 3.93919  16
   9  -1   0 9.56124 3.06056  17
   9  -1   0 6.56482 2.90075  16
   8  -1   0 0.34448 4.47578  17
   8  -1   0 5.00003 4.06762  16
   7  -1   0 8.74593 4.58141  17
   7  -1   0 10.3032 3.74957  16
   7  -1   0 10.4458 3.88482  18
   7  -1   0 9.64955 4.32005  15
   6  -1   0 36.2609 10.7123   7
   6  -1   0 26.3890 5.52665  16
   6  -1   0 40.6690 5.10290  14
   6  -1   0 30.4380 2.72290  10
   6  -1   0 34.7509 5.50314  15
   6  -1   0 33.9601 5.46557  18
   6  -1   0 37.2634 5.69439  17
   5  -1   0 106.564 9.88298  16
   5  -1   0 122.031 16.8498   7
   5  -1   0 86.9224 9.52724  18
   5  -1   0 116.330 9.80820  14
   5  -1   0 114.196 14.3514   6
   5  -1   0 101.691 9.62370  17
   5  -1   0 123.891 10.5759  15
   5  -1   0 83.4184 9.44213  13
   5  -1   0 105.960 7.07756  10
   4  -1   0 284.018 22.2901   3
   4  -1   0 274.936 20.7105   2
   4  -1   0 287.358 25.8387   7
   4  -1   0 292.088 22.2986   3
   4  -1   0 301.551 20.7416   2
   4  -1   0 307.686 26.1832   6
   3  -1   0 1.89699 3.44216   7
   3  -1   0 0.07131 1.23319   1
   3  -1   0 0.82844 1.69738   2
   3  -1   0 2.45829 1.57648   3
   3  -1   0 3.66386 1.99902   3
   3  -1   0 1.07702 4.14961   6
   3  -1   0 0.78528 1.88602   2
   3  -1   0 1.23241 1.25736   1
   3  -1   0 0.12570 1.75464   4
  -3   1   0 -1.0088 1.30155   1
  -3   1   0 2.35124 1.85750   1
   2  -1   0 21.1936 4.99008   7
   2  -1   0 24.9739 2.81815   4
   2  -1   0 25.9593 4.00837   2
   2  -1   0 28.8005 5.46275   6
   2  -1   0 21.8488 3.37586   3
   2  -1   0 19.7183 3.13428   1
  -2   1   0 20.9530 3.08195   1
  -2   1   0 21.3749 3.33337   1
   1  -1   0 3.61549 1.69897   3
   1  -1   0 5.93063 2.16785   2
   1  -1   0 6.75566 2.89006   7
   1  -1   0 3.26408 1.44807   1
   1  -1   0 6.42805 1.75525   1
   1  -1   0 3.31584 1.65113   2
   1  -1   0 5.17262 1.85716   3
   1  -1   0 2.53431 2.83540   6
  -1   1   0 4.33264 1.64106   1
  -1   1   0 0.79790 1.67150   3
  -1   1   0 3.50450 1.59012   1
   0  -1   0 680.552 40.6722   1
   0  -1   0 661.930 48.8081   3
   0  -1   0 622.873 44.9578   2
   0  -1   0 663.866 40.5914   1
   0   1   0 617.354 44.8400   2
   0   1   0 689.649 40.5975   1
   0   1   0 687.717 40.6807   1
   0   1   0 647.167 48.8144   3
  -1  -1   0 51.2035 3.62141   1
  -1  -1   0 51.1617 3.54325   1
   1   1   0 44.9150 4.03711   2
   1   1   0 48.5604 4.88262   7
   1   1   0 48.0879 4.21497   3
   1   1   0 53.3951 3.62325   1
   1   1   0 47.8736 4.33453   4
   1   1   0 52.6749 4.60107   5
  -2  -1   0 190.566 11.2270   1
  -2  -1   0 190.361 11.2443   1
   2   1   0 180.402 13.4646   3
   2   1   0 180.380 14.0868   5
   2   1   0 175.781 14.3949   6
   2   1   0 166.324 13.7444   4
   2   1   0 175.776 12.3980   2
   2   1   0 177.361 11.2148   1
   2   1   0 176.798 14.9245   7
   2   1   0 182.091 13.4691   3
   2   1   0 182.706 11.2096   1
   2   1   0 188.436 12.4345   2
   3   1   0 1487.52 104.549   5
   3   1   0 1495.90 107.075   6
   3   1   0 1536.91 101.609   4
   3   1   0 1482.56 109.306   7
   4   1   0 87.9398 9.65893   6
   4   1   0 85.3422 8.44303   4
   4   1   0 72.7772 8.68864   5
   4   1   0 82.3101 9.91204   7
   5   1   0 -2.1470 5.15113   7
   5   1   0 6.94839 2.59644  16
   5   1   0 3.34875 4.00360   4
   5   1   0 6.28009 5.47510   6
   6   1   0 43.5818 6.45907  15
   6   1   0 41.2466 5.46754  17
   6   1   0 34.8067 9.48883   7
   6   1   0 32.6552 5.23324  11
   6   1   0 39.1999 5.78939  14
   6   1   0 41.6692 5.87423  18
   6   1   0 46.3155 5.83271  16
   7   1   0 5.50445 13.1538   7
   7   1   0 4.35983 2.93708  14
   7   1   0 -4.0556 2.07537  16
   7   1   0 -1.0656 3.34514  15
   7   1   0 -1.2752 2.35220  17
   7   1   0 2.61052 2.36729  18
   8   1   0 86.0749 9.50443  15
   8   1   0 68.6550 8.32339  17
   8   1   0 75.4984 8.71699  18
   8   1   0 84.1348 8.62490  16
   9   1   0 1.04948 2.68569  16
   9   1   0 -2.1042 2.35227  17
   8  -2   0 80.7623 9.46678  17
   8  -2   0 95.8386 9.25036  16
   7  -2   0 6.83695 4.30081  15
   7  -2   0 1.86491 4.24301  16
   7  -2   0 6.06923 3.82489  17
   6  -2   0 142.566 13.5974  17
   6  -2   0 163.898 13.6902  15
   6  -2   0 145.615 13.6641  16
   6  -2   0 108.407 11.7199  18
   6  -2   0 132.520 9.06649  10
   6  -2   0 135.919 21.8155   7
   5  -2   0 96.4580 8.36511  14
   5  -2   0 81.3366 8.72311  16
   5  -2   0 88.5787 14.8137   7
   5  -2   0 74.7251 9.20867  15
   5  -2   0 91.3452 9.48143  17
   5  -2   0 73.8416 8.49265  18
   5  -2   0 84.3129 6.32201  10
   5  -2   0 113.809 14.2044   6
   4  -2   0 174.243 14.7694   2
   4  -2   0 190.522 18.4995   6
   4  -2   0 175.818 15.4514   3
   4  -2   0 158.902 19.2059   7
   3  -2   0 166.039 16.0815   6
   3  -2   0 174.814 17.1573   7
   3  -2   0 157.657 14.5584   3
   3  -2   0 166.170 14.0342   2
   2  -2   0 59.1502 6.20331   1
   2  -2   0 39.6973 6.05231   2
   2  -2   0 79.8933 9.31583   7
   2  -2   0 63.3310 7.30468   2
   2  -2   0 61.4095 5.60694   1
   2  -2   0 58.0996 8.51194   6
   2  -2   0 46.2856 6.53851   3
   2  -2   0 61.1358 6.66245   3
  -2   2   0 61.3357 6.03987   1
  -2   2   0 58.2014 5.94586   1
   1  -2   0 2306.19 187.236   3
   1  -2   0 2599.67 172.312   2
   1  -2   0 2655.60 179.094   6
   1  -2   0 2535.98 155.785   1
  -1   2   0 2434.51 187.269   3
  -1   2   0 2522.49 172.222   2
  -1   2   0 2656.90 155.739   1
  -1   2   0 2621.58 155.876   1
   0  -2   0 41.6230 5.37587   2
   0  -2   0 50.2173 5.09944   6
   0  -2   0 48.4980 4.69861   1
   0   2   0 52.1598 5.42932   3
   0   2   0 43.5048 5.03017   2
   0   2   0 56.0297 4.79818   1
   0   2   0 55.4102 4.62390   1
   0   2   0 55.2594 4.50137   4
  -1  -2   0 3.56909 1.72185   1
  -1  -2   0 0.64681 1.75882   1
  -1  -2   0 4.92083 2.08941   3
   1   2   0 3.33687 2.00843   3
   1   2   0 0.13190 0.72673   1
   1   2   0 1.94448 1.81593   2
   1   2   0 0.32194 1.54372   3
   1   2   0 2.69514 1.62662   1
   1   2   0 2.85288 2.09987   4
  -2  -2   0 -1.7362 1.42308   1
  -2  -2   0 0.08757 1.39810   1
   2   2   0 -0.8780 1.38977   3
   2   2   0 -2.4439 1.16650   3
   2   2   0 1.30629 1.58508   2
   2   2   0 0.85819 1.28698   1
   2   2   0 -0.1525 1.77379   4
   2   2   0 -0.7492 1.92689   2
   2   2   0 -2.2291 1.43438   1
   2   2   0 -0.5279 2.29391   5
   2   2   0 1.49281 2.80857   7
   2   2   0 0.75415 1.58728   6
  -3  -2   0 2705.72 163.245   1
  -3  -2   0 2724.32 163.271   1
   3   2   0 2712.81 180.474   2
   3   2   0 2817.80 180.478   2
   3   2   0 2531.92 163.241   1
   3   2   0 2627.83 189.067   6
   3   2   0 2679.76 185.647   5
   3   2   0 2642.07 163.243   1
   3   2   0 2707.20 196.501   3
   3   2   0 2780.32 193.561   7
   3   2   0 2624.37 196.490   3
   3   2   0 2715.48 180.496   4
   4   2   0 9.16693 3.84508   6
   4   2   0 15.4897 4.13468   4
   4   2   0 10.5150 4.24302   5
   4   2   0 22.1618 5.51809   7
   5   2   0 78.1966 11.5668   7
   5   2   0 77.6781 9.98607   4
   6   2   0 2.32118 2.90172  16
   6   2   0 1.90831 2.57538  14
   6   2   0 1.31798 5.44467   4
   6   2   0 5.99320 3.09222  17
   6   2   0 4.51165 2.30235  15
   6   2   0 8.53273 7.74166   7
   6   2   0 8.30138 2.97975  11
   6   2   0 9.02294 2.54574  18
   6   2   0 5.67995 2.41983  12
   7   2   0 4.82443 2.54046  18
   7   2   0 -0.6656 2.57768  14
   7   2   0 4.72702 3.27703  15
   7   2   0 10.7188 2.96308  17
   7   2   0 5.83761 3.17343  11
   7   2   0 -1.4467 3.30655  16
   7   2   0 -10.833 7.51529   7
   8   2   0 9.24894 3.22406  17
   8   2   0 6.12108 3.05848  16
   8   2   0 7.01731 2.76476  15
   8   2   0 8.37116 3.76957  18
   8   2   0 8.61352 2.59344  11
   9   2   0 3.21515 2.77958  16
   9   2   0 4.15641 2.79630  17
   9   2   0 -1.4005 2.02140  18
   8  -3   0 19.6375 3.65986  16
   8  -3   0 9.06218 3.77131  17
   7  -3   0 183.832 17.4966  16
   7  -3   0 211.704 18.4919  17
   6  -3   0 0.29040 4.17278  16
   6  -3   0 -2.3874 4.44548  17
   6  -3   0 1.23651 1.44918  10
   6  -3   0 5.48343 3.06865  15
   5  -3   0 134.107 13.3133  16
   5  -3   0 157.821 14.4006  17
   5  -3   0 129.140 13.2297   3
   5  -3   0 163.240 24.8033   7
   5  -3   0 155.891 10.4991  10
   5  -3   0 166.200 14.0949  15
   5  -3   0 142.691 12.7620   2
   5  -3   0 145.594 9.94778   9
   4  -3   0 47.6279 10.8625   6
   4  -3   0 52.7411 9.37291   2
   4  -3   0 43.4578 6.18094  16
   4  -3   0 49.8244 10.7394   7
   4  -3   0 53.1469 4.86289  10
   4  -3   0 59.3338 6.54719  17
   4  -3   0 50.0387 7.78334   3
   4  -3   0 49.5214 6.78215  15
   4  -3   0 49.8692 4.47163   9
   3  -3   0 129.282 12.5011   2
   3  -3   0 119.856 12.1691   3
   3  -3   0 116.233 13.5133   6
   3  -3   0 111.773 13.9797   7
   2  -3   0 10.3197 3.88237   1
   2  -3   0 7.10520 3.43119   3
   2  -3   0 10.0432 5.86144   7
   2  -3   0 1.82001 2.20065   1
   2  -3   0 6.19543 3.51355   6
   2  -3   0 6.90340 4.54044   2
  -2   3   0 0.04714 2.95450   1
   1  -3   0 457.721 34.3216   6
   1  -3   0 424.542 29.7301   1
   1  -3   0 474.194 35.7469   3
   1  -3   0 423.669 29.9249   1
   1  -3   0 482.194 33.5251   2
  -1   3   0 415.627 33.0073   2
  -1   3   0 476.891 29.9779   1
  -1   3   0 469.083 30.2756   1
  -1   3   0 443.062 35.8592   3
   0  -3   0 102.587 9.20349   1
   0  -3   0 105.226 10.5283   3
   0  -3   0 109.687 10.6708   2
   0  -3   0 111.288 8.68903   1
   0  -3   0 100.065 9.35251   6
   0   3   0 107.598 10.1468   2
   0   3   0 96.0342 10.4225   3
   0   3   0 107.227 8.85954   1
   0   3   0 113.930 8.50670   4
   0   3   0 108.477 8.78893   1
  -1  -3   0 95.7618 8.28329   1
  -1  -3   0 97.4910 7.97995   1
  -1  -3   0 75.0162 9.23843   2
  -1  -3   0 88.6857 9.26442   3
   1   3   0 97.3186 7.82250   1
   1   3   0 97.4046 8.88692   2
   1   3   0 99.0860 8.10918   4
   1   3   0 97.0739 9.33560   3
   1   3   0 89.2336 7.89492   1
  -2  -3   0 1.61004 2.16472   1
  -2  -3   0 4.41393 2.05471   1
   2   3   0 -1.1642 2.28355   2
   2   3   0 -0.9894 2.93534   5
   2   3   0 3.90130 2.29302   3
   2   3   0 5.58611 2.52718   2
   2   3   0 3.56262 2.53844   3
   2   3   0 -0.4188 2.83159   4
   2   3   0 3.31609 1.97991   1
   2   3   0 0.00761 1.85590   1
  -3  -3   0 2.51958 1.51220   1
  -3  -3   0 2.15295 1.87277   1
   3   3   0 4.43791 2.19089   2
   3   3   0 4.11685 1.73297   1
   3   3   0 3.07391 1.74081   3
   3   3   0 0.45393 3.24472   5
   3   3   0 4.11216 2.13769   2
   3   3   0 3.29175 1.84536   3
   3   3   0 2.69429 1.71967   1
   3   3   0 2.07122 2.97612   4
   4   3   0 29.9340 6.42870   7
   4   3   0 26.2196 5.37257   4
   4   3   0 33.6992 6.34462   5
   5   3   0 40.7273 5.21919  11
   5   3   0 34.8800 7.86989   5
   5   3   0 43.6543 5.34872  18
   5   3   0 45.0861 4.94383  17
   5   3   0 46.5899 7.97306   7
   5   3   0 56.4842 8.80234   4
   6   3   0 924.990 66.9600  17
   6   3   0 792.197 67.5798  13
   6   3   0 856.284 68.2070  15
   6   3   0 881.647 67.0564  12
   6   3   0 853.093 65.0168   4
   6   3   0 934.444 67.2493  16
   6   3   0 940.814 67.3446  18
   6   3   0 956.884 63.3760  11
   7   3   0 342.780 25.6957  11
   7   3   0 313.374 26.8796  12
   7   3   0 333.699 27.0873  18
   7   3   0 331.869 27.2958  15
   7   3   0 350.765 27.0992  16
   7   3   0 377.768 27.3186  17
   8   3   0 -1.2942 2.97353  11
   8   3   0 2.05865 3.18567  18
   8   3   0 -0.8580 2.35648  17
   8   3   0 7.48127 2.90864  16
   9   3   0 25.5757 4.34902  17
   9   3   0 14.7998 3.14797  18
   7  -4   0 6.84498 3.13357  16
   7  -4   0 2.49612 5.23012  17
   6  -4   0 15.4641 2.63415  10
   6  -4   0 17.9748 5.13574  17
   6  -4   0 19.7428 5.38531  16
   6  -4   0 30.2576 5.42442  15
   5  -4   0 193.622 13.1543  10
   5  -4   0 138.635 17.0816   2
   5  -4   0 189.291 12.7897   9
   5  -4   0 197.963 16.9110  15
   5  -4   0 201.009 17.7735  17
   5  -4   0 181.881 30.6462   7
   5  -4   0 180.317 16.2906  16
   4  -4   0 6.89285 5.89745   2
   4  -4   0 12.2594 2.71260  10
   4  -4   0 12.7741 3.36847  15
   4  -4   0 14.6867 5.71469   3
   4  -4   0 6.74236 3.87099  16
   4  -4   0 14.0061 3.84869  17
   4  -4   0 13.8624 8.45527   7
   4  -4   0 11.6252 2.37445   9
   3  -4   0 13.8219 5.17332   3
   3  -4   0 11.8933 2.52615  10
   3  -4   0 7.64025 1.67825   8
   3  -4   0 8.93377 2.39015   9
   3  -4   0 4.77443 7.71297   7
   3  -4   0 8.87229 5.84706   2
   3  -4   0 -2.4235 5.89161   6
   2  -4   0 148.013 16.3451   2
   2  -4   0 156.318 16.0421   6
   2  -4   0 172.176 16.5568   3
   2  -4   0 189.430 18.0312   7
   1  -4   0 35.9452 7.12688   3
   1  -4   0 40.7500 7.71395   2
   1  -4   0 51.4003 7.37060   1
   1  -4   0 39.7603 6.09508   1
   1  -4   0 50.0187 7.97855   6
  -1   4   0 39.1588 6.41604   1
  -1   4   0 40.3288 6.43091   1
   0  -4   0 23.9389 5.39077   3
   0  -4   0 35.6763 5.79439   1
   0  -4   0 23.2622 4.55499   6
   0  -4   0 19.2190 5.91824   2
   0  -4   0 24.8997 4.43816   1
   0   4   0 19.7799 4.61665   1
   0   4   0 24.2766 5.42574   2
   0   4   0 20.2315 5.28624   3
   0   4   0 31.2483 5.11179   1
  -1  -4   0 48.1868 7.58290   3
  -1  -4   0 49.8717 6.46611   1
  -1  -4   0 49.3524 6.09391   1
  -1  -4   0 39.6384 6.74999   2
   1   4   0 47.6061 6.30731   2
   1   4   0 65.4232 7.59579   3
   1   4   0 58.3705 6.28213   4
   1   4   0 45.1970 5.99410   1
   1   4   0 51.0230 5.57463   1
  -2  -4   0 4.54935 3.04670   1
  -2  -4   0 3.91492 2.92613   1
   2   4   0 6.04356 2.64438   1
   2   4   0 2.39353 2.88122   3
   2   4   0 4.72927 2.43109   1
   2   4   0 1.50711 3.25750   4
   2   4   0 0.59955 2.83615   2
   3   4   0 43.1669 6.60033   5
   3   4   0 39.8655 5.46059   2
   3   4   0 31.5893 4.83268   1
   3   4   0 54.8143 7.20183   4
   3   4   0 44.0060 5.71451   3
   3   4   0 31.8131 5.77156   2
   3   4   0 44.9913 5.01414   1
   4   4   0 25.4288 6.52760   5
   4   4   0 26.5022 6.22133   4
   4   4   0 16.8921 3.54643   3
   4   4   0 26.0368 3.74121   3
   4   4   0 23.2337 3.92473   2
   4   4   0 18.4865 3.50687   2
   5   4   0 -1.4588 4.42864   4
   5   4   0 0.00206 1.54914  17
   5   4   0 2.70040 0.92654  10
   5   4   0 2.79409 2.38033  18
   5   4   0 2.66810 6.07224   5
   5   4   0 2.83349 2.87807  12
   5   4   0 -1.8492 1.43229  11
   6   4   0 19.2982 3.94096  18
   6   4   0 14.7209 3.66119  11
   6   4   0 7.55819 7.08668   4
   6   4   0 14.9419 4.20278  12
   6   4   0 13.4915 3.39086  16
   6   4   0 17.9196 3.44467  17
   6   4   0 4.44757 3.63750  13
   7   4   0 156.519 13.5699  11
   7   4   0 119.054 19.2418   4
   7   4   0 167.816 14.0124  18
   7   4   0 156.558 14.7963  12
   7   4   0 156.980 14.1098  17
   7   4   0 170.860 13.9562  16
   8   4   0 5.93081 3.70264  17
   8   4   0 3.86057 3.28688  11
   8   4   0 4.48425 3.43776  18
   8   4   0 4.68781 3.94349  12
   9   4   0 28.6119 4.96472  18
   9   4   0 16.2559 3.24786  11
   7  -5   0 1.88443 2.31882  16
   7  -5   0 -3.8025 4.48056  17
   6  -5   0 41.7153 4.31077  10
   6  -5   0 35.1677 7.32839  16
   6  -5   0 43.6788 7.51275  17
   5  -5   0 0.43676 4.12630  16
   5  -5   0 2.83117 1.72092   9
   5  -5   0 1.35172 1.70279  10
   5  -5   0 -0.5532 3.85067  15
   5  -5   0 3.89844 5.34774  17
   4  -5   0 124.047 11.7108  15
   4  -5   0 124.193 9.52382  10
   4  -5   0 122.247 17.1251   2
   4  -5   0 144.714 12.9871  17
   4  -5   0 136.823 10.0279   9
   4  -5   0 109.806 11.6030  16
   4  -5   0 103.179 20.6358   7
   3  -5   0 87.6198 6.42337   8
   3  -5   0 72.9853 9.08701  16
   3  -5   0 123.467 19.1469   7
   3  -5   0 80.5005 12.8542   3
   3  -5   0 82.7161 7.02105   9
   3  -5   0 89.3608 14.3023   2
   3  -5   0 82.8788 7.45889  10
   2  -5   0 26.0378 7.35363   3
   2  -5   0 59.0061 12.1017   7
   2  -5   0 42.6490 8.94672   6
   2  -5   0 31.2307 3.48038   8
   2  -5   0 24.3050 8.24985   2
   1  -5   0 75.0413 11.0935   6
   1  -5   0 89.2479 12.7341   2
   1  -5   0 115.897 12.7246   3
   0  -5   0 33.7422 6.19676   1
   0  -5   0 47.9132 7.12444   3
   0  -5   0 25.9487 5.31321   1
   0  -5   0 28.2216 6.87972   2
   0   5   0 39.7205 6.61166   3
   0   5   0 28.1630 5.50106   1
   0   5   0 40.3174 6.88399   2
  -1  -5   0 257.815 20.7343   1
   1   5   0 318.474 23.7046   2
   1   5   0 276.229 20.8789   1
   1   5   0 299.440 21.5871   4
   1   5   0 244.945 20.6162   1
   1   5   0 304.253 24.7871   3
   2   5   0 11.8275 4.06195   1
   2   5   0 18.2621 4.45435   4
   2   5   0 19.7793 4.97100   2
   2   5   0 13.9810 4.57316   3
   3   5   0 505.783 36.7865   2
   3   5   0 524.687 39.3275   5
   3   5   0 501.605 37.0005   4
   3   5   0 456.642 39.2425   3
   4   5   0 264.420 24.6767   5
   4   5   0 264.435 20.9903   2
   4   5   0 262.354 23.0772   4
   4   5   0 280.689 22.6715   3
   5   5   0 12.4380 3.73185  12
   5   5   0 9.22089 7.13160   5
   5   5   0 9.48196 2.54865  11
   5   5   0 10.9036 1.76392  10
   5   5   0 6.99372 4.50160   4
   5   5   0 6.97239 2.76304  13
   5   5   0 10.0884 3.09292  17
   5   5   0 12.0175 2.70031  18
   6   5   0 58.4851 7.61182  13
   6   5   0 74.9182 7.58596  17
   6   5   0 49.2976 11.6449   4
   6   5   0 65.0017 4.68278  10
   6   5   0 72.7876 7.83047  12
   6   5   0 69.2762 6.92686  11
   6   5   0 72.9398 7.15342  18
   7   5   0 23.0485 4.28051  18
   7   5   0 15.3569 11.0972   4
   7   5   0 21.9711 5.29060  12
   7   5   0 19.5991 4.39989  11
   7   5   0 27.9562 4.84134  17
   7   5   0 13.0785 4.08821  13
   8   5   0 13.7873 3.30119  11
   8   5   0 11.1439 3.12341  18
   8   5   0 8.03824 3.57874  12
   9   5   0 107.236 9.35490  11
   9   5   0 111.871 10.0813  12
   6  -6   0 -0.7989 3.30256  17
   6  -6   0 0.48633 1.08211  10
   5  -6   0 12.8563 4.87356  17
   5  -6   0 13.6720 2.63830  10
   4  -6   0 -1.5893 4.73234  17
   4  -6   0 0.10425 2.72171  10
   4  -6   0 7.80126 2.85589   9
   3  -6   0 20.1209 3.82861   9
   3  -6   0 7.68964 8.03676   3
   3  -6   0 15.2173 10.1708   2
   3  -6   0 13.4503 2.89847  10
   3  -6   0 10.9574 9.08756   7
   3  -6   0 22.3325 3.50311   8
   2  -6   0 0.22949 9.32514   2
   2  -6   0 -3.7025 2.74208   9
   2  -6   0 4.18656 2.28385   8
   2  -6   0 -2.0300 3.85999   3
   2  -6   0 -1.0697 9.10587   7
   1  -6   0 83.0049 6.71034   8
   1  -6   0 100.566 13.7241   2
   1  -6   0 77.5998 11.6637   3
   1   6   0 213.809 17.2814   4
   1   6   0 208.291 20.2686   3
   1   6   0 206.866 19.1809   2
   2   6   0 6.64958 4.24873   4
   2   6   0 8.96370 5.08307   3
   2   6   0 9.67789 4.09150   2
   3   6   0 13.8387 5.52159   2
   3   6   0 10.2204 1.79318   8
   3   6   0 24.3041 7.77748   5
   3   6   0 19.3565 4.75604   4
   3   6   0 18.9052 5.69900   3
   4   6   0 36.6802 6.99835   2
   4   6   0 46.8845 11.0318   5
   4   6   0 41.7068 4.01768   9
   4   6   0 48.6362 4.16478  10
   4   6   0 51.4864 5.09860  18
   4   6   0 44.4878 6.17773  12
   4   6   0 42.1052 7.54952   3
   4   6   0 43.0300 6.08684  13
   4   6   0 48.1443 9.17694   4
   4   6   0 37.5071 5.05729  11
   5   6   0 11.6250 3.28292  12
   5   6   0 12.8238 5.61974   4
   5   6   0 10.9516 3.30995  18
   5   6   0 2.49164 3.41374   2
   5   6   0 5.08875 9.15424   5
   5   6   0 12.8830 1.74775   9
   5   6   0 10.9962 1.95537  10
   5   6   0 9.53362 3.20705  11
   5   6   0 10.0270 3.39090   3
   5   6   0 9.84821 4.29624  13
   6   6   0 211.896 13.9835  10
   6   6   0 200.013 18.2454  12
   6   6   0 218.098 16.8903  11
   6   6   0 202.535 19.2107  13
   6   6   0 203.620 21.6741   4
   6   6   0 246.097 18.2319  18
   7   6   0 46.0993 6.51354  18
   7   6   0 43.8064 7.60941  13
   7   6   0 38.9084 5.41130  11
   7   6   0 49.6329 8.31512  12
   8   6   0 2.55191 2.41113  18
   8   6   0 -0.1332 2.01370  11
   8   6   0 3.34517 3.33745  12
   9   6   0 73.3933 8.48781  12
   9   6   0 98.4478 8.35887  11
   6  -7   0 9.91036 3.36337  17
   5  -7   0 58.6338 5.26288  10
   5  -7   0 50.4129 7.62997  17
   4  -7   0 87.0483 7.45651   9
   4  -7   0 70.6469 9.12954  17
   4  -7   0 69.2014 6.83587  10
   3  -7   0 13.9739 3.84654  10
   3  -7   0 15.5292 3.98989   9
   3  -7   0 21.7855 6.42934  17
   3  -7   0 22.1126 3.56166   8
   2  -7   0 4.30577 9.32478   2
   2  -7   0 15.5839 3.34781   9
   2  -7   0 17.9254 2.85643   8
   2  -7   0 28.5408 14.3073   7
   2  -7   0 10.5766 10.2271   3
   1  -7   0 46.5451 5.88379   8
   1   7   0 96.0916 14.5489   3
   1   7   0 111.365 15.1482   2
   1   7   0 94.5107 7.18683   8
   2   7   0 158.944 11.1915   8
   2   7   0 172.962 19.0596   3
   2   7   0 175.951 18.4920   2
   2   7   0 172.012 12.2373   9
   2   7   0 166.446 15.6970   4
   3   7   0 2.17700 2.01553   9
   3   7   0 1.23771 2.58366  12
   3   7   0 0.88333 5.24241   2
   3   7   0 0.52828 4.71566   3
   3   7   0 12.2070 8.13855   5
   3   7   0 5.33006 1.51270   8
   3   7   0 7.04098 5.15691   4
   3   7   0 1.21258 1.38683  10
   4   7   0 160.839 22.0494   5
   4   7   0 170.976 16.5352   2
   4   7   0 146.177 16.7776   4
   4   7   0 148.961 12.2624  11
   4   7   0 157.649 13.7773  12
   4   7   0 160.689 11.1000  10
   4   7   0 156.232 11.0839   9
   4   7   0 165.814 16.8246   3
   4   7   0 140.187 14.7558  13
   5   7   0 8.24485 4.97190   3
   5   7   0 29.7500 11.0599   5
   5   7   0 8.50230 5.70809   2
   5   7   0 21.6687 4.56925  12
   5   7   0 8.45700 4.96976  13
   5   7   0 12.6810 8.05499   4
   5   7   0 25.6769 4.70340  18
   5   7   0 17.9280 2.97915  10
   5   7   0 17.9773 3.41682  11
   5   7   0 20.5644 2.70705   9
   6   7   0 21.2881 5.04447  12
   6   7   0 14.9267 5.57244  13
   6   7   0 13.9667 3.66271  11
   6   7   0 17.1034 2.52939  10
   6   7   0 10.5648 7.57381   4
   6   7   0 22.7602 4.57308  18
   7   7   0 92.8782 11.6939  13
   7   7   0 114.893 9.85029  18
   7   7   0 92.3722 11.5232  12
   7   7   0 97.0088 9.59919  11
   8   7   0 54.0814 6.15190  11
   8   7   0 72.1198 9.12766  12
   9   7   0 8.77591 2.89054  12
   9   7   0 10.2476 2.54293  11
   5  -8   0 2.41522 2.98905  17
   4  -8   0 18.7504 3.31905  10
   4  -8   0 28.7742 5.64547  17
   3  -8   0 91.3857 9.12879  10
   3  -8   0 101.673 9.37240   9
   3  -8   0 114.420 11.1910  17
   2  -8   0 0.80084 3.43492   9
   2  -8   0 2.12765 1.80540   8
   1  -8   0 104.650 19.9967   7
   1  -8   0 84.6724 7.40503   8
   0  -8   0 16.1523 3.24237   8
   1   8   0 20.1213 3.11971   8
   2   8   0 40.3316 11.0989   3
   2   8   0 64.1254 5.51957   8
   2   8   0 57.1438 12.3993   2
   2   8   0 60.9340 6.29656   9
   2   8   0 85.3204 15.3601   5
   3   8   0 243.785 15.4212   8
   3   8   0 238.865 22.2943   4
   3   8   0 235.195 16.2950  10
   3   8   0 207.030 24.2721   3
   3   8   0 256.103 16.8692   9
   3   8   0 259.538 24.7053   2
   3   8   0 209.048 19.0320  12
   3   8   0 303.348 27.8962   5
   4   8   0 53.3167 11.2554   2
   4   8   0 59.5289 5.58892  10
   4   8   0 57.2973 6.51184  12
   4   8   0 58.0725 15.2311   5
   4   8   0 55.9896 8.80713  13
   4   8   0 30.5680 8.81320   3
   4   8   0 54.7951 5.31959   9
   4   8   0 47.6446 9.60535   4
   5   8   0 7.15324 3.82246  12
   5   8   0 7.58956 3.93795  13
   5   8   0 7.99249 2.24095  10
   5   8   0 23.3525 16.2684   5
   5   8   0 4.09627 8.25631   4
   5   8   0 8.72979 2.13498   9
   5   8   0 5.65666 2.24088  11
   6   8   0 9.86460 2.90332  11
   6   8   0 17.5476 5.03485  13
   6   8   0 16.0528 2.25843  10
   6   8   0 14.5491 3.98055  12
   7   8   0 -1.8934 4.82355  13
   7   8   0 4.76210 2.31057  11
   7   8   0 8.27762 3.39160  12
   8   8   0 3.14010 2.89540  11
   8   8   0 4.78960 4.34223  12
   9   8   0 1.88955 2.26604  12
   4  -9   0 0.24434 2.62415  17
   3  -9   0 2.09425 2.31325  10
   3  -9   0 1.43770 3.27030  17
   2  -9   0 4.63973 2.57815   9
   2  -9   0 1.01929 2.12456   8
   1  -9   0 144.691 11.3503   8
   0  -9   0 34.3712 5.46128   8
   0   9   0 51.3846 5.50089   8
   1   9   0 -5.1359 9.85538   5
   1   9   0 -0.6948 1.45158   8
   2   9   0 -5.0122 10.3660   5
   2   9   0 -1.4104 1.69965   9
   2   9   0 -1.2299 1.84946   8
   3   9   0 -0.9109 2.31581  10
   3   9   0 3.26694 7.54048   5
   3   9   0 2.56208 1.84359   9
   3   9   0 -0.4397 1.63767   8
   4   9   0 2.22515 3.28093  12
   4   9   0 0.60370 2.19220  10
   4   9   0 0.58867 2.91923  13
   4   9   0 -1.1108 2.09534   9
   5   9   0 80.9639 9.54550  12
   5   9   0 83.1887 9.85455  13
   5   9   0 88.9911 7.14674  10
   5   9   0 80.9135 6.70233   9
   6   9   0 58.4216 4.81193  10
   6   9   0 48.0421 7.82044  12
   6   9   0 48.5952 7.69434  13
   6   9   0 44.9646 5.17806  11
   7   9   0 0.11195 4.55977  13
   7   9   0 3.95698 3.03202  12
   7   9   0 2.64874 1.94637  11
   8   9   0 1.09394 2.49013  12
   8   9   0 -2.9722 1.46100  11
   3 -10   0 38.3730 5.32067  17
   2 -10   0 2.56651 2.29878   9
   2 -10   0 0.71178 4.44804  17
   0 -10   0 135.259 10.0314   8
   0  10   0 124.839 9.83889   8
   1  10   0 -3.2028 2.11690   8
   2  10   0 156.957 12.4407   9
   2  10   0 154.528 10.9345   8
   3  10   0 1.96118 2.81820  10
   3  10   0 -0.2277 1.91284   9
   3  10   0 -1.3692 1.38898   8
   4  10   0 57.7141 5.72509   9
   4  10   0 56.6872 8.43401  13
   4  10   0 49.0050 5.24620  10
   5  10   0 11.8122 2.71374  10
   5  10   0 11.5088 4.04958  12
   5  10   0 13.3695 4.20168  13
   5  10   0 10.7064 1.87701   9
   6  10   0 14.7912 3.43532  12
   6  10   0 10.6700 5.27816  13
   6  10   0 15.2190 2.39900  10
   7  10   0 -4.6171 2.84553  13
   7  10   0 2.50355 2.41372  12
   1 -11   0 38.3597 5.26229  17
   1 -11   0 20.2263 3.57295   9
  -1  11   0 30.0076 3.39701   8
   1  11   0 3.95837 1.59733   8
   2  11   0 11.5183 2.72904   9
   2  11   0 10.1798 1.78393   8
   3  11   0 248.050 21.2845  13
   3  11   0 269.237 18.0272   9
   4  11   0 19.5184 4.75489  13
   4  11   0 14.1478 3.23764  10
   5  11   0 4.62992 2.18046  10
   5  11   0 4.11180 3.11401  13
   6  11   0 -3.7556 3.72166  13
   6  11   0 0.36994 0.97148  10
   6  11   0 -0.3856 1.81798  12
   1  12   0 21.8975 3.62633  13
   2  12   0 -0.6754 2.02954  13
   3  12   0 2.97959 2.43281  13
   4  12   0 1.24657 3.10697  13
   4  12   0 0.65862 0.85933   9
   4  12   0 2.62369 1.65162  10
   5  12   0 39.9433 4.72480  13
   5  12   0 35.2053 3.70571  10
   4  12  -1 34.3774 4.54902  13
   4  12  -1 35.8797 3.01127   9
   4  12  -1 34.7167 4.23707  10
   3  12  -1 50.6931 5.52140  13
   3  12  -1 44.3374 4.19642   9
   2  12  -1 4.40951 2.18173  13
   2  12  -1 0.68650 2.28381   9
   1  12  -1 59.1610 5.56464  13
   1  12  -1 49.9042 3.88688   8
   6  11  -1 2.75784 2.00526  12
   6  11  -1 5.76149 1.25880  10
   6  11  -1 4.30281 2.90938  13
   5  11  -1 116.118 11.8192  13
   5  11  -1 130.746 9.24260  10
   4  11  -1 -1.6608 2.38012  10
   4  11  -1 -2.3903 3.68507  13
   4  11  -1 1.71928 1.91650   9
   3  11  -1 38.4963 4.92502   9
   3  11  -1 27.7606 5.21680  13
   2  11  -1 5.00334 2.21533   9
   2  11  -1 7.12781 1.44852   8
   1  11  -1 5.92771 1.67573   8
   0 -11   1 5.40428 2.57272   8
  -1  11  -1 2.68463 1.52573   8
   1 -11   1 2.93172 2.80911  17
   1 -11   1 -0.7186 2.29239   9
   7  10  -1 9.35297 3.39989  12
   6  10  -1 29.8183 5.70109  13
   6  10  -1 36.4375 3.79943  10
   6  10  -1 32.3460 5.12414  12
   5  10  -1 12.9978 3.25754  12
   5  10  -1 8.38063 4.83552  13
   5  10  -1 8.11364 1.97985   9
   5  10  -1 13.3027 2.34874  10
   4  10  -1 56.3288 5.76952  10
   4  10  -1 38.9383 5.71334  12
   4  10  -1 55.1315 8.08970  13
   4  10  -1 49.8461 5.30837   9
   3  10  -1 11.0046 3.16283   9
   3  10  -1 8.44446 1.80577   8
   2  10  -1 181.125 13.4054   9
   2  10  -1 175.043 12.0336   8
   1  10  -1 3.91906 1.77926   8
   0  10  -1 1.82416 1.81867   8
   0 -10   1 5.23054 3.05769   8
   2 -10   1 1.23022 3.25732  17
   2 -10   1 -0.0972 0.95097   8
   3 -10   1 7.30806 2.74305  17
   3 -10   1 8.84631 2.06252   9
   8   9  -1 -1.7474 1.39976  11
   8   9  -1 -3.8710 2.31171  12
   7   9  -1 11.1616 2.56493  11
   7   9  -1 9.34309 3.19114  12
   6   9  -1 5.72724 4.12731  12
   6   9  -1 6.74111 5.16854  13
   6   9  -1 17.6189 2.83685  10
   6   9  -1 6.98956 3.01560  11
   5   9  -1 2.31988 1.88416   9
   5   9  -1 1.67626 4.53758  13
   5   9  -1 -1.1678 1.89961  10
   5   9  -1 3.83385 3.72296  12
   4   9  -1 -1.9192 1.35242   9
   4   9  -1 -0.5080 3.08541  13
   4   9  -1 0.59893 1.60692  10
   4   9  -1 3.71182 3.57001  12
   3   9  -1 49.5107 4.45112   8
   3   9  -1 53.6728 5.81969   9
   3   9  -1 44.6016 14.5930   5
   3   9  -1 45.9234 5.73398  12
   3   9  -1 43.8097 5.62180  10
   2   9  -1 8.01322 10.9491   5
   2   9  -1 13.5343 2.33775   8
   2   9  -1 13.5110 3.35411   9
   1   9  -1 37.4413 4.76602   8
   0   9  -1 95.0276 7.68021   8
   0  -9   1 98.4323 9.24017   8
   1  -9   1 0.57168 1.97014   8
   2  -9   1 28.0449 4.89884   9
   2  -9   1 37.0861 4.52616   8
   3  -9   1 39.6086 5.46417   9
   3  -9   1 26.8966 4.80677  10
   3  -9   1 47.4822 6.42391  17
   4  -9   1 41.6601 5.58825  17
   8   8  -1 30.8906 4.22189  11
   8   8  -1 44.5110 6.06911  12
   7   8  -1 -0.9895 1.87724  11
   7   8  -1 7.19164 3.18512  12
   6   8  -1 23.5013 4.81906  12
   6   8  -1 27.0532 6.57322  13
   6   8  -1 27.0529 3.28700  10
   6   8  -1 31.8653 5.07987  11
   5   8  -1 62.5376 5.30329   9
   5   8  -1 59.8039 11.8860   4
   5   8  -1 66.7473 8.49574  12
   5   8  -1 62.4564 8.44046  13
   5   8  -1 64.6009 5.86203  10
   5   8  -1 60.3473 6.57003  11
   4   8  -1 13.0812 4.48881  13
   4   8  -1 1.92162 7.82922   4
   4   8  -1 13.7756 2.92311  10
   4   8  -1 22.8541 8.72970   2
   4   8  -1 14.5652 4.09248  12
   4   8  -1 17.6262 2.83516   9
   4   8  -1 40.0489 13.5664   5
   3   8  -1 69.9702 7.53029  12
   3   8  -1 81.9833 5.96756   8
   3   8  -1 74.6437 13.5979   2
   3   8  -1 70.8715 6.31692  10
   3   8  -1 72.3606 13.6261   5
   3   8  -1 51.3719 11.5044   3
   3   8  -1 80.1204 6.89389   9
   2   8  -1 29.8309 5.07223   9
   2   8  -1 44.3230 4.42035   8
   2   8  -1 31.2092 11.1043   2
   2   8  -1 40.6741 11.0566   5
   1   8  -1 135.321 9.73884   8
   0  -8   1 2.75650 2.40743   8
   1  -8   1 16.7476 15.2169   7
   1  -8   1 3.24956 3.01902   8
   2  -8   1 0.70609 2.41610   9
   2  -8   1 1.84111 2.50311   8
   3  -8   1 23.1267 3.88672  10
   3  -8   1 33.0360 6.87619  17
   3  -8   1 29.4950 4.66542   9
   4  -8   1 37.6647 5.64365  10
   4  -8   1 39.2748 6.59238  17
   5  -8   1 5.80879 2.85205  17
   9   7  -1 94.1859 8.03091  11
   8   7  -1 268.951 22.7202  12
   8   7  -1 266.461 20.1990  11
   7   7  -1 2.61458 3.46504  18
   7   7  -1 -1.6522 1.95630  11
   7   7  -1 3.97869 4.69698  12
   6   7  -1 4.22387 1.57816  10
   6   7  -1 5.74073 2.61429  18
   6   7  -1 6.52682 3.74628  13
   6   7  -1 5.13292 3.27162  12
   6   7  -1 7.80239 3.08130  11
   5   7  -1 41.8378 4.84169  18
   5   7  -1 32.4775 3.45191  10
   5   7  -1 16.6339 5.48093   3
   5   7  -1 45.1033 9.71265   4
   5   7  -1 36.1164 7.53114   2
   5   7  -1 32.8203 5.17751  11
   5   7  -1 37.1702 6.60254  13
   5   7  -1 34.9498 3.62254   9
   5   7  -1 30.8437 5.43929  12
   4   7  -1 2.34059 5.48506   2
   4   7  -1 -0.4360 6.70185   5
   4   7  -1 4.24151 1.58428  10
   4   7  -1 0.74326 1.73928   9
   4   7  -1 2.39557 3.10354  12
   4   7  -1 7.92603 2.63577  11
   4   7  -1 0.91476 2.65849  13
   4   7  -1 2.60846 6.30813   4
   4   7  -1 -1.9643 4.57710   3
   3   7  -1 12.8929 6.66672   2
   3   7  -1 16.3802 6.63578   4
   3   7  -1 22.2231 3.64177   9
   3   7  -1 19.9139 2.76321   8
   3   7  -1 19.5161 7.30201   5
   3   7  -1 24.4544 7.51567   3
   3   7  -1 26.0301 4.72924  12
   3   7  -1 25.5592 3.70049  10
   2   7  -1 252.257 18.1949   9
   2   7  -1 284.349 22.4574   4
   2   7  -1 268.848 17.1834   8
   2   7  -1 253.010 25.7315   3
   2   7  -1 253.921 20.6674  12
   2   7  -1 299.875 25.6258   2
   1   7  -1 238.480 15.7354   8
   1  -7   1 5.92601 2.93855   8
   2  -7   1 27.6756 14.0593   7
   2  -7   1 4.51908 2.54199   9
   2  -7   1 6.56969 2.13282   8
   2  -7   1 15.9109 11.1447   2
   2  -7   1 4.16009 7.00808   3
   3  -7   1 40.1314 5.89185   9
   3  -7   1 24.4283 4.51607  10
   3  -7   1 26.3376 3.69053   8
   3  -7   1 34.5575 7.33295  17
   4  -7   1 6.30451 2.83363   9
   4  -7   1 4.95418 2.34345  10
   4  -7   1 0.31677 3.62084  17
   5  -7   1 64.9660 8.05856  17
   5  -7   1 56.5591 5.34688  10
   6  -7   1 11.2442 3.24305  17
   9   6  -1 41.8198 5.97736  12
   9   6  -1 60.3286 6.27400  11
   8   6  -1 66.9113 7.89576  18
   8   6  -1 71.8627 6.98953  11
   8   6  -1 54.7966 8.09054  12
   7   6  -1 35.0268 4.99007  11
   7   6  -1 33.8951 5.07483  18
   7   6  -1 44.2855 8.18872  12
   6   6  -1 153.352 12.1541  18
   6   6  -1 131.223 9.13069  10
   6   6  -1 102.689 17.6819   4
   6   6  -1 116.205 13.1979  13
   6   6  -1 137.470 12.8838  12
   6   6  -1 139.184 11.8750  11
   5   6  -1 198.030 17.5690  12
   5   6  -1 215.036 16.8880   2
   5   6  -1 192.846 17.9788  13
   5   6  -1 199.065 13.4840   9
   5   6  -1 202.014 13.6022  10
   5   6  -1 197.206 17.5661   3
   5   6  -1 222.946 17.0100  18
   5   6  -1 206.901 15.8723  11
   5   6  -1 197.816 21.0369   4
   4   6  -1 5.45073 4.27625   2
   4   6  -1 3.88797 2.69654  13
   4   6  -1 2.58217 1.51198   9
   4   6  -1 1.02062 2.46750  18
   4   6  -1 -2.0460 7.34024   5
   4   6  -1 3.47407 1.60839  10
   4   6  -1 5.55395 5.61082   4
   4   6  -1 2.43243 3.75733   3
   4   6  -1 -0.4167 2.22615  11
   4   6  -1 0.32583 2.80507  12
   3   6  -1 -0.9717 4.00291   2
   3   6  -1 5.57786 4.16751   3
   3   6  -1 1.22398 1.17452   8
   3   6  -1 0.61247 1.59824   9
   3   6  -1 0.18526 5.65916   5
   3   6  -1 9.13380 5.27890   4
   3   6  -1 1.23545 2.58843  12
   2   6  -1 -9.4897 3.80055   2
   2   6  -1 -1.2926 3.24459   4
   2   6  -1 -0.0031 2.84244   3
   1   6  -1 93.9422 10.1123   4
   1   6  -1 103.492 13.4372   3
   1   6  -1 116.180 13.0785   2
   1  -6   1 110.172 13.9763   3
   1  -6   1 96.2171 8.33324   8
   1  -6   1 114.641 16.8972   2
   2  -6   1 9.00176 2.70286   8
   2  -6   1 10.7845 3.56627   9
   2  -6   1 8.36276 9.88538   2
   2  -6   1 26.6139 8.75049   3
   2  -6   1 13.2316 8.00706   7
   3  -6   1 -10.059 9.02525   2
   3  -6   1 -1.7215 2.53833  10
   3  -6   1 0.78146 9.03645   7
   3  -6   1 -4.9028 2.64884   9
   3  -6   1 2.01829 4.09544  16
   3  -6   1 3.37952 1.94798   8
   3  -6   1 4.92121 7.22109   3
   4  -6   1 0.04275 1.99532  10
   4  -6   1 5.01959 2.98666   9
   4  -6   1 7.91709 4.51156  16
   4  -6   1 -3.9910 3.35709  17
   5  -6   1 -2.2247 5.26957  17
   5  -6   1 1.66507 2.99569  16
   5  -6   1 3.23044 2.54816  10
   6  -6   1 122.905 12.0005  16
   6  -6   1 145.752 9.63191  10
   6  -6   1 148.621 13.1614  17
   9   5  -1 3.76326 2.43133  18
   9   5  -1 2.85477 2.36380  11
   8   5  -1 67.0495 7.25581  11
   8   5  -1 65.9654 7.95703  18
   8   5  -1 76.3066 9.46819  12
   7   5  -1 34.8205 5.76117  17
   7   5  -1 26.0887 4.53508  11
   7   5  -1 30.5550 5.39481  18
   7   5  -1 25.5112 6.16582  12
   6   5  -1 287.010 28.8657  13
   6   5  -1 326.655 31.7341   4
   6   5  -1 365.195 22.8871  10
   6   5  -1 375.641 29.3430  12
   6   5  -1 365.189 27.2090  11
   6   5  -1 412.558 28.5094  17
   6   5  -1 387.640 28.6917  18
   5   5  -1 1498.94 106.319  11
   5   5  -1 1560.68 107.690   4
   5   5  -1 1543.79 94.3275  10
   5   5  -1 1589.70 113.151  18
   5   5  -1 1671.54 112.594  17
   5   5  -1 1301.40 113.953  13
   5   5  -1 1510.30 112.998  12
   4   5  -1 12.3020 2.01929   9
   4   5  -1 13.1518 5.54700   4
   4   5  -1 7.29928 6.10117   5
   4   5  -1 11.5785 3.80875   3
   4   5  -1 9.97913 2.67917  12
   4   5  -1 16.1317 4.05204   2
   4   5  -1 12.1072 1.94019  10
   4   5  -1 9.53216 3.09973  18
   3   5  -1 -1.0838 2.23933   4
   3   5  -1 7.94765 5.21815   5
   3   5  -1 1.54693 3.19628   3
   3   5  -1 -1.7555 2.94779   2
   2   5  -1 -0.0282 3.51469   3
   2   5  -1 -0.9923 2.23383   2
   2   5  -1 1.49794 2.21148   4
   1   5  -1 74.1360 8.61812   1
   1   5  -1 75.1546 9.28645   3
   1   5  -1 72.5615 9.61053   2
   1   5  -1 85.3031 7.79665   4
  -1  -5   1 59.0098 7.80165   1
   0   5  -1 30.2617 6.65243   3
   0   5  -1 24.8524 5.67570   1
   0   5  -1 36.0840 6.40612   2
   0  -5   1 30.1093 6.82610   3
   0  -5   1 28.4646 6.73221   2
   0  -5   1 11.3549 4.81505   1
   1  -5   1 18.1038 5.79076   3
   1  -5   1 14.1804 5.62181   6
   1  -5   1 8.46382 6.77752   2
   2  -5   1 98.4640 13.7748   6
   2  -5   1 89.7045 12.5155   3
   2  -5   1 95.4380 13.8744   2
   2  -5   1 80.6697 6.65524   8
   2  -5   1 141.998 17.6200   7
   3  -5   1 59.3463 6.19958   9
   3  -5   1 60.8314 5.60733  10
   3  -5   1 60.6835 8.02517  16
   3  -5   1 59.9761 12.4106   6
   3  -5   1 58.9585 4.76318   8
   3  -5   1 87.4992 15.7631   7
   3  -5   1 57.4937 11.6853   2
   3  -5   1 59.5119 11.1142   3
   4  -5   1 27.8732 11.0981   2
   4  -5   1 34.6701 3.96236   9
   4  -5   1 9.72199 6.34015   3
   4  -5   1 28.4807 12.6589   7
   4  -5   1 26.7112 4.57376  10
   4  -5   1 27.8054 5.46657  16
   4  -5   1 34.7924 7.16959  17
   5  -5   1 15.9931 5.07664  16
   5  -5   1 20.4578 5.44488  17
   5  -5   1 16.8161 3.25501  10
   5  -5   1 19.7736 4.98853  15
   5  -5   1 14.1150 2.63161   9
   6  -5   1 -0.2001 1.81209  10
   6  -5   1 -3.7352 5.31596  17
   6  -5   1 2.93577 4.38446  16
   7  -5   1 -1.6816 2.23771  16
   7  -5   1 3.98398 3.32270  17
   9   4  -1 5.07164 2.34918  18
   9   4  -1 -0.0014 3.24095  11
   8   4  -1 29.7018 5.19476  17
   8   4  -1 31.9941 4.99932  18
   8   4  -1 34.2126 5.13146  11
   8   4  -1 35.7037 6.59196  12
   7   4  -1 23.2805 4.13347  11
   7   4  -1 11.2894 10.4580   4
   7   4  -1 17.9434 4.00013  18
   7   4  -1 18.2547 4.67193  17
   7   4  -1 26.1728 5.22508  12
   7   4  -1 28.5945 4.96743  16
   6   4  -1 28.3088 5.14824  17
   6   4  -1 34.5801 5.32013  18
   6   4  -1 40.6785 9.30189   4
   6   4  -1 26.6885 4.86076  12
   6   4  -1 31.2737 4.46724  16
   6   4  -1 27.7231 4.73887  11
   6   4  -1 24.8038 1.95237  10
   5   4  -1 221.054 20.2041   4
   5   4  -1 207.410 15.6347  11
   5   4  -1 196.364 16.3872  17
   5   4  -1 195.892 16.8863  12
   5   4  -1 200.150 16.6254  18
   5   4  -1 202.641 16.2491  16
   5   4  -1 203.284 13.0277  10
   4   4  -1 -2.7889 2.78968   2
   4   4  -1 0.31689 2.90867   4
   4   4  -1 -1.9281 2.10208   2
   4   4  -1 -2.3088 2.12087   3
   4   4  -1 7.97117 4.70014   5
   4   4  -1 3.45052 2.39337   3
   3   4  -1 94.2463 9.49994   3
   3   4  -1 93.9136 10.3491   4
   3   4  -1 91.0352 10.6111   5
   3   4  -1 87.6579 9.14529   2
   2   4  -1 1001.58 68.3936   4
   2   4  -1 1036.65 75.2020   3
   2   4  -1 955.756 62.4889   1
   2   4  -1 1057.63 69.3750   2
  -2  -4   1 962.127 62.8018   1
  -2  -4   1 915.466 63.0109   1
   1   4  -1 22.8744 4.12969   1
   1   4  -1 29.8622 4.92065   3
   1   4  -1 16.5345 3.57820   1
   1   4  -1 24.3132 4.47830   4
   1   4  -1 31.7342 5.72683   2
  -1  -4   1 27.4478 5.12044   1
  -1  -4   1 18.7981 5.96352   2
  -1  -4   1 19.1585 3.75103   1
  -1  -4   1 24.9104 5.05296   3
   0   4  -1 4.59842 3.02610   1
   0   4  -1 1.22262 2.22468   1
   0   4  -1 3.82850 2.31389   4
   0   4  -1 -0.9804 2.20401   3
   0   4  -1 -4.1984 3.26767   2
   0  -4   1 -2.9514 2.47861   6
   0  -4   1 2.17486 2.02667   1
   0  -4   1 -0.2320 2.42770   3
   0  -4   1 1.38279 3.66812   1
   0  -4   1 0.99814 4.67307   2
  -1   4  -1 20.3623 4.18620   1
   1  -4   1 13.9487 4.15180   1
   1  -4   1 17.1330 5.15643   2
   1  -4   1 17.5856 4.41947   3
   1  -4   1 19.2072 5.40232   6
   1  -4   1 16.5994 3.83540   1
   2  -4   1 11.0069 5.68151   6
   2  -4   1 1.51865 4.82074   2
   2  -4   1 4.55060 3.86520   3
   3  -4   1 -5.0345 4.72780   7
   3  -4   1 2.04632 4.48868   6
   3  -4   1 1.30537 5.19204   2
   3  -4   1 2.91227 2.15809  10
   3  -4   1 -0.1740 1.25173   8
   3  -4   1 -1.2417 1.88212   9
   3  -4   1 2.10695 4.17796   3
   4  -4   1 30.3762 10.9667   6
   4  -4   1 42.3997 6.55834  15
   4  -4   1 36.4361 11.1752   7
   4  -4   1 37.6715 6.00024  16
   4  -4   1 54.2132 8.19493  17
   4  -4   1 28.7341 9.43056   2
   4  -4   1 47.1650 4.93928  10
   4  -4   1 42.2234 4.44284   9
   4  -4   1 35.9855 8.14198   3
   5  -4   1 339.800 29.0584   2
   5  -4   1 340.312 29.7644  16
   5  -4   1 391.378 30.1609  17
   5  -4   1 301.110 40.9045   7
   5  -4   1 373.840 30.0190  15
   5  -4   1 372.545 24.1013   9
   5  -4   1 387.548 24.1961  10
   6  -4   1 27.7986 4.96233  15
   6  -4   1 23.7312 5.78050  16
   6  -4   1 22.1004 5.52916  17
   6  -4   1 21.0334 3.38593  10
   7  -4   1 0.09477 3.66896  17
   7  -4   1 0.58551 2.87575  16
   9   3  -1 42.2526 5.49555  18
   9   3  -1 37.8078 5.66631  11
   9   3  -1 50.1934 6.69697  17
   8   3  -1 13.7920 4.18088  18
   8   3  -1 18.8952 4.01315  16
   8   3  -1 14.2692 4.35673  17
   8   3  -1 20.9113 3.79709  11
   7   3  -1 196.543 17.5492  15
   7   3  -1 213.913 16.7970  11
   7   3  -1 224.672 17.5329  16
   7   3  -1 207.496 17.3358  17
   7   3  -1 183.028 17.1622  12
   7   3  -1 220.335 17.8138  18
   6   3  -1 103.548 9.60735  11
   6   3  -1 98.9557 9.66924  12
   6   3  -1 105.832 10.0104  17
   6   3  -1 107.668 9.71289  18
   6   3  -1 94.0679 9.74590  15
   6   3  -1 112.718 9.70992  16
   6   3  -1 89.1630 12.5947   4
   5   3  -1 5.59091 2.63203  18
   5   3  -1 3.07691 2.37558  11
   5   3  -1 7.01192 2.80809  17
   5   3  -1 8.29704 4.66395   7
   5   3  -1 6.77813 3.89026   4
   5   3  -1 7.34181 3.07569  12
   5   3  -1 3.99582 0.85113  10
   4   3  -1 403.055 31.4697   7
   4   3  -1 346.430 29.5101   5
   4   3  -1 394.689 26.0859   2
   4   3  -1 392.278 28.2222   3
   4   3  -1 346.278 28.1369   3
   4   3  -1 381.425 26.1141   2
   4   3  -1 387.125 29.4056   4
   3   3  -1 130.194 10.1886   2
   3   3  -1 101.433 10.2333   2
   3   3  -1 117.739 10.6659   3
   3   3  -1 114.418 9.00460   1
   3   3  -1 129.769 11.9532   4
   3   3  -1 124.237 11.5280   5
   3   3  -1 141.387 10.9165   3
   3   3  -1 125.612 9.34423   1
  -3  -3   1 102.915 9.24838   1
  -3  -3   1 126.463 9.21046   1
   2   3  -1 1291.97 81.6186   1
   2   3  -1 1354.94 90.3438   2
   2   3  -1 1279.79 98.0776   3
   2   3  -1 1202.14 90.6134   2
   2   3  -1 1332.37 89.7282   4
   2   3  -1 1330.25 81.9728   1
   2   3  -1 1355.73 98.2191   3
  -2  -3   1 1397.84 81.9772   1
  -2  -3   1 1311.27 82.0869   1
   1   3  -1 446.097 29.8327   1
   1   3  -1 499.978 36.0336   3
   1   3  -1 470.292 32.3517   4
   1   3  -1 466.714 33.1600   2
   1   3  -1 462.753 30.1253   1
  -1  -3   1 396.345 33.5482   2
  -1  -3   1 468.994 30.0658   1
  -1  -3   1 467.660 30.3940   1
  -1  -3   1 460.783 36.0409   3
   0   3  -1 1.44484 1.78675   1
   0   3  -1 -1.2197 2.08201   2
   0   3  -1 -0.1054 2.06066   3
   0   3  -1 1.59528 2.07948   1
   0   3  -1 2.06103 1.64843   4
   0  -3   1 4.11831 2.40086   3
   0  -3   1 4.55563 2.56604   6
   0  -3   1 1.67037 2.17553   1
   0  -3   1 4.29206 2.05146   1
   0  -3   1 2.77141 2.79510   2
  -1   3  -1 606.043 49.4095   2
  -1   3  -1 671.809 53.7023   3
  -1   3  -1 693.124 45.1112   1
  -1   3  -1 739.436 45.0009   1
   1  -3   1 697.166 44.8324   1
   1  -3   1 721.656 51.6753   6
   1  -3   1 735.855 50.3278   2
   1  -3   1 697.683 45.2000   1
   1  -3   1 723.476 53.7396   3
  -2   3  -1 23.7016 4.83616   1
   2  -3   1 43.7772 8.56401   7
   2  -3   1 36.3793 6.68715   2
   2  -3   1 27.7704 5.90648   6
   2  -3   1 43.9557 6.34583   3
   2  -3   1 25.7372 5.06291   1
   3  -3   1 4.22586 6.13202   7
   3  -3   1 -0.1948 2.82528   3
   3  -3   1 3.20814 3.93119   6
   3  -3   1 -3.1006 3.62663   2
   4  -3   1 -0.6389 2.77953   3
   4  -3   1 3.04571 1.82413   9
   4  -3   1 -2.1611 7.46204   7
   4  -3   1 3.01721 4.92963   2
   4  -3   1 1.62418 2.30392  16
   4  -3   1 4.18422 2.71963  14
   4  -3   1 0.24964 2.49707  17
   4  -3   1 -2.3927 4.20331   6
   4  -3   1 -0.2634 1.67578  10
   4  -3   1 -2.3322 2.94422  15
   5  -3   1 336.855 35.2588   7
   5  -3   1 317.247 25.3635  16
   5  -3   1 285.050 24.7077   3
   5  -3   1 309.259 20.2071   9
   5  -3   1 319.153 25.8925  17
   5  -3   1 323.566 20.4404  10
   5  -3   1 300.743 23.3874   2
   5  -3   1 319.694 32.1303   6
   5  -3   1 316.813 25.7751  15
   6  -3   1 3.99265 1.89520  10
   6  -3   1 -6.2342 4.31408  17
   6  -3   1 2.78000 4.26902  16
   6  -3   1 0.24977 2.95178  15
   7  -3   1 -2.3533 4.19762  16
   7  -3   1 -3.1240 2.88571  15
   7  -3   1 -0.1621 3.59253  17
   8  -3   1 18.6147 3.92248  16
   8  -3   1 27.0205 5.10803  17
   9   2  -1 24.6142 4.49952  17
   9   2  -1 14.3872 3.23624  18
   8   2  -1 88.0310 9.60819  18
   8   2  -1 86.1705 9.03215  17
   8   2  -1 112.597 10.2727  16
   8   2  -1 76.6511 7.95972  11
   7   2  -1 2.62380 2.22050  11
   7   2  -1 -1.8235 3.15524  17
   7   2  -1 1.86642 2.49722  18
   7   2  -1 5.11829 3.16641  15
   7   2  -1 1.25173 2.37800  16
   7   2  -1 4.17696 11.6523   7
   6   2  -1 5.87139 3.23422  12
   6   2  -1 0.27200 7.83307   7
   6   2  -1 4.38283 3.22385  16
   6   2  -1 5.24849 2.40382  18
   6   2  -1 6.01907 2.93359  11
   6   2  -1 7.08760 2.39999  15
   6   2  -1 9.67060 3.35823  17
   6   2  -1 -1.1641 5.85646   4
   5   2  -1 136.293 15.1693   7
   5   2  -1 120.826 10.3200  16
   5   2  -1 104.673 10.1754  11
   5   2  -1 117.124 10.4752  18
   5   2  -1 130.753 13.3367   4
   5   2  -1 115.385 10.5300  17
   4   2  -1 376.004 27.3221   4
   4   2  -1 313.121 26.6704   5
   4   2  -1 365.146 28.9849   7
   3   2  -1 13.3208 4.19950   4
   3   2  -1 14.6896 4.00369   7
   3   2  -1 12.6952 2.13382   1
   3   2  -1 12.2797 3.26261   5
   3   2  -1 11.6093 2.25749   3
   3   2  -1 15.3776 2.40340   2
   3   2  -1 13.3113 2.02155   1
   3   2  -1 15.9652 2.92569   2
   3   2  -1 14.1016 2.36658   3
  -3  -2   1 8.95789 1.89784   1
  -3  -2   1 11.8193 1.95041   1
   2   2  -1 228.133 18.0554   2
   2   2  -1 234.541 17.7229   2
   2   2  -1 249.199 16.3037   1
   2   2  -1 229.506 18.4191   5
   2   2  -1 265.119 19.3533   3
   2   2  -1 237.415 19.1012   3
   2   2  -1 269.227 20.1113   7
   2   2  -1 243.984 18.3937   4
   2   2  -1 239.038 15.9782   1
  -2  -2   1 250.288 16.1773   1
  -2  -2   1 243.600 16.2948   1
   1   2  -1 853.199 56.3613   4
   1   2  -1 832.420 51.5569   1
   1   2  -1 862.747 51.7512   1
   1   2  -1 805.223 61.9501   3
   1   2  -1 841.713 57.0805   2
  -1  -2   1 766.189 61.9525   3
  -1  -2   1 836.098 51.8633   1
  -1  -2   1 903.404 51.6977   1
  -1  -2   1 760.854 57.3766   2
   0   2  -1 288.764 18.9358   1
   0   2  -1 277.529 20.7648   2
   0   2  -1 302.159 18.7797   1
   0   2  -1 290.670 22.4866   3
   0   2  -1 270.041 19.6717   4
   0  -2   1 287.496 22.4805   3
   0  -2   1 309.307 18.9008   1
   0  -2   1 296.030 19.0598   1
   0  -2   1 255.985 20.9528   6
   0  -2   1 272.969 21.1694   2
  -1   2  -1 7787.80 462.974   1
  -1   2  -1 7267.51 557.017   3
  -1   2  -1 8177.03 462.862   1
  -1   2  -1 7339.13 511.538   2
   1  -2   1 7842.29 511.895   2
   1  -2   1 7479.68 462.697   1
   1  -2   1 7633.63 462.949   1
   1  -2   1 7586.23 556.949   3
   1  -2   1 7337.73 531.457   6
  -2   2  -1 163.885 12.5645   1
  -2   2  -1 164.174 12.4489   1
   2  -2   1 152.086 15.0402   6
   2  -2   1 156.760 12.1743   1
   2  -2   1 191.952 16.3750   7
   2  -2   1 176.598 14.6966   3
   2  -2   1 160.900 12.6157   1
   2  -2   1 184.453 14.4545   2
   2  -2   1 179.009 15.0411   3
   3  -2   1 7.64127 4.96793   7
   3  -2   1 2.89514 3.16642   2
   3  -2   1 4.98881 2.48515   3
   3  -2   1 -10.098 4.32298   6
   4  -2   1 22.6989 6.61449   6
   4  -2   1 17.8498 7.69560   7
   4  -2   1 21.2756 4.37263   2
   4  -2   1 13.0801 3.74889   3
   5  -2   1 24.0153 10.1789   6
   5  -2   1 42.0859 3.87873  10
   5  -2   1 40.0536 5.72090  15
   5  -2   1 38.2052 5.69968  17
   5  -2   1 46.8224 10.9122   7
   5  -2   1 53.1282 6.19971  14
   5  -2   1 39.3951 5.92825  16
   6  -2   1 27.0434 5.73958  16
   6  -2   1 27.6375 5.85838  15
   6  -2   1 32.4869 6.14873  17
   6  -2   1 18.3354 14.2429   7
   6  -2   1 30.8320 2.94937  10
   7  -2   1 31.6262 6.45449  16
   7  -2   1 36.3634 6.89899  17
   7  -2   1 41.2255 7.69563  15
   8  -2   1 248.767 22.8891  17
   8  -2   1 310.020 22.9056  16
   9   1  -1 6.12192 2.58727  18
   9   1  -1 6.40452 3.16469  17
   8   1  -1 0.76069 2.76424  16
   8   1  -1 -2.1920 3.25376  18
   8   1  -1 1.52125 3.90589  17
   7   1  -1 23.8703 4.34810  16
   7   1  -1 23.3722 4.78288  15
   7   1  -1 5.61704 9.27582   7
   7   1  -1 19.9087 3.57309  11
   7   1  -1 20.8900 4.19292  18
   7   1  -1 18.9570 4.92507  17
   6   1  -1 52.0258 6.89386  15
   6   1  -1 45.6744 5.27694  11
   6   1  -1 41.6074 12.1903   7
   6   1  -1 52.5933 6.35028  16
   6   1  -1 59.5522 7.02799  17
   6   1  -1 48.9142 5.86042  18
   6   1  -1 43.2515 5.42978  14
   5   1  -1 3.05417 1.96239  18
   5   1  -1 1.01094 2.52205  15
   5   1  -1 -0.4965 2.53163   4
   5   1  -1 3.30124 4.30431   7
   5   1  -1 4.02102 2.82842  16
   5   1  -1 2.81581 2.01691  17
   4   1  -1 137.013 12.1106   4
   4   1  -1 133.992 13.7915   7
   4   1  -1 148.567 13.5885   6
   4   1  -1 113.953 11.4653   5
   3   1  -1 17.3141 4.38437   7
   3   1  -1 16.2013 1.84304   1
   3   1  -1 17.0268 2.03438   3
   3   1  -1 18.7958 1.74006   1
   3   1  -1 14.4580 3.67940   6
   3   1  -1 15.8441 2.12419   2
   3   1  -1 19.9245 2.11543   3
   3   1  -1 16.7420 3.82049   5
   3   1  -1 17.4467 4.14330   4
   3   1  -1 19.0416 2.04646   2
  -3  -1   1 16.8706 1.81106   1
  -3  -1   1 17.5681 1.78941   1
   2   1  -1 407.314 31.2490   5
   2   1  -1 447.788 27.5210   1
   2   1  -1 433.656 32.9145   3
   2   1  -1 465.980 30.4714   2
   2   1  -1 439.076 30.9544   4
   2   1  -1 439.206 27.4520   1
   2   1  -1 434.964 32.9584   3
   2   1  -1 422.170 33.4163   7
   2   1  -1 454.220 32.4611   6
   2   1  -1 424.775 30.4364   2
  -2  -1   1 462.384 27.5208   1
  -2  -1   1 455.172 27.6656   1
   1   1  -1 83.2315 7.20673   2
   1   1  -1 89.9105 7.52767   3
   1   1  -1 90.0145 6.46220   1
   1   1  -1 85.8859 7.45391   3
   1   1  -1 99.7807 8.10160   7
   1   1  -1 79.5826 7.03594   4
   1   1  -1 90.0346 7.07671   2
   1   1  -1 90.7613 6.25665   1
  -1  -1   1 91.4907 6.33334   1
  -1  -1   1 90.0272 6.46748   1
   0   1  -1 11.4039 1.66491   4
   0   1  -1 13.3676 2.57455   3
   0   1  -1 12.1733 2.06422   1
   0   1  -1 11.0536 2.23936   2
   0   1  -1 13.1730 2.10315   1
   0  -1   1 12.6890 1.76696   1
   0  -1   1 10.2422 2.49159   2
   0  -1   1 13.2903 2.16642   1
   0  -1   1 12.1870 2.18482   6
   0  -1   1 10.8731 2.02202   3
  -1   1  -1 107.890 7.18893   1
  -1   1  -1 108.850 7.34424   1
  -1   1  -1 104.167 8.58194   3
   1  -1   1 106.854 8.31767   2
   1  -1   1 102.155 8.46761   3
   1  -1   1 87.6494 8.62484   6
   1  -1   1 89.4307 8.40594   3
   1  -1   1 78.2470 7.71704   2
   1  -1   1 97.4792 7.01403   1
   1  -1   1 103.690 7.29690   1
  -2   1  -1 21.6487 3.01830   1
  -2   1  -1 22.1782 3.05489   1
   2  -1   1 18.9991 2.16338   4
   2  -1   1 17.9328 4.38714   6
   2  -1   1 21.5139 3.51280   2
   2  -1   1 23.9768 3.16417   1
   2  -1   1 19.8093 2.75261   1
   2  -1   1 19.4373 3.41775   2
   2  -1   1 27.4298 4.93393   7
   2  -1   1 19.6301 3.39188   3
   2  -1   1 17.4646 3.33976   3
  -3   1  -1 10.6636 2.42491   1
  -3   1  -1 8.68269 2.01440   1
   3  -1   1 4.18190 4.71373   6
   3  -1   1 9.68716 4.66398   7
   3  -1   1 11.7065 2.58080   3
   3  -1   1 11.2139 2.14406   1
   3  -1   1 9.31070 2.20868   1
   3  -1   1 11.7344 2.77920   2
   3  -1   1 10.7987 2.27378   3
   3  -1   1 8.59116 2.59691   2
   3  -1   1 4.25431 1.70753   4
   4  -1   1 301.471 21.0540   1
   4  -1   1 332.045 28.9456   7
   4  -1   1 351.405 23.3789   2
   4  -1   1 339.791 25.1631   3
   4  -1   1 326.554 25.1137   3
   4  -1   1 363.203 29.3341   6
   4  -1   1 319.811 23.3582   2
   5  -1   1 170.882 20.6878   7
   5  -1   1 201.143 15.6511  14
   5  -1   1 202.326 21.5002   6
   5  -1   1 178.428 12.1338  10
   5  -1   1 191.657 16.0898  15
   5  -1   1 184.583 15.6070  17
   5  -1   1 193.905 16.3448  16
   5  -1   1 184.512 15.4383  13
   6  -1   1 5.13037 10.1031   7
   6  -1   1 2.84383 2.18492  14
   6  -1   1 3.33227 3.46124  17
   6  -1   1 1.67737 3.64029  15
   6  -1   1 0.95074 2.78047  18
   6  -1   1 -1.7420 3.64863  16
   6  -1   1 -1.1195 8.06769   6
   6  -1   1 1.33934 0.78719  10
   7  -1   1 -1.3995 2.89295  17
   7  -1   1 -1.1877 3.94427  15
   7  -1   1 -4.8959 2.48973  16
   8  -1   1 3.96619 3.97881  15
   8  -1   1 2.80101 3.10832  16
   8  -1   1 2.87698 3.48276  17
   9  -1   1 40.5844 5.02505  16
   9  -1   1 22.1102 4.98446  17
   9   0  -1 21.4013 3.84514  16
   9   0  -1 21.9044 4.00877  17
   8   0  -1 -5.6445 3.73170  17
   8   0  -1 5.40422 3.81388  18
   8   0  -1 0.86737 3.65620  16
   7   0  -1 342.181 27.6002  16
   7   0  -1 352.127 27.6235  15
   7   0  -1 327.837 27.0233  17
   7   0  -1 324.911 27.1778  18
   6   0  -1 6.27454 3.69845  17
   6   0  -1 4.24141 2.29792  18
   6   0  -1 5.59405 9.25259   7
   6   0  -1 5.05576 2.73844  16
   6   0  -1 2.91840 2.74272  14
   6   0  -1 2.12482 3.24165  15
   6   0  -1 5.14193 0.72900  10
   5   0  -1 12.2669 2.88988  18
   5   0  -1 19.1968 3.17688  14
   5   0  -1 21.2058 8.11123   7
   5   0  -1 14.7649 3.50335  15
   5   0  -1 16.3334 3.22312  16
   5   0  -1 14.1401 1.77854  10
   5   0  -1 14.4437 3.66379  17
   4   0  -1 407.243 31.8200   6
   4   0  -1 349.349 28.1722   4
   4   0  -1 412.110 32.7713   7
   3   0  -1 5.28278 1.73874   3
   3   0  -1 5.54690 2.79576   4
   3   0  -1 7.66745 1.62714   1
   3   0  -1 4.53166 1.50286   2
   3   0  -1 7.03171 1.62353   3
   3   0  -1 5.64719 3.26129   6
   3   0  -1 5.34089 4.42288   7
   3   0  -1 5.38399 1.33633   1
   3   0  -1 5.61304 1.96707   2
  -3   0   1 3.78882 1.31652   1
  -3   0   1 4.50051 1.57688   1
   2   0  -1 194.110 13.7006   2
   2   0  -1 197.662 15.7443   6
   2   0  -1 187.814 12.3449   1
   2   0  -1 168.014 13.9929   4
   2   0  -1 178.937 14.2260   5
   2   0  -1 184.152 13.6984   2
   2   0  -1 192.952 14.6781   3
   2   0  -1 185.260 14.6684   3
   2   0  -1 186.095 12.3185   1
   2   0  -1 205.235 16.2066   7
  -2   0   1 192.215 12.4659   1
  -2   0   1 196.252 12.4211   1
   1   0  -1 41.9182 3.86716   2
   1   0  -1 32.1497 4.69213   7
   1   0  -1 38.9992 3.75343   3
   1   0  -1 41.2998 3.38185   1
   1   0  -1 44.6763 4.78409   6
   1   0  -1 42.1233 3.71975   2
   1   0  -1 41.7890 3.88329   3
   1   0  -1 38.6169 3.94082   4
   1   0  -1 39.8577 3.26640   1
  -1   0   1 42.5964 3.34297   1
  -1   0   1 46.5334 3.32551   1
   0   0  -1 1291.09 76.1413   1
   0   0  -1 1271.30 76.0882   1
   0   0  -1 1212.74 91.5690   3
   0   0  -1 1223.86 84.1413   2
   0   0   1 1293.54 76.1384   1
   0   0   1 1214.71 84.1684   2
   0   0   1 1203.71 91.5454   3
   0   0   1 1278.06 76.0936   1
  -1   0  -1 26.5135 2.12904   1
  -1   0  -1 26.2114 1.99042   1
   1   0   1 25.4224 2.37092   3
   1   0   1 24.2073 1.99486   1
   1   0   1 22.2801 2.29403   2
   1   0   1 26.1639 2.48679   4
   1   0   1 22.6577 2.02527   1
   1   0   1 25.4587 3.78694   6
   1   0   1 24.2356 2.35744   3
   1   0   1 23.5378 2.94583   7
   1   0   1 25.0906 3.55234   5
   1   0   1 23.5926 2.36447   2
  -2   0  -1 1165.30 68.8468   1
  -2   0  -1 1226.65 68.7913   1
   2   0   1 1099.21 82.6872   3
   2   0   1 1127.27 82.6880   3
   2   0   1 1058.10 75.4877   4
   2   0   1 1128.36 78.5818   5
   2   0   1 1165.65 76.0446   2
   2   0   1 1148.45 68.7716   1
   2   0   1 1088.69 80.5893   6
   2   0   1 1081.33 81.7047   7
   2   0   1 1112.75 68.7276   1
   2   0   1 1091.93 75.9980   2
   3   0   1 170.728 15.9433   7
   3   0   1 200.966 16.3113   6
   3   0   1 166.988 13.5651   4
   3   0   1 188.377 15.3868   5
   4   0   1 321.662 24.9897   4
   4   0   1 346.384 29.2253   6
   4   0   1 378.785 29.2925   7
   5   0   1 23.7920 7.84354   6
   5   0   1 21.7312 4.48792  15
   5   0   1 27.0506 3.97908  14
   5   0   1 27.3001 4.94339  17
   5   0   1 24.0648 2.16084  10
   5   0   1 29.4940 4.67112  16
   5   0   1 28.9657 8.09757   7
   6   0   1 12.8887 3.38503  17
   6   0   1 15.2592 4.22951  15
   6   0   1 9.36018 3.25431  13
   6   0   1 15.7146 4.21993  16
   6   0   1 9.13617 3.20973  18
   6   0   1 17.2430 3.31638  14
   6   0   1 -2.3612 8.82800   7
   6   0   1 18.7434 9.02777   6
   7   0   1 5.24279 4.30965  15
   7   0   1 6.80089 2.72331  18
   7   0   1 9.68322 3.53067  16
   7   0   1 20.4202 4.25092  17
   7   0   1 10.0025 3.18830  14
   8   0   1 17.7732 3.94197  15
   8   0   1 9.83062 3.59067  16
   8   0   1 7.34267 4.58523  17
   9   0   1 0.19170 2.61332  16
   9   0   1 -3.2388 2.62523  17
   9  -1  -1 4.79700 2.90828  17
   9  -1  -1 4.87731 2.55893  16
   8  -1  -1 116.353 11.1612  18
   8  -1  -1 118.773 11.1530  16
   8  -1  -1 115.827 11.3202  17
   7  -1  -1 5.66995 4.44270  17
   7  -1  -1 4.33745 3.16656  16
   7  -1  -1 1.57260 3.71227  18
   7  -1  -1 6.79678 3.36805  15
   6  -1  -1 184.904 16.2389  16
   6  -1  -1 205.628 16.9321  15
   6  -1  -1 185.242 12.0522  10
   6  -1  -1 184.447 16.1265  17
   6  -1  -1 203.615 26.4009   7
   6  -1  -1 173.450 16.1575  18
   5  -1  -1 85.8351 8.48281  18
   5  -1  -1 96.3077 8.33177  14
   5  -1  -1 90.5195 9.21797  15
   5  -1  -1 90.7640 9.46437  16
   5  -1  -1 87.9444 6.22966  10
   5  -1  -1 84.9998 8.62935  17
   5  -1  -1 82.1039 15.5536   7
   4  -1  -1 477.399 32.1586   2
   4  -1  -1 495.319 37.2974   6
   4  -1  -1 452.852 38.1391   7
   4  -1  -1 410.202 31.9916   2
   4  -1  -1 473.762 34.7042   3
   4  -1  -1 438.370 34.6105   3
   3  -1  -1 34.1189 4.41197   2
   3  -1  -1 33.6312 6.21809   6
   3  -1  -1 34.7733 4.55669   3
   3  -1  -1 25.4585 4.00405   4
   3  -1  -1 45.6414 6.92006   7
   3  -1  -1 36.7475 4.15248   1
   3  -1  -1 37.3373 5.07442   2
  -3   1   1 27.1304 3.72477   1
  -3   1   1 31.9788 4.06388   1
   2  -1  -1 8.77866 2.36469   3
   2  -1  -1 6.54061 2.08204   1
   2  -1  -1 7.95181 2.10131   4
   2  -1  -1 7.67873 4.28722   6
   2  -1  -1 8.66108 2.21964   1
   2  -1  -1 8.01242 4.33569   7
   2  -1  -1 10.1687 2.58691   3
   2  -1  -1 12.0237 3.08493   2
   2  -1  -1 6.85771 2.48663   2
  -2   1   1 5.79939 2.00138   1
  -2   1   1 14.1562 2.55879   1
   1  -1  -1 227.191 17.6601   6
   1  -1  -1 237.136 14.9159   1
   1  -1  -1 225.402 17.8746   7
   1  -1  -1 204.215 17.5566   3
   1  -1  -1 228.995 17.6650   3
   1  -1  -1 232.890 16.6265   2
  -1   1   1 239.230 15.0364   1
  -1   1   1 236.398 14.8992   1
  -1   1   1 205.583 17.7098   3
   0  -1  -1 281.944 17.7388   1
   0  -1  -1 251.614 21.0895   3
   0  -1  -1 284.483 17.7779   1
   0  -1  -1 277.365 19.7347   2
   0   1   1 289.659 17.8064   1
   0   1   1 276.499 19.6669   2
   0   1   1 302.243 17.7771   1
   0   1   1 270.962 21.2021   3
  -1  -1  -1 130.773 7.89797   1
  -1  -1  -1 121.982 7.84156   1
   1   1   1 125.289 7.86880   1
   1   1   1 115.869 9.31531   3
   1   1   1 114.202 9.19663   6
   1   1   1 116.079 8.68874   2
   1   1   1 108.401 8.68181   2
   1   1   1 122.402 9.14992   4
   1   1   1 116.070 9.44480   5
   1   1   1 126.477 9.34388   7
   1   1   1 126.341 9.37686   3
   1   1   1 121.789 7.82235   1
   2   1   1 1476.08 104.417   6
   2   1   1 1511.11 99.0866   4
   2   1   1 1450.47 106.218   7
   2   1   1 1465.34 102.244   5
   3   1   1 413.333 31.8802   5
   3   1   1 438.626 30.4824   4
   3   1   1 423.751 33.0272   7
   3   1   1 436.412 32.8491   6
   4   1   1 113.068 12.8220   6
   4   1   1 125.185 12.8712   7
   4   1   1 129.677 12.2481   5
   4   1   1 119.564 11.1325   4
   5   1   1 75.6071 10.1559   5
   5   1   1 82.3733 11.6300   7
   5   1   1 78.4716 11.6014   6
   5   1   1 64.9349 8.73444   4
   6   1   1 0.41882 3.04694  16
   6   1   1 -7.2145 4.42739   7
   6   1   1 3.77222 3.03263  17
   6   1   1 1.24994 2.44710  18
   6   1   1 -1.7246 2.83506  13
   6   1   1 -0.4375 1.65564  11
   6   1   1 0.56373 1.81489  14
   6   1   1 3.52536 5.20971   6
   6   1   1 -0.6630 1.99589  15
   7   1   1 144.541 14.7529  13
   7   1   1 191.887 14.9135  14
   7   1   1 169.423 15.1469  15
   7   1   1 176.713 14.8104  18
   7   1   1 169.738 14.9086  16
   7   1   1 161.519 15.0134  17
   8   1   1 282.694 23.5340  18
   8   1   1 307.592 24.3603  16
   8   1   1 292.921 23.9396  17
   8   1   1 291.916 24.5808  15
   9   1   1 7.91375 4.10015  17
   9   1   1 10.4342 3.35517  16
   8  -2  -1 5.07236 4.70898  17
   8  -2  -1 2.24314 2.76691  16
   7  -2  -1 81.5803 9.43453  15
   7  -2  -1 67.2041 8.33846  18
   7  -2  -1 78.7847 9.68267  16
   7  -2  -1 58.7680 8.36981  17
   6  -2  -1 44.8759 15.7088   7
   6  -2  -1 40.1172 7.38246  17
   6  -2  -1 40.2677 3.69820  10
   6  -2  -1 47.5898 7.23291  15
   6  -2  -1 33.0314 6.42281  18
   6  -2  -1 34.6575 6.37423  16
   5  -2  -1 5.24890 1.62189  10
   5  -2  -1 3.62517 2.89812  17
   5  -2  -1 5.88455 6.60706   7
   5  -2  -1 5.16554 3.63616  16
   5  -2  -1 2.36310 3.00776  18
   5  -2  -1 5.99516 3.48185  15
   4  -2  -1 363.068 33.0925   7
   4  -2  -1 356.723 29.3179   3
   4  -2  -1 389.106 31.9281   6
   4  -2  -1 371.347 27.6445   2
   3  -2  -1 8.05312 3.48177   2
   3  -2  -1 16.1584 5.55709   6
   3  -2  -1 10.1761 3.23323   3
   3  -2  -1 6.44666 5.46226   7
   2  -2  -1 14.7752 3.68412   2
   2  -2  -1 18.3316 3.87641   3
   2  -2  -1 13.5877 2.19252   4
   2  -2  -1 13.4917 3.59237   3
   2  -2  -1 22.0045 4.60992   2
   2  -2  -1 15.8755 2.95643   1
   2  -2  -1 20.9112 5.48011   6
   2  -2  -1 22.9428 3.58903   1
   2  -2  -1 22.1148 5.77839   7
  -2   2   1 17.7749 3.55021   1
  -2   2   1 19.6717 3.39681   1
   1  -2  -1 2222.00 151.125   2
   1  -2  -1 2237.48 136.468   1
   1  -2  -1 2323.22 157.065   6
   1  -2  -1 2211.63 136.610   1
   1  -2  -1 2226.04 164.071   3
  -1   2   1 2284.40 136.733   1
  -1   2   1 2326.71 136.643   1
  -1   2   1 2064.54 150.979   2
  -1   2   1 2116.71 164.139   3
   0  -2  -1 294.758 19.2967   1
   0  -2  -1 292.015 21.4436   2
   0  -2  -1 306.087 19.3638   1
   0  -2  -1 286.419 23.0059   3
   0   2   1 307.552 19.4950   1
   0   2   1 272.535 22.9532   3
   0   2   1 300.186 19.2171   1
   0   2   1 286.252 21.2842   2
  -1  -2  -1 -0.9957 1.13256   1
  -1  -2  -1 1.69847 1.37227   3
  -1  -2  -1 0.20408 1.21987   1
   1   2   1 1.89921 1.45205   2
   1   2   1 0.34411 0.53040   1
   1   2   1 2.53377 1.26597   3
   1   2   1 -0.2831 1.13219   1
   1   2   1 0.66048 0.92052   2
   1   2   1 1.26817 1.33989   3
   1   2   1 1.53482 2.21723   4
  -2  -2  -1 -0.8821 1.20294   1
  -2  -2  -1 3.34972 1.50376   1
   2   2   1 0.22828 1.33186   1
   2   2   1 2.51861 1.55768   3
   2   2   1 1.89225 2.76983   4
   2   2   1 2.95251 1.71916   6
   2   2   1 2.05580 1.77939   2
   2   2   1 -0.8095 1.16431   1
   2   2   1 -0.5030 2.62838   5
   2   2   1 2.40957 1.70239   2
   2   2   1 2.28627 1.37124   3
   3   2   1 300.576 24.4928   6
   3   2   1 309.590 23.6838   4
   3   2   1 327.043 24.9371   5
   3   2   1 346.052 25.4420   7
   4   2   1 267.682 22.4705   7
   4   2   1 273.676 21.1444   4
   4   2   1 260.734 21.7173   6
   4   2   1 258.690 22.0004   5
   5   2   1 0.75278 4.40879   5
   5   2   1 7.55066 5.00887   7
   5   2   1 12.4585 4.86081   4
   5   2   1 3.18994 4.64504   6
   6   2   1 27.2346 4.62872  18
   6   2   1 26.4621 4.51692  16
   6   2   1 22.9669 4.23989  15
   6   2   1 28.3488 4.96254  14
   6   2   1 22.0621 3.98996  17
   6   2   1 25.6697 5.09377  13
   6   2   1 23.8351 8.27425   7
   6   2   1 18.7633 3.59106  11
   6   2   1 22.4211 4.23961  12
   7   2   1 7.13200 2.64372  12
   7   2   1 4.72732 2.59685  15
   7   2   1 1.40741 2.87394  14
   7   2   1 3.72158 3.55481  13
   7   2   1 0.60214 3.15587  16
   7   2   1 -0.8014 2.00219  11
   7   2   1 3.66802 2.40595  18
   7   2   1 2.76822 3.19485  17
   8   2   1 3.45992 2.67479  17
   8   2   1 1.45211 3.07708  18
   8   2   1 3.36895 3.65613  15
   8   2   1 0.63937 2.01806  14
   8   2   1 3.69205 2.70719  16
   8   2   1 3.97223 2.18897  11
   9   2   1 -0.0504 2.50039  16
   9   2   1 -0.0258 3.54050  17
   9   2   1 3.76950 2.10773  18
   8  -3  -1 65.6363 7.68606  17
   8  -3  -1 63.9628 6.81992  16
   7  -3  -1 86.6016 10.2149  16
   7  -3  -1 89.4713 10.9686  17
   6  -3  -1 15.6338 4.20677  18
   6  -3  -1 19.3544 4.77665  17
   6  -3  -1 13.3288 2.23298  10
   6  -3  -1 9.64826 4.65782  16
   6  -3  -1 17.5019 4.13155  15
   5  -3  -1 279.762 21.6837  17
   5  -3  -1 248.281 16.6024   9
   5  -3  -1 235.377 21.2314  16
   5  -3  -1 270.625 21.2096  15
   5  -3  -1 263.987 30.8018   7
   5  -3  -1 239.441 20.8711  18
   5  -3  -1 254.030 20.0301   2
   5  -3  -1 232.991 20.9254   3
   5  -3  -1 262.789 16.8641  10
   4  -3  -1 161.339 15.0553   2
   4  -3  -1 160.399 15.2816   3
   4  -3  -1 154.162 13.9945  17
   4  -3  -1 158.743 10.9656   9
   4  -3  -1 152.730 13.7057  18
   4  -3  -1 158.823 13.9189  15
   4  -3  -1 145.970 20.0536   7
   4  -3  -1 146.402 13.8591  16
   4  -3  -1 162.625 10.9767  10
   3  -3  -1 133.024 13.1156   2
   3  -3  -1 123.981 14.7263   7
   3  -3  -1 129.464 15.0919   6
   3  -3  -1 123.926 12.7593   3
   2  -3  -1 67.8313 10.7619   7
   2  -3  -1 93.8009 9.76683   6
   2  -3  -1 74.0797 7.53116   1
   2  -3  -1 78.8296 8.78529   2
  -2   3   1 56.4083 7.57043   1
   1  -3  -1 144.932 11.3470   1
   1  -3  -1 140.003 11.8771   1
   1  -3  -1 154.927 13.5210   3
   1  -3  -1 143.025 13.6114   2
   1  -3  -1 173.494 14.1360   6
  -1   3   1 145.934 11.8113   1
  -1   3   1 153.172 11.7759   1
  -1   3   1 149.328 13.6817   3
  -1   3   1 124.439 13.0646   2
   0  -3  -1 48.1766 6.36199   2
   0  -3  -1 53.2371 6.94664   3
   0  -3  -1 46.3253 5.81050   1
   0  -3  -1 52.6468 5.56498   1
   0   3   1 55.9404 5.45640   1
   0   3   1 55.6022 6.01560   1
   0   3   1 46.3740 6.76805   3
   0   3   1 46.6032 5.97970   2
  -1  -3  -1 97.7741 7.80820   1
  -1  -3  -1 95.5308 7.57200   1
  -1  -3  -1 95.7675 9.27728   3
  -1  -3  -1 70.1738 8.36342   2
   1   3   1 96.7768 8.45088   2
   1   3   1 92.5584 8.41649   4
   1   3   1 90.0086 7.52690   1
   1   3   1 89.8790 7.37409   1
   1   3   1 98.3818 9.26832   3
  -2  -3  -1 137.485 10.0832   1
  -2  -3  -1 142.250 10.3687   1
   2   3   1 128.797 11.5910   3
   2   3   1 130.027 10.1055   1
   2   3   1 133.740 9.94447   1
   2   3   1 151.258 11.3626   2
   2   3   1 137.994 11.9985   5
   2   3   1 136.525 11.7521   4
   2   3   1 150.888 12.1544   3
   2   3   1 120.698 11.3435   2
  -3  -3  -1 53.2754 4.82875   1
  -3  -3  -1 49.9691 4.82152   1
   3   3   1 58.9683 5.44711   2
   3   3   1 61.2629 7.10327   5
   3   3   1 59.5958 5.51634   3
   3   3   1 47.6094 5.59377   2
   3   3   1 59.0197 4.80627   1
   3   3   1 64.0900 5.14636   1
   3   3   1 62.6767 5.76011   3
   3   3   1 58.4089 7.32497   4
   3   3   1 45.8076 5.41750   6
   4   3   1 146.672 13.6404   6
   4   3   1 182.282 15.0509   4
   4   3   1 156.131 15.2784   5
   5   3   1 398.737 30.3785   7
   5   3   1 334.519 29.5080   5
   5   3   1 331.007 28.2001   4
   6   3   1 289.102 20.4137  11
   6   3   1 242.524 21.7121  13
   6   3   1 279.943 21.5108  16
   6   3   1 266.925 22.0730  15
   6   3   1 278.125 21.6006  17
   6   3   1 282.511 21.8964  12
   6   3   1 241.173 23.7179   4
   6   3   1 257.821 21.2630  14
   6   3   1 271.363 21.5496  18
   7   3   1 11.4399 3.35371  13
   7   3   1 9.30836 2.98181  17
   7   3   1 6.81324 2.82585  15
   7   3   1 10.7203 3.93328  12
   7   3   1 9.64143 3.34623  14
   7   3   1 17.8885 3.95560  18
   7   3   1 8.58844 3.57963  16
   7   3   1 14.5363 3.15486  11
   8   3   1 7.54728 2.77547  17
   8   3   1 2.46004 3.02715  11
   8   3   1 6.55774 3.68213  16
   8   3   1 4.70195 3.55505  12
   8   3   1 4.60050 3.32330  18
   8   3   1 3.86156 3.18432  15
   9   3   1 3.82942 2.15961  18
   9   3   1 1.84024 2.41466  17
   7  -4  -1 108.563 10.0637  16
   7  -4  -1 103.601 10.8768  17
   6  -4  -1 0.75541 1.76696  10
   6  -4  -1 -0.5324 2.87291  16
   6  -4  -1 -3.8212 4.68308  17
   5  -4  -1 185.483 18.2117  18
   5  -4  -1 222.037 14.8618  10
   5  -4  -1 247.212 19.1741  15
   5  -4  -1 225.815 19.4859  17
   5  -4  -1 195.417 18.6023  16
   5  -4  -1 217.573 14.5329   9
   5  -4  -1 213.288 31.1159   7
   4  -4  -1 7.06974 2.31689  10
   4  -4  -1 9.15781 5.13607   3
   4  -4  -1 7.69449 3.61595  15
   4  -4  -1 4.82591 5.56858   2
   4  -4  -1 7.80000 2.24016   9
   4  -4  -1 5.01415 3.46072  18
   4  -4  -1 5.31292 4.08659  17
   4  -4  -1 11.5176 3.19277  16
   4  -4  -1 2.34783 9.98168   7
   3  -4  -1 134.452 9.24626   8
   3  -4  -1 155.526 19.0293   7
   3  -4  -1 166.299 15.8307   2
   3  -4  -1 145.756 12.9195  17
   3  -4  -1 159.054 15.5062   3
   3  -4  -1 136.287 9.90450  10
   3  -4  -1 131.132 10.2733   9
   2  -4  -1 58.8467 11.0724   7
   2  -4  -1 51.1656 8.24213   2
   2  -4  -1 45.4830 8.27325   3
   2  -4  -1 57.8626 9.71639   6
   1  -4  -1 3.91940 4.06239   1
   1  -4  -1 1.72107 4.61662   2
   1  -4  -1 2.54148 3.93990   3
   1  -4  -1 -1.7887 2.80711   1
  -1   4   1 -4.5964 3.26570   1
  -1   4   1 0.69584 3.42434   1
   0  -4  -1 51.4723 6.23121   1
   0  -4  -1 46.1636 6.92341   2
   0   4   1 48.3305 5.98584   1
   0   4   1 47.0174 6.71408   2
   0   4   1 58.2099 6.08772   1
   0   4   1 42.6542 6.66166   3
  -1  -4  -1 32.6104 6.05754   3
  -1  -4  -1 21.3610 5.70582   2
  -1  -4  -1 25.0697 4.90616   1
  -1  -4  -1 36.4697 5.37421   1
   1   4   1 26.5154 4.64518   1
   1   4   1 36.5987 6.31947   2
   1   4   1 38.4316 6.24531   3
   1   4   1 40.7094 5.37147   1
   1   4   1 36.2486 5.22034   4
  -2  -4  -1 2.78669 2.74491   1
  -2  -4  -1 -0.5881 2.59941   1
   2   4   1 1.46551 2.93981   2
   2   4   1 3.19510 2.33002   4
   2   4   1 0.97494 2.18719   1
   2   4   1 3.87423 2.45409   1
   2   4   1 -0.1341 2.69334   3
   2   4   1 3.51687 3.86527   5
  -3  -4  -1 -2.3431 2.10549   1
   3   4   1 -0.9726 2.37559   1
   3   4   1 -0.2915 3.43591   5
   3   4   1 2.36075 2.13218   1
   3   4   1 -1.0118 3.25968   2
   3   4   1 1.95825 2.05360   3
   3   4   1 -0.8116 2.09302   2
   3   4   1 4.67049 2.79405   3
   3   4   1 -3.0410 2.99540   4
   4   4   1 0.29443 2.19975   2
   4   4   1 2.54431 1.65527   3
   4   4   1 -1.1927 3.90661   5
   4   4   1 0.77992 1.76015   3
   4   4   1 -1.5676 3.69292   4
   4   4   1 3.96013 1.90340   2
   5   4   1 15.0140 2.87105  18
   5   4   1 10.5777 4.38348   4
   5   4   1 12.2099 1.57129  10
   5   4   1 17.0358 3.67293  12
   5   4   1 19.0554 3.46367  11
   5   4   1 14.7502 4.07331  13
   5   4   1 15.3522 2.81456  17
   5   4   1 14.2794 6.41244   5
   6   4   1 98.6583 10.2185  13
   6   4   1 94.5138 9.94198  16
   6   4   1 107.612 10.1912  12
   6   4   1 116.088 10.3143  18
   6   4   1 121.402 9.96602  11
   6   4   1 97.5670 14.0581   4
   6   4   1 117.581 9.81545  17
   7   4   1 71.6016 8.02010  16
   7   4   1 64.2429 8.54916  12
   7   4   1 60.5271 8.57904  13
   7   4   1 74.5124 7.38962  18
   7   4   1 62.9927 12.4933   4
   7   4   1 69.4119 7.75850  11
   7   4   1 71.6500 7.34508  17
   8   4   1 153.691 13.2193  11
   8   4   1 153.419 14.1904  12
   8   4   1 165.714 14.3265  18
   8   4   1 161.726 13.9262  17
   8   4   1 175.984 14.1207  16
   9   4   1 -1.0895 2.08218  18
   9   4   1 -2.0570 2.02185  11
   7  -5  -1 5.72122 2.73214  16
   7  -5  -1 7.92882 3.78357  17
   6  -5  -1 3.88439 3.69445  17
   6  -5  -1 0.09597 1.68960  10
   6  -5  -1 -0.7185 2.79354  16
   5  -5  -1 -0.1883 2.82528  16
   5  -5  -1 5.01511 2.41710  10
   5  -5  -1 -2.5623 1.92357   9
   5  -5  -1 6.87710 5.59014  17
   4  -5  -1 106.405 8.15166  10
   4  -5  -1 64.5788 13.1106   3
   4  -5  -1 108.588 8.54444   9
   4  -5  -1 79.0161 10.4187  16
   4  -5  -1 101.671 19.2900   7
   4  -5  -1 112.401 10.1410  15
   4  -5  -1 114.967 10.9882  17
   3  -5  -1 13.2333 2.98063  10
   3  -5  -1 5.37926 2.66481   9
   3  -5  -1 21.9492 10.7170   7
   3  -5  -1 9.94779 2.05109   8
   3  -5  -1 10.0668 7.58131   2
   3  -5  -1 2.72563 5.79033   3
   3  -5  -1 11.6197 4.63478  17
   2  -5  -1 17.1107 6.08486   3
   2  -5  -1 14.0780 2.22419   8
   2  -5  -1 22.3354 7.46360   7
   2  -5  -1 14.4154 7.13614   2
   1  -5  -1 286.175 25.1305   3
   1  -5  -1 272.016 24.1828   2
   0  -5  -1 80.9205 9.51748   1
   0  -5  -1 81.3755 12.0072   2
   0  -5  -1 94.8057 11.5909   3
   0  -5  -1 93.4578 10.6053   1
   0   5   1 71.9744 9.65724   1
   0   5   1 95.1922 11.7710   3
   0   5   1 96.8112 11.2332   2
  -1  -5  -1 15.7086 4.18500   1
   1   5   1 25.7242 5.53011   3
   1   5   1 31.6768 5.69593   2
   1   5   1 20.2260 4.43970   1
   1   5   1 22.3836 4.53098   1
   1   5   1 37.0620 5.19853   4
   2   5   1 271.673 21.4419   3
   2   5   1 208.575 17.8294   1
   2   5   1 241.071 20.1128   2
   2   5   1 244.869 19.2373   4
   3   5   1 299.310 26.9203   3
   3   5   1 348.305 27.4628   5
   3   5   1 364.248 25.7270   2
   3   5   1 302.969 25.4498   4
   4   5   1 -0.7062 3.70002   4
   4   5   1 -0.4671 2.25442   2
   4   5   1 9.15898 3.06895   3
   4   5   1 0.77631 3.74117   5
   5   5   1 2.38999 1.74148  18
   5   5   1 0.92677 1.17142  10
   5   5   1 2.43237 3.18777  13
   5   5   1 1.79590 2.34430  11
   5   5   1 -1.5881 4.84089   4
   5   5   1 6.72387 7.04869   5
   5   5   1 0.92950 2.27881  17
   5   5   1 1.77986 2.89218  12
   6   5   1 47.3694 10.7506   4
   6   5   1 45.5495 6.99956  12
   6   5   1 49.1599 5.92212  17
   6   5   1 38.2981 5.10333  11
   6   5   1 38.9860 2.96363  10
   6   5   1 36.8495 6.93642  13
   6   5   1 46.7946 5.33632  18
   7   5   1 18.9406 5.11443  13
   7   5   1 17.3393 3.86468  18
   7   5   1 19.4036 3.76714  11
   7   5   1 21.7132 3.87092  17
   7   5   1 1.50942 8.90068   4
   7   5   1 16.8882 4.25058  12
   8   5   1 56.5974 7.25480  12
   8   5   1 55.7595 7.03983  11
   8   5   1 55.1586 6.38323  18
   9   5   1 110.471 9.17112  11
   9   5   1 91.3136 10.3381  12
   9   5   1 109.842 9.56048  18
   6  -6  -1 10.8247 3.61612  17
   6  -6  -1 4.62522 1.68213  10
   5  -6  -1 7.88419 4.36928  17
   5  -6  -1 15.1100 3.20676  10
   4  -6  -1 -2.1986 2.54003   9
   4  -6  -1 8.29513 5.16814  17
   4  -6  -1 -1.6258 2.56922  10
   3  -6  -1 -6.5956 7.04549   3
   3  -6  -1 5.20879 2.80599  10
   3  -6  -1 7.49830 2.17297   8
   3  -6  -1 1.78915 6.62964   2
   3  -6  -1 7.07322 3.68443  17
   3  -6  -1 -4.9907 7.94656   7
   3  -6  -1 8.43898 2.68505   9
   2  -6  -1 250.603 18.2960   9
   2  -6  -1 232.329 25.8637   3
   2  -6  -1 275.346 27.0014   2
   2  -6  -1 267.907 17.1257   8
   1  -6  -1 17.2755 7.67246   3
   1  -6  -1 28.9007 4.40662   8
   1  -6  -1 28.6423 9.96593   2
   1   6   1 328.807 27.4785   3
   1   6   1 281.032 25.3159   2
   2   6   1 183.869 17.7175   3
   2   6   1 189.487 16.0256   4
   2   6   1 168.638 16.7035   2
   3   6   1 24.6323 6.28285   2
   3   6   1 23.2956 6.45494   5
   3   6   1 22.3979 6.14918   3
   3   6   1 18.7455 5.76662   4
   4   6   1 31.4221 6.27294   2
   4   6   1 33.1430 6.17242  13
   4   6   1 28.3416 8.09330   5
   4   6   1 34.8341 3.49036  10
   4   6   1 33.9413 5.39441  12
   4   6   1 32.4203 3.40730   9
   4   6   1 26.2895 3.77740  11
   4   6   1 37.8636 4.30293  18
   4   6   1 31.8579 6.52042   3
   4   6   1 41.5103 8.32711   4
   5   6   1 189.324 12.8863   9
   5   6   1 199.219 17.3151  13
   5   6   1 198.128 13.1633  10
   5   6   1 176.425 23.3018   5
   5   6   1 192.542 15.1819   2
   5   6   1 193.668 16.5726  12
   5   6   1 201.045 19.4797   4
   5   6   1 217.232 16.3391  18
   5   6   1 203.268 15.5691  11
   5   6   1 197.368 16.1126   3
   6   6   1 87.0889 8.20514  18
   6   6   1 71.4383 8.95711  12
   6   6   1 76.5870 13.9359   4
   6   6   1 72.8773 9.78209  13
   6   6   1 64.9478 5.31213  10
   6   6   1 84.8453 8.00749  11
   7   6   1 46.8329 5.55105  18
   7   6   1 41.5911 6.07588  11
   7   6   1 39.4311 7.84092  13
   7   6   1 29.4407 6.09597  12
   8   6   1 -1.2300 2.96286  11
   8   6   1 3.06867 3.11070  13
   8   6   1 -3.7847 2.82861  12
   8   6   1 0.89623 2.10677  18
   9   6   1 28.0694 4.89708  11
   9   6   1 20.7851 4.08822  12
   6  -7  -1 3.37904 2.78842  17
   5  -7  -1 4.66099 1.85229  10
   5  -7  -1 0.17631 4.83188  17
   4  -7  -1 43.1145 8.70595  17
   4  -7  -1 42.1249 5.45415   9
   4  -7  -1 36.4215 4.81435  10
   3  -7  -1 1.94359 2.17580   9
   3  -7  -1 -3.5385 3.31769  17
   3  -7  -1 0.62905 1.68961   8
   3  -7  -1 -3.0719 2.84422  10
   2  -7  -1 22.7219 9.80596   7
   2  -7  -1 -0.8990 9.49614   3
   2  -7  -1 11.9958 3.76384   9
   2  -7  -1 10.3678 2.91448   8
   2  -7  -1 1.77157 12.8374   2
   1  -7  -1 0.74985 2.63967   8
   1  -7  -1 4.25948 10.2880   7
   1   7   1 484.151 37.3063   2
   1   7   1 416.686 38.4516   3
   1   7   1 431.902 27.8169   8
   2   7   1 45.9211 8.69781   5
   2   7   1 27.1042 6.94728   2
   2   7   1 26.4308 3.39628   8
   2   7   1 21.4696 3.27307   9
   2   7   1 27.6123 7.67883   3
   3   7   1 44.6253 7.41732   4
   3   7   1 49.9803 4.06896   8
   3   7   1 57.9465 10.0103   3
   3   7   1 46.9420 4.79641   9
   3   7   1 51.4885 9.47226   2
   3   7   1 45.9366 4.80560  10
   3   7   1 39.3116 5.24812  12
   3   7   1 54.5570 11.4902   5
   4   7   1 6.81079 8.78583   5
   4   7   1 18.4044 3.97239  12
   4   7   1 11.8539 2.97614  11
   4   7   1 13.6298 6.48007   4
   4   7   1 17.9019 4.19079  13
   4   7   1 17.1212 5.58594   3
   4   7   1 18.7656 2.60921  10
   4   7   1 14.7749 2.56154   9
   4   7   1 11.5656 6.35384   2
   5   7   1 44.7092 8.62631   2
   5   7   1 55.4448 11.2366   4
   5   7   1 64.2242 6.63655  11
   5   7   1 62.7409 5.16278  10
   5   7   1 61.1838 8.92856  13
   5   7   1 55.7702 7.69759  12
   5   7   1 52.0384 8.50034   3
   5   7   1 40.2636 14.1638   5
   5   7   1 61.0428 4.80548   9
   6   7   1 3.18371 8.67280   4
   6   7   1 7.38902 3.16682  12
   6   7   1 5.31970 2.44272  11
   6   7   1 4.15963 3.35254  18
   6   7   1 6.60458 1.58375  10
   6   7   1 12.5412 5.42689  13
   7   7   1 8.98954 3.35302  11
   7   7   1 9.63381 4.41640  13
   7   7   1 9.19913 4.76712  12
   8   7   1 31.1930 5.95016  13
   8   7   1 28.8122 4.48555  11
   8   7   1 37.3550 6.13740  12
   9   7   1 3.03420 2.91611  12
   9   7   1 -0.1694 1.91751  11
   5  -8  -1 13.5366 2.56739  10
   5  -8  -1 17.9869 3.66867  17
   4  -8  -1 177.070 13.3955  10
   4  -8  -1 207.460 17.3157  17
   3  -8  -1 33.9517 5.91704  10
   3  -8  -1 36.2465 6.23836   9
   3  -8  -1 39.2420 6.88119  17
   2  -8  -1 38.3539 4.20406   8
   2  -8  -1 19.5051 4.60334   9
   1  -8  -1 61.5780 14.5499   7
   1  -8  -1 39.2261 4.80428   8
   0  -8  -1 -3.9048 2.02339   8
   1   8   1 152.859 10.7610   8
   2   8   1 3.82939 1.48425   8
   2   8   1 5.35304 7.82612   3
   2   8   1 6.98754 2.67267   9
   2   8   1 12.8559 8.75295   2
   2   8   1 9.17707 8.41338   5
   3   8   1 245.572 16.7867  10
   3   8   1 251.301 15.8434   8
   3   8   1 221.023 19.5960  12
   3   8   1 261.911 17.2622   9
   3   8   1 263.216 24.7718   2
   3   8   1 214.570 24.5194   3
   4   8   1 40.9361 7.30194  13
   4   8   1 14.9883 7.37317   2
   4   8   1 20.8372 3.31988  10
   4   8   1 21.0283 4.00909  12
   4   8   1 22.3786 3.39732   9
   4   8   1 18.2781 11.3195   5
   4   8   1 17.6557 7.15821   3
   4   8   1 22.8717 8.03885   4
   5   8   1 14.9358 2.60814  10
   5   8   1 15.2482 4.49598  13
   5   8   1 14.6653 4.25021  12
   5   8   1 10.7751 3.13658  11
   5   8   1 6.73452 8.51128   4
   5   8   1 23.3122 2.83718   9
   5   8   1 -12.562 14.1082   5
   6   8   1 10.8077 4.53528  13
   6   8   1 10.2140 4.24546  12
   6   8   1 5.55396 3.13587  11
   6   8   1 3.90836 1.69091  10
   7   8   1 -0.7912 2.79778  12
   7   8   1 5.28543 4.07309  13
   7   8   1 -2.1816 2.80825  11
   8   8   1 26.0796 4.76375  11
   8   8   1 28.8274 5.53575  12
   8   8   1 18.8067 4.86392  13
   9   8   1 5.24716 1.97569  11
   9   8   1 2.37093 2.47001  12
   4  -9  -1 -2.6765 3.61756  17
   3  -9  -1 1.70959 2.21150  10
   3  -9  -1 1.48389 4.63990  17
   2  -9  -1 39.1073 6.79023   9
   2  -9  -1 54.8240 5.54534   8
   2  -9  -1 64.2259 7.87947  17
   1  -9  -1 -0.0916 2.87289   8
   0  -9  -1 26.6247 3.95372   8
   0   9   1 28.8945 4.88049   8
   1   9   1 -8.8042 10.3880   5
   1   9   1 0.30667 2.05003   8
   2   9   1 11.9955 2.64971   8
   2   9   1 8.69762 2.67367   9
   2   9   1 2.21441 10.3524   5
   3   9   1 -4.8702 10.9812   5
   3   9   1 10.6619 2.45559  10
   3   9   1 11.4729 2.23743   8
   3   9   1 10.8781 2.68724   9
   4   9   1 351.979 26.0050  13
   4   9   1 252.341 23.8729  12
   4   9   1 307.857 20.3766  10
   4   9   1 309.461 20.7099   9
   4   9   1 294.174 31.7740   5
   5   9   1 68.3167 5.86733   9
   5   9   1 56.9729 7.44321  12
   5   9   1 74.6824 6.29096  10
   5   9   1 77.2059 8.98792  13
   6   9   1 62.6317 5.33317  10
   6   9   1 52.0772 7.21528  12
   6   9   1 55.7988 9.96858  13
   6   9   1 63.8494 6.43499  11
   7   9   1 -0.7870 1.81457  11
   7   9   1 1.57950 2.72500  12
   7   9   1 1.10193 3.66168  13
   8   9   1 16.1407 2.95371  11
   8   9   1 16.0489 4.36506  12
   3 -10  -1 4.28995 2.59173  17
   2 -10  -1 17.6404 4.11327  17
   2 -10  -1 9.29223 2.72803   9
   1 -10  -1 19.1181 2.94414   8
   0 -10  -1 19.8509 3.97451   8
   0  10   1 24.9191 3.72262   8
   1  10   1 7.00361 2.08219   8
   2  10   1 -1.1763 1.95058   9
   2  10   1 -2.3671 1.78503   8
   3  10   1 0.64842 3.81302  13
   3  10   1 -1.4433 2.65413   9
   3  10   1 0.78960 1.44263   8
   3  10   1 3.95397 2.48883  10
   4  10   1 3.34658 4.04700  13
   4  10   1 2.64795 2.24195   9
   4  10   1 0.22922 2.38855  10
   5  10   1 2.31664 1.76039   9
   5  10   1 2.01655 2.53608  12
   5  10   1 0.18313 2.06751  10
   5  10   1 1.26687 3.29797  13
   6  10   1 38.5242 6.99677  13
   6  10   1 40.4910 4.03188  10
   6  10   1 34.3493 5.32830  12
   7  10   1 71.2371 8.10696  12
   7  10   1 80.8079 9.33087  13
   8  10   1 17.5934 3.27167  12
   1 -11  -1 8.98252 3.36268  17
   0  11   1 2.41253 1.51310   8
  -1 -11  -1 -0.7359 2.10195   8
   1  11   1 2.08965 1.53754   8
   2  11   1 32.1915 5.37332   9
   3  11   1 85.8952 8.69783  13
   3  11   1 77.4166 7.03815   9
   4  11   1 33.9955 4.33564  10
   4  11   1 45.2377 7.03551  13
   5  11   1 20.5627 4.06385  13
   5  11   1 15.7485 2.49661  10
   6  11   1 37.5475 5.17150  13
   6  11   1 20.4775 3.79599  12
   6  11   1 27.2681 3.13295  10
  -1 -12  -1 3.32850 1.81357   8
   1  12   1 0.72425 1.68723  13
   2  12   1 1.58711 2.15234  13
   3  12   1 22.8963 4.11948  13
   4  12   1 -1.0432 2.10318  10
   4  12   1 2.74246 3.35861  13
   5  12   1 33.1067 3.63034  10
   3  12  -2 1.66549 2.10566  13
   3  12  -2 2.81124 1.36253   9
   2  12  -2 -0.0057 1.50449   9
   2  12  -2 -0.9526 1.92946  13
   6  11  -2 37.9016 4.49985  12
   6  11  -2 40.0781 3.38642  10
   5  11  -2 4.94490 2.74176  13
   5  11  -2 0.58985 1.95171  10
   4  11  -2 2.67054 2.62351  13
   4  11  -2 1.76541 1.91604   9
   4  11  -2 2.59224 2.36066  10
   3  11  -2 0.38304 2.50070   9
   3  11  -2 2.59948 2.64571  13
   2  11  -2 15.7817 3.00390   9
   2  11  -2 19.9206 2.81521   8
   1  11  -2 2.12895 1.34848   8
  -1 -11   2 6.56294 3.24031   8
   0  11  -2 0.37646 1.37416   8
   0 -11   2 3.84561 2.40085   8
  -1  11  -2 20.5923 2.72355   8
   1 -11   2 8.70399 3.13991  17
   1 -11   2 15.7147 2.05463   8
   1 -11   2 14.8996 2.91340   9
   7  10  -2 0.61941 2.04623  12
   6  10  -2 14.9731 2.30784  10
   6  10  -2 13.6977 3.34899  12
   5  10  -2 53.3144 7.05397  13
   5  10  -2 57.9247 5.05523  10
   5  10  -2 47.4014 6.30398  12
   5  10  -2 57.3136 4.33106   9
   4  10  -2 67.1294 8.98491  13
   4  10  -2 49.3000 6.70328  12
   4  10  -2 66.5666 6.40193  10
   4  10  -2 69.6481 5.71426   9
   3  10  -2 96.3848 8.10087   9
   3  10  -2 85.5829 6.46888   8
   2  10  -2 18.7611 2.76580   8
   2  10  -2 14.6568 3.69033   9
   1  10  -2 -1.1043 1.48959   8
   0  10  -2 4.27771 2.01697   8
   0 -10   2 3.39136 3.14674   8
   1 -10   2 4.77128 2.53943   8
   2 -10   2 6.66041 3.28168  17
   2 -10   2 6.79420 3.03135   9
   3 -10   2 0.27677 1.63956   9
   3 -10   2 1.23170 2.24930  17
   8   9  -2 84.4969 8.02097  12
   7   9  -2 100.372 9.83418  12
   6   9  -2 16.2395 4.62428  12
   6   9  -2 4.22036 1.79934  10
   6   9  -2 5.61769 4.65200  13
   5   9  -2 5.17062 1.88946  10
   5   9  -2 0.97252 1.51408   9
   5   9  -2 4.55322 2.92649  12
   5   9  -2 5.76069 4.60636  13
   4   9  -2 3.80412 3.58725  13
   4   9  -2 15.9288 3.11315  10
   4   9  -2 10.7539 2.60541   9
   4   9  -2 8.57074 3.83374  12
   3   9  -2 22.6174 4.60683  12
   3   9  -2 32.8428 4.76353   9
   3   9  -2 19.4059 3.22583   8
   3   9  -2 20.2014 3.45224  10
   2   9  -2 29.1383 4.32675   9
   2   9  -2 34.0915 4.23476   8
   1   9  -2 153.473 10.9568   8
   0   9  -2 191.599 13.5505   8
   0  -9   2 197.934 14.1543   8
   1  -9   2 -1.6009 2.81086   8
   2  -9   2 14.2739 2.54546   8
   2  -9   2 13.3782 3.17206   9
   3  -9   2 2.82820 2.64192   9
   3  -9   2 2.35198 3.29688  10
   3  -9   2 0.43949 3.28485  17
   4  -9   2 -0.2003 2.49524  10
   4  -9   2 1.90017 2.71584  17
   8   8  -2 -7.4256 3.89472  12
   8   8  -2 0.11621 1.90163  11
   7   8  -2 49.7920 6.97354  12
   7   8  -2 43.1679 5.99485  11
   6   8  -2 7.79921 3.54645  12
   6   8  -2 6.96732 3.60723  13
   6   8  -2 6.48119 2.41409  11
   6   8  -2 4.92973 1.67024  10
   5   8  -2 80.0745 6.40816   9
   5   8  -2 84.8784 10.6735  13
   5   8  -2 78.8412 7.72029  11
   5   8  -2 88.1234 9.03706  12
   5   8  -2 77.9357 6.85438  10
   4   8  -2 121.727 19.7438   5
   4   8  -2 137.156 9.60875  10
   4   8  -2 108.958 12.9334  13
   4   8  -2 124.101 11.3737  12
   4   8  -2 120.195 9.41869   9
   4   8  -2 99.0474 14.5402   4
   3   8  -2 -3.9658 10.6075   5
   3   8  -2 24.4298 3.23320   8
   3   8  -2 19.9305 3.53766  10
   3   8  -2 14.2417 8.22443   3
   3   8  -2 24.6576 4.20908   9
   3   8  -2 24.2612 4.43190  12
   3   8  -2 17.4640 9.41309   2
   2   8  -2 -12.311 7.81533   3
   2   8  -2 -1.7276 2.47885  12
   2   8  -2 -0.5750 1.19166   8
   2   8  -2 -0.9627 2.49167   9
   2   8  -2 -2.3097 9.45373   2
   1   8  -2 44.2885 4.83676   8
   0  -8   2 189.113 14.2923   8
   1  -8   2 56.1455 5.88435   8
   2  -8   2 5.72046 2.02772   8
   2  -8   2 8.89944 3.88636   9
   3  -8   2 4.57762 3.61478  10
   3  -8   2 16.2490 4.77704  17
   3  -8   2 17.4153 3.94700   9
   4  -8   2 13.7216 2.26346   9
   4  -8   2 13.0053 2.84439  10
   4  -8   2 18.6088 4.37937  17
   5  -8   2 22.9348 4.56920  17
   5  -8   2 15.7410 2.52120  10
   9   7  -2 28.1343 3.61713  11
   8   7  -2 60.9199 7.70263  12
   8   7  -2 58.2861 6.19508  11
   7   7  -2 84.2627 8.87069  18
   7   7  -2 79.5477 7.81017  11
   7   7  -2 81.0827 10.5698  12
   6   7  -2 15.4818 2.55983  10
   6   7  -2 15.0423 3.28893  11
   6   7  -2 19.8949 3.92702  18
   6   7  -2 18.5553 4.53618  12
   5   7  -2 28.3922 3.77407  10
   5   7  -2 27.5290 4.20310  11
   5   7  -2 36.7537 8.32950   2
   5   7  -2 29.0408 6.29213  13
   5   7  -2 27.3203 5.03982  12
   5   7  -2 28.7712 3.49645   9
   5   7  -2 29.4854 10.1456   4
   5   7  -2 40.9596 4.66705  18
   4   7  -2 523.027 56.1843   5
   4   7  -2 739.344 44.1287  10
   4   7  -2 727.499 56.4276   3
   4   7  -2 681.525 52.6731   4
   4   7  -2 771.206 53.2019   2
   4   7  -2 634.776 49.0842  11
   4   7  -2 695.768 54.0156  13
   4   7  -2 689.500 45.1251   9
   4   7  -2 740.153 52.8302  12
   3   7  -2 2.41408 6.34392   2
   3   7  -2 4.86179 2.26995  10
   3   7  -2 6.11600 5.69471   4
   3   7  -2 7.10295 2.30555   9
   3   7  -2 5.07007 8.36919   5
   3   7  -2 5.59164 2.93013  12
   3   7  -2 6.61449 1.69496   8
   3   7  -2 5.29614 4.35900   3
   2   7  -2 1.95132 1.88934  12
   2   7  -2 0.98210 1.65313   8
   2   7  -2 -6.1956 5.42407   3
   2   7  -2 -4.6568 6.30974   2
   2   7  -2 2.97601 1.77769   9
   1   7  -2 -0.2325 1.31011   8
   1  -7   2 18.8863 3.65675   8
   2  -7   2 89.3627 17.1046   2
   2  -7   2 40.0181 13.0780   3
   2  -7   2 106.379 8.13337   8
   2  -7   2 97.9869 8.39145   9
   2  -7   2 96.8438 18.7941   7
   3  -7   2 113.862 9.43668  10
   3  -7   2 117.085 8.30375   8
   3  -7   2 111.586 9.49894   9
   4  -7   2 2.17635 2.21706  10
   4  -7   2 4.78717 2.79890   9
   4  -7   2 5.00660 3.91613  17
   5  -7   2 4.06902 1.90444  10
   5  -7   2 5.43887 3.64864  17
   6  -7   2 7.11266 2.77849  17
   9   6  -2 -0.3498 2.08479  11
   8   6  -2 2.21034 3.24937  18
   8   6  -2 1.14644 2.08509  11
   8   6  -2 1.45707 4.86834  12
   7   6  -2 31.3969 5.81971  11
   7   6  -2 31.2502 5.77491  18
   7   6  -2 36.2230 6.84325  12
   6   6  -2 6.27948 2.73709  11
   6   6  -2 2.85202 1.32262  10
   6   6  -2 2.27224 6.06435   4
   6   6  -2 7.67834 3.37154  18
   6   6  -2 8.62868 3.59588  12
   5   6  -2 2.37853 2.56770  11
   5   6  -2 -1.6788 4.07353   2
   5   6  -2 3.40827 4.70942   4
   5   6  -2 -0.9866 2.38549  12
   5   6  -2 2.12366 1.25615   9
   5   6  -2 -0.2208 2.52584  13
   5   6  -2 0.48380 4.22802   3
   5   6  -2 3.12434 1.49734  10
   5   6  -2 2.81817 2.05371  18
   4   6  -2 126.672 12.2295  13
   4   6  -2 106.775 10.5962  11
   4   6  -2 137.955 11.7014  12
   4   6  -2 140.421 9.44260   9
   4   6  -2 137.863 14.2915   3
   4   6  -2 133.530 9.19567  10
   4   6  -2 142.984 15.6313   4
   4   6  -2 102.286 17.7292   5
   4   6  -2 126.240 11.3135  18
   4   6  -2 145.792 14.1999   2
   3   6  -2 17.4864 6.70731   5
   3   6  -2 20.3142 6.41927   4
   3   6  -2 13.7053 2.31965   9
   3   6  -2 13.7112 2.26561   8
   3   6  -2 19.2085 3.53147  12
   3   6  -2 8.73645 5.26357   3
   3   6  -2 18.6692 6.09562   2
   3   6  -2 15.6258 2.59038  10
   2   6  -2 66.5349 10.0258   3
   2   6  -2 61.7361 9.76168   2
   2   6  -2 46.9343 7.29760   4
   1   6  -2 186.212 17.3647   2
   1   6  -2 158.989 18.1652   3
   1  -6   2 -2.9106 8.50894   2
   1  -6   2 -2.5236 4.17060   3
   1  -6   2 1.69948 2.04275   8
   2  -6   2 5.30038 7.87855   7
   2  -6   2 2.16579 6.56610   2
   2  -6   2 0.61408 1.61722   8
   2  -6   2 4.87091 2.33612   9
   2  -6   2 1.50926 6.75967   3
   3  -6   2 82.2224 6.21422   8
   3  -6   2 61.2244 15.5033   7
   3  -6   2 57.3327 13.1656   2
   3  -6   2 57.2639 12.0329   3
   3  -6   2 72.1005 7.53403  10
   3  -6   2 82.4209 7.00267   9
   3  -6   2 66.5563 9.32472  16
   4  -6   2 -2.8955 5.45600  17
   4  -6   2 -1.1368 2.02463  10
   4  -6   2 -1.0785 4.12072  16
   4  -6   2 0.73496 2.62143   9
   5  -6   2 4.83248 4.02270  17
   5  -6   2 0.88598 2.99549  16
   5  -6   2 0.66191 2.49339  10
   6  -6   2 166.811 15.3508  17
   6  -6   2 162.257 10.6374  10
   6  -6   2 146.496 13.4304  16
   9   5  -2 48.3358 5.32292  18
   9   5  -2 40.1553 5.23033  11
   8   5  -2 29.1259 5.93134  12
   8   5  -2 37.3047 5.16569  11
   8   5  -2 36.9454 5.29114  18
   7   5  -2 97.7689 9.36459  11
   7   5  -2 92.5604 11.5684  12
   7   5  -2 104.624 9.87160  17
   7   5  -2 103.818 9.79550  18
   6   5  -2 267.820 17.4513  10
   6   5  -2 233.693 25.0946   4
   6   5  -2 269.749 22.1841  18
   6   5  -2 276.898 23.0017  12
   6   5  -2 308.084 22.3155  17
   6   5  -2 260.599 20.8216  11
   5   5  -2 735.280 55.8823  18
   5   5  -2 753.041 55.1824   3
   5   5  -2 805.015 55.6126  17
   5   5  -2 756.265 50.9786   2
   5   5  -2 749.923 56.2384   4
   5   5  -2 724.374 52.6428  11
   5   5  -2 745.376 46.3248  10
   5   5  -2 721.138 56.1656  12
   5   5  -2 686.524 47.0453   9
   4   5  -2 24.3655 7.74903   5
   4   5  -2 30.4388 5.67874   2
   4   5  -2 35.3331 5.28965  12
   4   5  -2 30.7039 5.98300   3
   4   5  -2 33.1185 4.40666  18
   4   5  -2 27.0500 7.50153   4
   4   5  -2 27.2308 3.67581  11
   4   5  -2 27.0705 3.09203  10
   4   5  -2 28.0748 3.01531   9
   3   5  -2 42.8240 7.07321   2
   3   5  -2 41.5283 7.38596   3
   3   5  -2 46.8187 8.97760   5
   3   5  -2 39.2631 7.40084   4
   2   5  -2 3.08025 2.90183   2
   2   5  -2 0.82315 3.24059   3
   2   5  -2 6.59846 3.84237   4
   1   5  -2 921.893 60.2178   4
   1   5  -2 779.288 56.0294   1
   1   5  -2 948.182 62.6624   2
   1   5  -2 906.888 67.5719   3
  -1  -5   2 752.528 56.3328   1
   0   5  -2 0.13432 4.30309   2
   0   5  -2 -3.2535 4.44634   3
   0  -5   2 0.38067 5.71373   2
   0  -5   2 -0.4872 4.55606   3
   1  -5   2 -0.6502 4.56394   3
   1  -5   2 -5.4627 4.57596   6
   1  -5   2 -2.5602 3.99462   2
   2  -5   2 211.791 17.2461   9
   2  -5   2 247.578 16.3219   8
   2  -5   2 279.891 24.6124   3
   2  -5   2 262.415 23.3252   6
   2  -5   2 293.572 24.8296   2
   3  -5   2 7.35700 7.96577   7
   3  -5   2 -1.5245 7.44363   2
   3  -5   2 7.03402 3.06616  16
   3  -5   2 0.55444 5.51942   3
   3  -5   2 6.64553 6.36796   6
   3  -5   2 9.34209 2.93939   9
   3  -5   2 9.33837 2.89433  10
   3  -5   2 4.68223 1.80990   8
   4  -5   2 -0.8931 2.33599   9
   4  -5   2 4.78632 13.5985   7
   4  -5   2 -4.8663 10.7742   6
   4  -5   2 -0.4907 5.13140  17
   4  -5   2 -0.0062 3.87651  16
   4  -5   2 4.01701 1.98129  10
   4  -5   2 15.4269 8.63802   2
   5  -5   2 34.7005 4.08901  10
   5  -5   2 28.5615 7.47330  17
   5  -5   2 24.2389 6.00489  16
   5  -5   2 28.5312 5.12414  15
   5  -5   2 37.9824 4.01076   9
   6  -5   2 110.008 11.7821  17
   6  -5   2 91.7393 10.6226  16
   6  -5   2 121.618 8.26529  10
   7  -5   2 4.52105 3.40308  17
   7  -5   2 -0.4585 2.53436  16
   9   4  -2 75.1595 7.40712  18
   9   4  -2 54.8719 6.27852  11
   8   4  -2 8.38310 4.09572  17
   8   4  -2 7.41343 2.95935  11
   8   4  -2 5.69262 3.58482  18
   7   4  -2 30.4276 5.93078  17
   7   4  -2 19.9226 4.58028  11
   7   4  -2 18.3925 5.22207  12
   7   4  -2 29.9356 5.49632  18
   6   4  -2 153.264 20.2740   4
   6   4  -2 178.459 14.7498  11
   6   4  -2 179.113 16.3016  12
   6   4  -2 182.014 11.7373  10
   6   4  -2 200.341 15.7464  17
   6   4  -2 187.495 15.6020  18
   5   4  -2 60.0802 7.22819  12
   5   4  -2 66.8850 6.94244  18
   5   4  -2 88.6566 12.0996   4
   5   4  -2 74.4136 7.47862  17
   5   4  -2 69.9419 6.75626  11
   5   4  -2 74.3854 5.12055  10
   4   4  -2 383.226 28.1137   3
   4   4  -2 338.928 28.1674   4
   4   4  -2 351.204 25.8383   2
   4   4  -2 296.610 27.8822   5
   3   4  -2 232.576 17.4178   2
   3   4  -2 212.789 18.7414   5
   3   4  -2 205.155 18.3827   3
   3   4  -2 192.553 17.7446   4
   2   4  -2 621.041 41.5883   1
   2   4  -2 579.070 41.8530   1
   2   4  -2 709.931 50.2325   3
   2   4  -2 675.003 46.2886   2
   2   4  -2 648.424 45.7327   4
  -2  -4   2 607.427 42.0228   1
   1   4  -2 339.836 22.6220   1
   1   4  -2 324.232 23.7279   4
   1   4  -2 287.948 22.4797   1
   1   4  -2 365.084 27.1710   3
   1   4  -2 333.675 25.0049   2
  -1  -4   2 317.375 22.7522   1
  -1  -4   2 264.508 25.6229   2
  -1  -4   2 305.879 27.0419   3
  -1  -4   2 335.549 23.4552   1
   0   4  -2 69.0539 6.75090   4
   0   4  -2 70.6947 7.98949   1
   0   4  -2 82.3709 9.35417   2
   0   4  -2 73.6122 8.14099   1
   0   4  -2 74.8004 9.68203   3
   0  -4   2 81.3272 9.81027   3
   0  -4   2 66.5119 10.2059   2
   0  -4   2 68.7206 7.92843   1
   0  -4   2 75.2436 8.63159   6
   0  -4   2 74.8336 8.81249   1
  -1   4  -2 94.8872 10.0048   1
   1  -4   2 122.161 12.0238   3
   1  -4   2 109.546 11.4123   1
   1  -4   2 95.0265 12.5392   2
   1  -4   2 121.514 12.2621   6
   2  -4   2 994.469 74.2816   6
   2  -4   2 995.537 71.6770   2
   2  -4   2 978.405 76.6154   3
   3  -4   2 36.1453 4.33356   9
   3  -4   2 31.5098 7.19497   3
   3  -4   2 32.6605 2.97299   8
   3  -4   2 22.2421 7.25078   2
   3  -4   2 26.9529 4.97542  16
   3  -4   2 27.8000 4.31925  10
   3  -4   2 40.8598 9.84783   6
   3  -4   2 37.3261 10.8674   7
   4  -4   2 8.80695 4.91852  17
   4  -4   2 7.78382 4.66712   3
   4  -4   2 10.8751 9.52943   6
   4  -4   2 4.78001 3.70330  15
   4  -4   2 6.05538 8.12457   7
   4  -4   2 9.85453 2.29466   9
   4  -4   2 -3.3840 5.33784   2
   4  -4   2 10.9706 4.34778  16
   4  -4   2 8.75733 2.63805  10
   5  -4   2 13.5187 6.48441   2
   5  -4   2 6.88537 2.50549  10
   5  -4   2 11.1581 3.57925  15
   5  -4   2 10.0923 5.26441  17
   5  -4   2 8.93962 3.52177  16
   5  -4   2 18.9133 10.0715   6
   5  -4   2 6.66487 1.93137   9
   5  -4   2 4.96090 11.1196   7
   6  -4   2 11.0794 4.61441  15
   6  -4   2 6.17918 3.57269  16
   6  -4   2 5.82726 2.06150  10
   6  -4   2 4.52454 4.00957  17
   7  -4   2 15.4157 4.58719  17
   7  -4   2 10.9559 4.71560  16
   9   3  -2 72.6996 7.90757  11
   9   3  -2 81.3343 8.03868  17
   9   3  -2 89.3789 8.72887  18
   8   3  -2 -1.4106 2.39626  11
   8   3  -2 -1.9024 2.03977  18
   8   3  -2 5.44066 3.82222  17
   7   3  -2 20.9561 4.30589  12
   7   3  -2 25.4210 5.17823  18
   7   3  -2 27.0965 4.60460  11
   7   3  -2 31.5220 4.98269  17
   7   3  -2 31.3658 5.16415  16
   6   3  -2 47.5996 9.76178   4
   6   3  -2 44.4573 3.15361  10
   6   3  -2 52.4838 5.67843  15
   6   3  -2 47.3844 6.07219  12
   6   3  -2 51.8246 6.47313  18
   6   3  -2 55.4576 5.83779  11
   6   3  -2 54.1506 6.03777  16
   6   3  -2 48.8404 5.76813  17
   5   3  -2 13.2113 4.89231   4
   5   3  -2 17.3781 3.64870  17
   5   3  -2 8.22771 6.65756   7
   5   3  -2 17.7101 3.74316  18
   5   3  -2 18.6119 3.62021  16
   5   3  -2 15.4473 3.21618  12
   5   3  -2 19.6461 3.61456  11
   5   3  -2 16.7993 1.81230  10
   4   3  -2 111.797 9.84456   2
   4   3  -2 91.1066 11.2446   5
   4   3  -2 138.085 9.77694   2
   4   3  -2 126.661 10.2839   3
   4   3  -2 115.327 10.1953   3
   4   3  -2 108.754 12.5901   4
   3   3  -2 141.437 13.2029   4
   3   3  -2 167.295 13.2696   3
   3   3  -2 130.273 12.5521   2
   3   3  -2 154.850 13.1878   5
   3   3  -2 157.492 11.4687   1
  -3  -3   2 128.571 11.2323   1
   2   3  -2 1186.38 82.3049   3
   2   3  -2 1110.89 75.1178   4
   2   3  -2 1088.83 68.3581   1
   2   3  -2 1018.01 81.9645   3
   2   3  -2 1148.87 75.7269   2
   2   3  -2 1037.87 68.6111   1
  -2  -3   2 1071.50 68.9152   1
  -2  -3   2 1083.42 68.6056   1
   1   3  -2 33.8028 5.75270   2
   1   3  -2 37.3036 4.58097   1
   1   3  -2 43.9199 4.45127   1
   1   3  -2 38.3823 5.21125   3
   1   3  -2 42.5419 4.71996   4
  -1  -3   2 35.2878 5.29199   3
  -1  -3   2 38.1153 5.70366   1
  -1  -3   2 35.5901 4.52363   1
  -1  -3   2 27.9810 6.21140   2
  -1  -3   2 26.2317 3.66937   6
   0   3  -2 65.7636 6.62415   1
   0   3  -2 51.8200 5.28861   4
   0   3  -2 54.9233 6.11815   1
   0   3  -2 59.6278 7.39778   3
   0   3  -2 55.3843 7.12401   2
   0  -3   2 51.0089 6.12865   1
   0  -3   2 57.5146 7.55734   3
   0  -3   2 52.8335 8.07031   2
   0  -3   2 57.8020 6.85416   1
   0  -3   2 55.6357 6.44539   6
  -1   3  -2 0.94508 2.55543   2
  -1   3  -2 2.14958 1.90727   1
  -1   3  -2 6.00994 3.43101   3
  -1   3  -2 -1.1744 2.60205   1
   1  -3   2 3.02959 3.72893   6
   1  -3   2 2.01385 2.29202   1
   1  -3   2 1.89407 2.82344   2
   1  -3   2 2.53633 2.44296   1
   1  -3   2 -0.2173 3.00499   3
   2  -3   2 29.4577 5.28141   1
   2  -3   2 28.7404 5.80494   3
   2  -3   2 32.0559 6.55707   2
   2  -3   2 23.6624 6.59190   6
   3  -3   2 29.5788 6.04888   3
   3  -3   2 41.4901 8.14726   6
   3  -3   2 29.8375 8.45137   7
   3  -3   2 32.3704 6.87053   2
   4  -3   2 6.39529 2.04947  10
   4  -3   2 4.34345 3.42920   3
   4  -3   2 2.48303 2.47670  15
   4  -3   2 0.40541 7.56679   6
   4  -3   2 7.23126 2.49287  14
   4  -3   2 0.56001 8.36792   7
   4  -3   2 -0.1795 3.99523   2
   4  -3   2 3.36832 3.73199  17
   4  -3   2 5.33076 1.72728   9
   4  -3   2 1.39149 2.49959  16
   5  -3   2 1.14117 1.77889  10
   5  -3   2 1.50397 4.18644   2
   5  -3   2 2.89800 2.95137  16
   5  -3   2 4.50264 3.19555  17
   5  -3   2 4.23446 10.3705   6
   5  -3   2 1.92547 3.71763  15
   5  -3   2 3.64118 1.29493   9
   5  -3   2 2.11080 3.53345   3
   5  -3   2 -2.0207 8.32871   7
   6  -3   2 1.93840 3.35513  17
   6  -3   2 -3.3733 1.29365  10
   6  -3   2 -5.0855 2.77851  15
   6  -3   2 -3.0818 2.91725  16
   7  -3   2 7.37154 3.43948  16
   7  -3   2 10.3925 4.69437  15
   7  -3   2 2.52396 3.81912  17
   8  -3   2 9.82005 3.92376  17
   8  -3   2 5.61173 3.12086  16
   9   2  -2 11.4196 3.08612  17
   9   2  -2 4.35854 2.82352  18
   8   2  -2 8.48017 3.31766  18
   8   2  -2 11.3324 3.13030  11
   8   2  -2 14.8719 4.44120  17
   8   2  -2 18.1940 4.57867  16
   7   2  -2 7.95173 3.90187  17
   7   2  -2 3.90825 12.3393   7
   7   2  -2 2.77712 2.72189  16
   7   2  -2 2.24554 2.42911  11
   7   2  -2 5.48395 2.74219  18
   6   2  -2 273.526 21.7598  16
   6   2  -2 281.351 21.9986  15
   6   2  -2 263.684 20.6641  11
   6   2  -2 263.609 21.6152  17
   6   2  -2 271.322 27.0611   7
   6   2  -2 256.052 23.9173   4
   6   2  -2 268.070 21.8139  18
   5   2  -2 59.3611 11.4054   7
   5   2  -2 51.7834 3.88506  10
   5   2  -2 54.8828 6.04303  11
   5   2  -2 60.3736 8.51746   4
   5   2  -2 53.8299 6.26838  18
   5   2  -2 49.5174 6.28831  17
   5   2  -2 66.6324 6.82576  16
   4   2  -2 8.61201 1.39018   3
   4   2  -2 2.24207 3.90167   4
   4   2  -2 7.53804 1.49211   2
   4   2  -2 6.48896 1.36808   1
   4   2  -2 6.81657 1.26614   2
   4   2  -2 10.5274 5.13579   7
   4   2  -2 8.43999 1.60885   3
   3   2  -2 115.531 8.49363   1
   3   2  -2 134.644 12.4197   7
   3   2  -2 141.981 9.61292   2
   3   2  -2 126.338 10.0428   3
   3   2  -2 105.117 10.5469   4
   3   2  -2 95.8374 9.35194   2
   3   2  -2 115.813 8.60657   1
   3   2  -2 111.341 9.96245   3
   3   2  -2 96.3224 9.74798   5
  -3  -2   2 120.857 8.55868   1
  -3  -2   2 98.3664 8.50911   1
   2   2  -2 336.210 21.7407   1
   2   2  -2 326.241 21.3785   1
   2   2  -2 324.262 25.6230   3
   2   2  -2 339.908 23.8515   2
   2   2  -2 367.194 26.3125   7
   2   2  -2 324.308 24.2220   4
   2   2  -2 277.787 23.9019   2
   2   2  -2 336.787 24.0610   5
   2   2  -2 302.920 25.4698   3
  -2  -2   2 343.948 21.6044   1
  -2  -2   2 326.903 21.7927   1
   1   2  -2 967.532 65.1637   2
   1   2  -2 940.807 70.6718   3
   1   2  -2 976.663 59.1003   1
   1   2  -2 972.666 64.2338   4
   1   2  -2 950.884 58.8236   1
  -1  -2   2 957.324 59.2076   1
  -1  -2   2 999.273 59.0177   1
  -1  -2   2 883.823 70.6342   3
  -1  -2   2 853.835 65.5047   2
   0   2  -2 513.865 33.3850   1
   0   2  -2 478.035 35.3279   4
   0   2  -2 531.708 36.8068   2
   0   2  -2 523.190 33.1653   1
   0   2  -2 511.925 39.8124   3
   0  -2   2 535.286 33.5961   1
   0  -2   2 546.742 37.4651   2
   0  -2   2 501.008 37.6407   6
   0  -2   2 537.393 39.8816   3
   0  -2   2 524.508 33.2386   1
  -1   2  -2 8969.03 700.310   3
  -1   2  -2 9999.99 582.059   1
   1  -2   2 9215.60 668.106   6
   1  -2   2 9891.16 643.520   2
   1  -2   2 9590.19 700.293   3
   1  -2   2 9859.55 581.756   1
   1  -2   2 9429.93 581.964   1
  -2   2  -2 16.6780 3.53483   1
  -2   2  -2 15.9382 3.16572   1
   2  -2   2 15.7127 3.55564   1
   2  -2   2 19.1167 3.88290   3
   2  -2   2 9.48120 4.97248   6
   2  -2   2 11.3680 3.54235   3
   2  -2   2 6.74990 3.26107   2
   2  -2   2 13.1730 2.85454   1
   2  -2   2 14.5190 4.16855   2
   3  -2   2 2.18014 3.13898   2
   3  -2   2 6.16636 5.60392   6
   3  -2   2 0.05329 3.44605   7
   3  -2   2 0.65223 2.27845   3
   4  -2   2 19.6389 4.81476   2
   4  -2   2 26.9829 8.93467   6
   4  -2   2 23.5085 4.53278   3
   4  -2   2 18.8964 7.47671   7
   5  -2   2 64.2510 6.62210  14
   5  -2   2 59.0103 4.87737  10
   5  -2   2 56.8047 7.89639  15
   5  -2   2 60.6611 7.67960  17
   5  -2   2 71.6061 14.3524   6
   5  -2   2 64.4187 13.4360   7
   5  -2   2 46.4710 7.86892  16
   6  -2   2 30.0240 12.9226   6
   6  -2   2 27.1895 5.72226  15
   6  -2   2 31.5064 4.91638  14
   6  -2   2 27.8044 2.81130  10
   6  -2   2 18.5077 5.52863  17
   6  -2   2 22.8437 5.72851  16
   6  -2   2 28.6136 12.3706   7
   7  -2   2 32.3444 6.79357  17
   7  -2   2 25.1675 5.07275  16
   7  -2   2 27.0134 5.36310  15
   8  -2   2 5.93569 3.84274  17
   8  -2   2 10.6567 3.23032  15
   8  -2   2 9.29863 4.72410  16
   9   1  -2 65.3286 7.16723  18
   9   1  -2 50.6431 6.47744  17
   8   1  -2 15.4933 4.89076  16
   8   1  -2 23.8089 5.07673  18
   8   1  -2 17.7352 4.10299  17
   7   1  -2 45.7099 6.42263  18
   7   1  -2 45.4599 6.39192  11
   7   1  -2 55.5251 6.63368  15
   7   1  -2 61.2330 7.80868  17
   7   1  -2 54.4973 6.83629  16
   6   1  -2 5.89792 3.50187  16
   6   1  -2 11.9874 9.49664   7
   6   1  -2 7.55122 2.51139  11
   6   1  -2 7.42532 3.11455  18
   6   1  -2 4.05373 2.40999  15
   6   1  -2 -0.9921 3.17859  17
   5   1  -2 0.97436 1.64861  11
   5   1  -2 4.40966 2.76935  16
   5   1  -2 3.04766 0.92150  10
   5   1  -2 0.95535 2.48531  18
   5   1  -2 0.35528 2.56843  15
   5   1  -2 -3.6545 2.50616  17
   5   1  -2 -0.5061 2.65422   4
   5   1  -2 0.00246 5.80164   7
   4   1  -2 130.442 14.1467   7
   4   1  -2 135.043 12.9145   4
   3   1  -2 55.9469 6.75691   5
   3   1  -2 80.9647 7.09443   3
   3   1  -2 82.5436 8.56121   4
   3   1  -2 84.8001 9.97699   7
   3   1  -2 78.9873 6.88277   2
   3   1  -2 85.5369 7.08175   3
   3   1  -2 80.6212 6.91889   2
   3   1  -2 82.3240 6.12517   1
   3   1  -2 80.2641 6.03842   1
  -3  -1   2 70.5605 6.17521   1
  -3  -1   2 77.0041 6.05241   1
   2   1  -2 72.1033 7.45184   2
   2   1  -2 94.2250 8.48769   4
   2   1  -2 92.2419 7.68962   2
   2   1  -2 80.1273 9.20983   7
   2   1  -2 92.8512 6.83799   1
   2   1  -2 93.7810 7.88037   3
   2   1  -2 84.8868 7.80998   3
   2   1  -2 91.0686 6.71324   1
   2   1  -2 82.4419 7.13339   5
  -2  -1   2 86.2580 6.65907   1
  -2  -1   2 90.2741 6.98412   1
   1   1  -2 20.1605 3.15537   1
   1   1  -2 24.6028 3.97169   2
   1   1  -2 23.9282 3.47057   3
   1   1  -2 22.7389 3.23269   4
   1   1  -2 21.1730 3.66952   3
   1   1  -2 23.2196 4.29716   7
  -1  -1   2 22.6380 3.54100   3
  -1  -1   2 25.3802 3.56081   1
  -1  -1   2 23.6347 3.15079   1
   0   1  -2 1054.77 74.6661   2
   0   1  -2 1112.52 81.1910   3
   0   1  -2 1108.36 67.6717   1
   0   1  -2 1127.94 67.4791   1
   0  -1   2 1104.68 81.1187   3
   0  -1   2 1065.05 67.4724   1
   0  -1   2 1120.58 67.6976   1
   0  -1   2 1060.55 74.9111   2
  -1   1  -2 73.1045 5.86097   1
  -1   1  -2 69.4230 6.72135   3
  -1   1  -2 74.7898 5.82316   1
   1  -1   2 72.4165 7.82732   6
   1  -1   2 65.6372 7.06477   2
   1  -1   2 76.6934 6.15095   1
   1  -1   2 67.9860 6.56803   3
  -2   1  -2 32.2503 3.94914   1
  -2   1  -2 34.7976 3.80415   1
   2  -1   2 28.4746 3.78106   1
   2  -1   2 38.9239 5.90531   7
   2  -1   2 32.4997 4.24707   3
   2  -1   2 25.7385 4.21538   2
   2  -1   2 26.7453 4.16608   3
   2  -1   2 30.1856 5.71797   6
   2  -1   2 36.3331 3.67972   1
   2  -1   2 30.4290 4.68722   2
  -3   1  -2 135.114 10.3436   1
  -3   1  -2 126.166 10.0614   1
   3  -1   2 138.019 11.9788   3
   3  -1   2 143.112 14.8125   6
   3  -1   2 150.938 11.6143   2
   3  -1   2 132.150 11.2977   2
   3  -1   2 128.121 10.0435   1
   3  -1   2 136.575 13.7051   7
   3  -1   2 156.635 12.0070   3
   4  -1   2 293.534 23.2659   3
   4  -1   2 287.371 21.6762   2
   4  -1   2 290.743 26.5270   7
   4  -1   2 322.173 21.7777   2
   4  -1   2 319.239 23.3509   3
   4  -1   2 295.475 27.3117   6
   5  -1   2 56.0080 12.0370   6
   5  -1   2 71.6316 11.1842   7
   5  -1   2 68.8368 7.71246  17
   5  -1   2 70.5416 5.01584  10
   5  -1   2 66.2637 8.13837  15
   5  -1   2 65.3197 7.35279  13
   5  -1   2 73.5574 7.67709  16
   5  -1   2 66.1200 6.99558  14
   6  -1   2 -0.0558 7.30299   7
   6  -1   2 4.86157 2.77859  17
   6  -1   2 7.91906 4.16326  15
   6  -1   2 12.4674 3.69520  14
   6  -1   2 3.14316 3.80982  16
   6  -1   2 5.93957 7.44129   6
   6  -1   2 5.91449 0.99256  10
   7  -1   2 75.9363 9.02411  17
   7  -1   2 62.7248 8.16068  15
   7  -1   2 51.8887 9.47318  16
   8  -1   2 12.1987 4.04789  16
   8  -1   2 6.03103 4.07611  15
   8  -1   2 4.71741 3.41561  17
   9   0  -2 77.7505 7.70590  17
   8   0  -2 46.6182 7.72499  16
   8   0  -2 58.9102 7.97015  17
   8   0  -2 36.8156 6.10942  18
   7   0  -2 24.5008 5.17414  16
   7   0  -2 22.3870 5.13949  15
   7   0  -2 22.6910 5.44768  18
   7   0  -2 24.2314 4.75534  17
   6   0  -2 3.26584 3.62401  17
   6   0  -2 16.6766 8.12331   7
   6   0  -2 4.16845 2.69679  15
   6   0  -2 7.50507 1.10881  10
   6   0  -2 9.57860 3.97308  16
   6   0  -2 5.59118 3.24380  18
   5   0  -2 0.17015 6.18567   7
   5   0  -2 1.48742 0.94300  10
   5   0  -2 2.60079 2.88033  18
   5   0  -2 -0.7688 1.99463  14
   5   0  -2 -4.2277 2.41648  15
   5   0  -2 2.50317 2.19334  16
   5   0  -2 4.28397 3.02831  17
   4   0  -2 99.8469 11.8009   7
   4   0  -2 83.2558 9.54552   4
   4   0  -2 90.8419 7.85098   3
   4   0  -2 96.8191 7.53096   2
   3   0  -2 87.4780 7.03932   1
   3   0  -2 91.4529 11.0720   7
   3   0  -2 95.3101 8.26845   3
   3   0  -2 90.0324 8.46981   4
   3   0  -2 87.0860 6.87268   1
   3   0  -2 95.8816 8.03986   3
   3   0  -2 105.764 8.35725   2
   3   0  -2 81.9657 7.55332   2
  -3   0   2 81.9679 7.05149   1
  -3   0   2 85.9358 6.94153   1
   2   0  -2 271.060 19.1539   4
   2   0  -2 241.810 20.1907   3
   2   0  -2 257.749 16.9354   1
   2   0  -2 264.107 19.0021   2
   2   0  -2 231.258 18.7548   2
   2   0  -2 274.859 20.2041   3
   2   0  -2 259.338 17.0254   1
   2   0  -2 242.730 20.8033   7
  -2   0   2 280.602 17.1176   1
  -2   0   2 260.503 17.1546   1
   1   0  -2 28.0767 4.04439   7
   1   0  -2 32.6774 3.37115   1
   1   0  -2 35.6232 4.05790   2
   1   0  -2 33.8784 3.83086   3
   1   0  -2 27.3722 3.19305   1
   1   0  -2 26.9474 3.64400   2
   1   0  -2 30.5558 3.89188   3
  -1   0   2 39.6345 3.57047   1
  -1   0   2 38.5194 3.39481   1
  -1   0   2 29.0191 3.63663   3
   0   0  -2 69.0225 5.32219   1
   0   0  -2 66.5550 5.46619   7
   0   0  -2 69.1974 6.08993   3
   0   0  -2 74.7045 5.02679   1
   0   0  -2 64.3820 5.62318   2
   0   0   2 69.0933 5.03822   1
   0   0   2 65.2579 5.09935   1
   0   0   2 63.3831 5.94169   3
   0   0   2 62.0720 5.59561   2
   0   0   2 65.7127 5.36791   5
  -1   0  -2 671.399 39.7395   1
  -1   0  -2 659.580 39.6211   1
   1   0   2 611.689 46.0397   6
   1   0   2 659.598 39.7141   1
   1   0   2 592.017 43.7691   2
   1   0   2 664.443 43.9909   2
   1   0   2 655.052 39.5623   1
   1   0   2 596.415 47.5395   3
   1   0   2 654.231 47.5194   3
   1   0   2 632.711 45.0395   5
  -2   0  -2 137.147 9.09017   1
  -2   0  -2 145.099 9.34960   1
   2   0   2 136.977 9.08587   1
   2   0   2 136.085 10.8356   3
   2   0   2 135.933 12.6825   6
   2   0   2 139.016 10.3042   2
   2   0   2 140.486 10.3266   4
   2   0   2 136.824 9.17065   1
   2   0   2 132.052 10.8718   3
   2   0   2 123.352 11.4120   7
   2   0   2 132.568 11.5816   5
   2   0   2 133.049 10.1882   2
  -3   0  -2 15.2351 1.73701   1
  -3   0  -2 15.5321 1.89081   1
   3   0   2 18.9148 2.25590   2
   3   0   2 16.5708 4.45576   7
   3   0   2 16.2975 2.12993   3
   3   0   2 21.8935 4.90187   5
   3   0   2 16.8124 2.00743   1
   3   0   2 15.2897 5.50580   6
   3   0   2 12.7485 2.70309   4
   3   0   2 20.3662 2.16333   3
   3   0   2 15.4872 2.41308   2
   3   0   2 16.0536 1.89761   1
   4   0   2 420.316 32.2982   6
   4   0   2 394.377 31.6346   7
   4   0   2 360.035 27.4467   4
   5   0   2 351.433 23.2574  10
   5   0   2 408.007 33.6100   6
   5   0   2 372.266 29.7428  15
   5   0   2 404.814 28.7714  14
   5   0   2 359.954 29.3457  16
   5   0   2 387.616 32.5150   7
   6   0   2 11.4707 3.53169  16
   6   0   2 23.1143 4.50455  15
   6   0   2 11.8597 3.80288  14
   6   0   2 17.3788 3.64462  18
   6   0   2 16.1785 9.47780   6
   6   0   2 13.1114 3.06240  13
   6   0   2 8.78539 6.89146   7
   6   0   2 17.0017 4.06110  17
   7   0   2 -0.0384 2.74186  16
   7   0   2 -1.4742 3.82856  15
   7   0   2 1.67458 3.20493  14
   7   0   2 -2.4546 3.40206  17
   8   0   2 2.61140 3.00221  15
   8   0   2 -0.6781 2.72139  17
   8   0   2 0.00570 3.96347  16
   9   0   2 3.06855 2.86630  16
   9   0   2 2.61772 2.90297  17
   8  -1  -2 15.6012 4.54976  18
   8  -1  -2 19.1048 4.43904  17
   8  -1  -2 20.8823 4.04042  16
   7  -1  -2 97.5659 10.9883  18
   7  -1  -2 108.690 10.5291  16
   7  -1  -2 102.963 11.4396  17
   6  -1  -2 243.336 19.4106  15
   6  -1  -2 179.779 27.4753   7
   6  -1  -2 211.161 18.6226  17
   6  -1  -2 235.380 19.3352  16
   6  -1  -2 221.970 14.3507  10
   6  -1  -2 210.934 18.9972  18
   5  -1  -2 179.436 16.0387  17
   5  -1  -2 187.861 15.9024  16
   5  -1  -2 196.698 16.0537  15
   5  -1  -2 185.172 15.8353  18
   5  -1  -2 225.782 23.1800   7
   5  -1  -2 184.564 12.3368  10
   4  -1  -2 172.958 12.9440   2
   4  -1  -2 170.359 13.4055   3
   4  -1  -2 121.058 12.2806   2
   4  -1  -2 178.074 17.2022   7
   4  -1  -2 153.536 13.4342   3
   3  -1  -2 8.64259 3.51406   2
   3  -1  -2 7.94586 2.84928   1
   3  -1  -2 5.23902 2.52088   2
   3  -1  -2 11.9846 4.36952   7
   3  -1  -2 8.20938 2.37899   1
   3  -1  -2 9.43093 2.95812   4
   3  -1  -2 6.78822 2.58050   3
   3  -1  -2 2.80477 2.69061   3
  -3   1   2 5.39781 2.47206   1
   2  -1  -2 24.8894 3.70387   1
   2  -1  -2 22.4446 5.52820   7
   2  -1  -2 24.6287 4.41291   3
   2  -1  -2 33.1865 5.02601   2
   2  -1  -2 24.8869 4.21610   3
   2  -1  -2 23.9168 4.22245   2
   2  -1  -2 27.5076 4.09482   4
   2  -1  -2 26.9692 4.08438   1
  -2   1   2 26.1107 3.69644   1
  -2   1   2 27.1019 3.92629   1
   1  -1  -2 40.6064 4.18100   1
   1  -1  -2 41.7926 5.22662   2
   1  -1  -2 33.8595 4.71212   7
   1  -1  -2 34.0337 4.62535   3
   1  -1  -2 30.7897 3.76033   1
  -1   1   2 48.2370 4.48316   1
  -1   1   2 35.6114 4.55157   3
  -1   1   2 38.0607 4.09110   1
  -1   1   2 31.6558 4.56161   2
   0  -1  -2 1844.54 135.260   3
   0  -1  -2 1828.81 112.510   1
   0  -1  -2 1815.36 124.479   2
   0  -1  -2 1862.49 112.502   1
   0  -1  -2 1826.41 131.368   7
   0   1   2 1812.10 112.481   1
   0   1   2 1861.26 135.297   3
   0   1   2 1849.99 125.989   5
   0   1   2 1880.23 112.550   1
   0   1   2 1764.97 124.414   2
  -1  -1  -2 35.6406 3.12832   1
  -1  -1  -2 34.4194 3.11066   1
   1   1   2 28.4526 3.29504   3
   1   1   2 31.8256 3.02792   1
   1   1   2 29.1098 3.46334   2
   1   1   2 29.3509 3.43855   2
   1   1   2 33.3318 3.42431   3
   1   1   2 33.4396 3.01358   1
   1   1   2 27.6901 3.66213   5
  -2  -1  -2 103.871 6.89103   1
  -2  -1  -2 110.978 6.93625   1
   2   1   2 106.584 8.24679   3
   2   1   2 103.845 7.68547   2
   2   1   2 103.830 6.89795   1
   2   1   2 103.626 8.53844   4
   2   1   2 114.042 9.93120   6
   2   1   2 91.2353 8.72001   7
   2   1   2 91.5198 9.16816   5
   2   1   2 105.940 8.17062   3
   2   1   2 105.027 6.96160   1
   2   1   2 107.570 7.80185   2
   3   1   2 125.093 10.5779   4
   3   1   2 120.644 11.3234   7
   3   1   2 134.173 12.1213   5
   3   1   2 122.143 12.4150   6
   4   1   2 809.369 56.3935   5
   4   1   2 802.615 58.0504   6
   4   1   2 729.054 53.2865   4
   4   1   2 736.437 57.7975   7
   5   1   2 103.353 10.4065   4
   5   1   2 112.950 13.1195   7
   5   1   2 102.676 13.4144   6
   5   1   2 92.8309 12.3343   5
   6   1   2 8.95129 2.66105  17
   6   1   2 7.22018 2.37848  12
   6   1   2 4.78252 2.53203  13
   6   1   2 8.70828 2.60148  14
   6   1   2 9.81935 7.54154   6
   6   1   2 5.41745 3.51814  15
   6   1   2 5.96646 3.34894  16
   6   1   2 -1.1050 4.63585   7
   6   1   2 8.16930 2.83529  18
   6   1   2 8.96056 2.33609  11
   7   1   2 326.240 24.1858  14
   7   1   2 301.092 25.1911  15
   7   1   2 278.977 23.7218  18
   7   1   2 293.139 24.1967  17
   7   1   2 289.505 24.1396  13
   7   1   2 317.230 24.8467  16
   8   1   2 51.7266 7.88601  15
   8   1   2 43.5711 6.52833  16
   8   1   2 47.2740 6.08703  14
   8   1   2 46.0110 7.21656  17
   9   1   2 8.22595 3.89422  17
   9   1   2 8.10627 3.12255  16
   8  -2  -2 5.22601 3.27814  17
   8  -2  -2 -0.1648 2.56843  16
   7  -2  -2 7.69172 3.61269  17
   7  -2  -2 4.48014 3.97248  18
   7  -2  -2 0.70626 2.94878  16
   6  -2  -2 4.83747 2.96852  15
   6  -2  -2 5.37113 13.3204   7
   6  -2  -2 6.57758 3.96648  18
   6  -2  -2 1.77881 4.07295  17
   6  -2  -2 5.63833 3.16572  16
   6  -2  -2 4.31336 1.44368  10
   5  -2  -2 35.0983 10.0345   7
   5  -2  -2 40.5515 6.20328  18
   5  -2  -2 27.8153 5.26734  17
   5  -2  -2 32.6460 6.68113  16
   5  -2  -2 37.6940 3.67447  10
   5  -2  -2 39.8431 6.33280  15
   4  -2  -2 437.962 31.1117   3
   4  -2  -2 370.602 24.4749  10
   4  -2  -2 354.032 29.5978  17
   4  -2  -2 408.083 34.8754   7
   4  -2  -2 430.615 29.4087   2
   4  -2  -2 366.204 25.0109   9
   4  -2  -2 377.049 30.1951  15
   3  -2  -2 71.3998 11.4032   7
   3  -2  -2 73.0916 8.53969   2
   3  -2  -2 75.1681 8.33745   3
   2  -2  -2 23.4858 4.95296   2
   2  -2  -2 42.5582 5.92644   3
   2  -2  -2 50.9329 8.14566   7
   2  -2  -2 32.8925 6.03871   2
   2  -2  -2 32.6876 5.40732   3
   2  -2  -2 38.9354 5.06787   1
   2  -2  -2 28.4949 4.28845   4
   2  -2  -2 32.7912 4.62096   1
  -2   2   2 33.8978 4.76700   1
  -2   2   2 37.0372 5.20339   1
   1  -2  -2 87.6717 8.46765   3
   1  -2  -2 82.9435 6.88441   1
   1  -2  -2 90.2655 7.46510   1
   1  -2  -2 75.5469 8.33982   7
   1  -2  -2 75.2980 8.50681   2
  -1   2   2 79.5206 8.48407   3
  -1   2   2 62.5867 8.07596   2
  -1   2   2 85.5423 7.13048   1
  -1   2   2 81.6267 7.22665   1
   0  -2  -2 36.5871 4.61802   1
   0  -2  -2 30.0416 4.71183   2
   0  -2  -2 36.3074 4.99647   3
   0  -2  -2 35.7881 4.01856   1
   0   2   2 31.2971 3.80395   1
   0   2   2 35.0653 5.13600   3
   0   2   2 34.3070 4.57430   2
   0   2   2 35.6408 4.54737   1
  -1  -2  -2 95.2967 6.78815   1
  -1  -2  -2 79.0303 7.85121   3
  -1  -2  -2 87.1683 6.86511   1
   1   2   2 67.1621 6.45659   1
   1   2   2 90.8843 7.83212   2
   1   2   2 87.1029 8.01215   5
   1   2   2 92.0100 6.81900   1
   1   2   2 87.0826 8.02488   3
   1   2   2 100.656 7.83259   4
  -2  -2  -2 11.9215 2.14044   1
  -2  -2  -2 14.8289 2.24136   1
   2   2   2 11.9750 2.59685   2
   2   2   2 10.5869 3.79745   5
   2   2   2 8.23044 2.66840   4
   2   2   2 13.3479 2.23519   1
   2   2   2 12.5683 2.32792   3
   2   2   2 14.2426 2.61852   2
   2   2   2 11.3502 2.77837   6
   2   2   2 18.0206 2.51063   1
   2   2   2 15.7821 2.88774   3
   3   2   2 41.8443 5.53377   7
   3   2   2 44.5227 6.96982   5
   3   2   2 46.2143 6.12816   4
   3   2   2 43.3189 6.14122   6
   4   2   2 98.9101 9.21796   4
   4   2   2 90.1319 10.3532   6
   4   2   2 81.0628 9.60620   7
   4   2   2 89.7609 10.6839   5
   5   2   2 10.9050 4.93449   7
   5   2   2 17.2931 5.15947   5
   5   2   2 12.6646 4.51834   4
   5   2   2 11.7355 5.12445   6
   6   2   2 18.1010 3.59320  17
   6   2   2 34.3302 5.59805  15
   6   2   2 30.4512 4.68898  11
   6   2   2 14.6999 6.10699   6
   6   2   2 24.1389 4.34568  16
   6   2   2 22.6853 7.34430   7
   6   2   2 27.6549 5.24557  13
   6   2   2 19.3929 3.98106  14
   6   2   2 25.6223 3.80300  18
   6   2   2 25.1042 4.42221  12
   7   2   2 19.5296 4.30540  14
   7   2   2 21.7996 4.20081  18
   7   2   2 11.4158 4.17564  16
   7   2   2 19.8100 4.20226  12
   7   2   2 22.4217 4.86132  15
   7   2   2 21.4789 4.08507  11
   7   2   2 16.1411 4.36021  13
   7   2   2 21.6886 4.56920  17
   8   2   2 48.2929 6.90963  15
   8   2   2 37.0590 7.03030  16
   8   2   2 31.9700 5.52628  18
   8   2   2 38.8500 5.35319  17
   8   2   2 33.9387 6.16048  14
   8   2   2 35.0142 6.48437  13
   9   2   2 80.4261 9.04952  16
   9   2   2 80.0151 8.52923  17
   8  -3  -2 60.0869 7.00603  17
   8  -3  -2 59.2597 6.37174  16
   7  -3  -2 2.39617 4.13374  16
   7  -3  -2 6.14504 3.01584  18
   7  -3  -2 2.98192 4.83327  17
   6  -3  -2 -1.3401 3.66053  18
   6  -3  -2 1.70779 1.60838  10
   6  -3  -2 3.50926 3.23181  17
   6  -3  -2 0.02753 2.66509  16
   5  -3  -2 -1.3491 4.16575   3
   5  -3  -2 8.03259 3.86125  18
   5  -3  -2 3.57177 1.89556  10
   5  -3  -2 6.80444 11.4788   7
   5  -3  -2 1.73837 2.64992  15
   5  -3  -2 3.72397 4.05932  17
   5  -3  -2 4.18723 1.43687   9
   5  -3  -2 7.71935 4.99154   2
   5  -3  -2 6.22395 3.03384  16
   4  -3  -2 72.6405 14.1836   7
   4  -3  -2 68.0694 7.10280  15
   4  -3  -2 56.0059 7.70538  16
   4  -3  -2 72.5318 7.99754  17
   4  -3  -2 53.6096 9.15483   2
   4  -3  -2 67.3336 9.64049   3
   4  -3  -2 64.1365 7.24718  18
   4  -3  -2 67.0158 5.70336  10
   4  -3  -2 68.1522 5.55887   9
   3  -3  -2 264.656 22.2598   2
   3  -3  -2 267.859 24.8915   7
   2  -3  -2 566.688 42.9035   7
   2  -3  -2 548.278 42.3601   3
   2  -3  -2 566.507 39.8717   2
   2  -3  -2 464.507 35.4117   1
   1  -3  -2 134.321 12.7429   7
   1  -3  -2 105.887 11.4895   2
   1  -3  -2 106.611 9.65850   1
   1  -3  -2 122.232 10.2184   1
   1  -3  -2 125.668 11.8377   3
  -1   3   2 113.677 9.91241   1
  -1   3   2 113.790 11.7089   3
  -1   3   2 92.9867 11.0010   2
  -1   3   2 119.938 10.2724   1
   0  -3  -2 63.1446 6.11996   1
   0  -3  -2 57.6149 7.07638   2
   0  -3  -2 58.1638 5.92633   1
   0  -3  -2 51.5387 6.70967   3
   0   3   2 66.5012 7.03163   3
   0   3   2 59.0238 5.79452   1
   0   3   2 49.6480 5.79973   1
   0   3   2 53.2645 6.61468   2
  -1  -3  -2 28.0606 5.34114   2
  -1  -3  -2 32.2042 4.95341   1
  -1  -3  -2 21.7021 4.02666   1
  -1  -3  -2 36.3976 5.66358   3
   1   3   2 39.5878 4.45275   4
   1   3   2 31.5476 5.35985   3
   1   3   2 31.7608 4.56417   1
   1   3   2 28.1448 4.43386   1
   1   3   2 32.2019 5.57746   2
  -2  -3  -2 28.0695 3.96392   1
  -2  -3  -2 27.8818 3.86195   1
   2   3   2 27.0096 4.45735   2
   2   3   2 22.9473 3.62929   1
   2   3   2 27.5459 3.59614   1
   2   3   2 18.3455 3.14279   6
   2   3   2 30.1438 4.35064   3
   2   3   2 21.3227 3.87870   3
   2   3   2 29.5869 5.36210   5
   2   3   2 31.4785 5.37509   4
   2   3   2 24.1489 4.48886   2
  -3  -3  -2 29.6133 3.42201   1
  -3  -3  -2 26.8964 3.31332   1
   3   3   2 34.0183 3.98838   2
   3   3   2 20.8274 4.01561   6
   3   3   2 28.3090 4.10709   2
   3   3   2 33.0718 3.87228   3
   3   3   2 34.4392 3.39560   1
   3   3   2 29.3536 3.66247   3
   3   3   2 30.6499 5.62023   4
   3   3   2 36.8916 5.67969   5
   3   3   2 26.3844 3.40135   1
   4   3   2 377.050 28.4632   5
   4   3   2 374.132 26.7705   4
   4   3   2 304.041 26.6759   6
   5   3   2 27.5388 6.56186   4
   5   3   2 50.4421 8.99795   5
   6   3   2 41.0644 5.68982  15
   6   3   2 55.1452 6.17940  17
   6   3   2 47.7718 5.58246  16
   6   3   2 45.2285 8.87709   4
   6   3   2 50.7082 6.71826  12
   6   3   2 36.2030 9.86135   5
   6   3   2 53.0619 6.13908  11
   6   3   2 47.2964 5.99590  13
   6   3   2 45.4317 6.40327  14
   6   3   2 54.4289 6.16526  18
   7   3   2 21.7274 4.12372  17
   7   3   2 25.9389 4.44033  11
   7   3   2 30.5486 5.03105  18
   7   3   2 18.1996 4.30879  15
   7   3   2 27.3012 4.35002  14
   7   3   2 23.1806 4.40455  16
   7   3   2 22.8100 4.13244  12
   7   3   2 15.0743 4.72354  13
   8   3   2 3.29956 3.32879  18
   8   3   2 7.68590 2.58952  14
   8   3   2 7.11318 3.01269  13
   8   3   2 4.24744 2.49733  17
   8   3   2 2.54276 3.59008  12
   8   3   2 5.40329 2.60838  15
   8   3   2 6.35192 3.07139  11
   8   3   2 4.80925 3.48987  16
   9   3   2 4.57091 2.30108  18
   9   3   2 -3.0669 2.30300  16
   9   3   2 0.84153 2.38354  17
   7  -4  -2 -0.7965 3.25847  17
   7  -4  -2 3.40879 2.76669  16
   6  -4  -2 -2.8255 1.56994  10
   6  -4  -2 0.35953 2.83643  16
   6  -4  -2 0.72196 3.39146  18
   6  -4  -2 -2.1111 2.99086  17
   5  -4  -2 50.9242 8.61173  17
   5  -4  -2 55.3184 4.86229   9
   5  -4  -2 43.8131 16.9921   7
   5  -4  -2 50.8735 7.62432  18
   5  -4  -2 52.7361 5.33644  10
   5  -4  -2 45.9800 6.75930  16
   4  -4  -2 7.69377 2.82050  16
   4  -4  -2 13.5013 4.41362  18
   4  -4  -2 10.3878 2.50949   9
   4  -4  -2 14.8932 4.10433  15
   4  -4  -2 6.28481 5.12250   3
   4  -4  -2 11.1813 4.25230  17
   4  -4  -2 0.37321 5.58391   2
   4  -4  -2 8.85570 10.1307   7
   4  -4  -2 7.70948 2.07359  10
   3  -4  -2 137.777 10.8526  10
   3  -4  -2 184.688 20.0420   7
   3  -4  -2 149.758 11.0885   9
   3  -4  -2 146.351 10.1115   8
   3  -4  -2 167.802 16.3818   3
   3  -4  -2 161.480 13.6702  17
   3  -4  -2 162.598 16.3733   2
   2  -4  -2 25.7771 6.78221   7
   2  -4  -2 18.0851 6.11269   2
   1  -4  -2 94.7586 9.53800   1
   1  -4  -2 92.8541 9.16990   1
   1  -4  -2 93.7618 10.7742   2
   1  -4  -2 108.593 10.9766   3
  -1   4   2 98.6345 9.63887   1
   0  -4  -2 109.631 10.9223   1
   0  -4  -2 126.337 12.3606   3
   0  -4  -2 131.481 11.0271   1
   0  -4  -2 116.882 12.8036   2
   0   4   2 129.759 11.1898   1
   0   4   2 124.555 10.8135   1
   0   4   2 113.306 12.1544   2
   0   4   2 129.285 12.4059   3
  -1  -4  -2 156.343 13.5651   1
  -1  -4  -2 170.348 13.4219   1
  -1  -4  -2 165.772 15.8476   3
  -1  -4  -2 133.979 15.0767   2
   1   4   2 183.907 13.4523   1
   1   4   2 189.074 15.2643   2
   1   4   2 169.081 13.3639   1
   1   4   2 205.177 16.1928   3
  -2  -4  -2 46.3786 5.95030   1
   2   4   2 53.3083 6.74732   3
   2   4   2 44.8587 5.49987   1
   2   4   2 40.2134 5.32837   1
   2   4   2 44.5630 6.42793   5
   2   4   2 43.9683 6.38472   2
   2   4   2 47.9833 6.55396   4
  -3  -4  -2 34.0608 5.13125   1
   3   4   2 61.3115 6.62262   3
   3   4   2 46.6314 6.38519   4
   3   4   2 57.3795 8.28969   5
   3   4   2 42.7880 5.87352   3
   3   4   2 53.0640 7.01977   2
   3   4   2 69.1607 6.50792   2
   3   4   2 46.7933 5.71361   1
   3   4   2 55.7622 5.38480   1
   4   4   2 71.5493 6.23797   3
   4   4   2 64.7950 6.05354   3
   4   4   2 60.3610 5.61952   1
   4   4   2 60.8878 6.14328   2
   4   4   2 72.3255 10.1215   5
   4   4   2 63.6884 5.89016   2
   4   4   2 66.2745 8.92773   4
   5   4   2 3.92719 2.24383  13
   5   4   2 3.95367 0.85790  10
   5   4   2 -0.7875 5.49519   5
   5   4   2 5.64020 3.79998   4
   5   4   2 -0.4735 1.96597  12
   5   4   2 4.20782 2.39078  18
   5   4   2 4.50849 1.90941  11
   6   4   2 425.519 31.6942  18
   6   4   2 339.557 30.9724  14
   6   4   2 365.511 35.3109   5
   6   4   2 426.778 31.8846  12
   6   4   2 399.301 32.2447  13
   6   4   2 447.248 33.5701   4
   6   4   2 438.611 30.0710  11
   6   4   2 420.952 31.3337  17
   7   4   2 265.102 22.9212  13
   7   4   2 255.853 22.0017  14
   7   4   2 290.742 23.0637  12
   7   4   2 233.685 25.3926   4
   7   4   2 269.683 22.1358  16
   7   4   2 305.245 21.4963  11
   7   4   2 294.633 22.4806  18
   7   4   2 285.117 22.1358  17
   8   4   2 12.5490 3.78599  18
   8   4   2 13.5845 4.23259  12
   8   4   2 10.7226 2.94377  16
   8   4   2 4.27660 4.21867  13
   8   4   2 10.9190 3.02568  11
   8   4   2 4.47704 3.48624  17
   9   4   2 2.02187 2.89656  18
   9   4   2 2.81594 2.47700  12
   9   4   2 0.83094 2.03111  11
   7  -5  -2 2.18066 3.09954  17
   6  -5  -2 86.7205 9.13275  16
   6  -5  -2 94.4636 10.2485  17
   6  -5  -2 100.135 7.28201  10
   5  -5  -2 69.9010 10.0172  17
   5  -5  -2 63.4771 8.66907  16
   5  -5  -2 58.4878 8.17277  18
   5  -5  -2 75.1887 5.79352   9
   5  -5  -2 55.3135 6.28560  10
   4  -5  -2 5.93252 4.61947  17
   4  -5  -2 10.3645 2.96499   9
   4  -5  -2 8.59148 2.85422  10
   4  -5  -2 2.26949 5.95354   3
   4  -5  -2 11.7442 8.24038   2
   4  -5  -2 10.3528 3.62582  18
   4  -5  -2 12.5189 12.8818   7
   3  -5  -2 4.33068 5.90989   3
   3  -5  -2 3.24931 2.98832  17
   3  -5  -2 5.84380 2.73309  10
   3  -5  -2 3.27025 2.56728   9
   3  -5  -2 5.00068 7.84424   2
   3  -5  -2 11.6460 7.45095   7
   3  -5  -2 6.90858 1.91173   8
   2  -5  -2 22.8046 6.95515   3
   2  -5  -2 22.8764 3.67402   8
   2  -5  -2 18.1428 8.55534   7
   2  -5  -2 21.8142 6.84133   2
   1  -5  -2 47.2195 7.60258   3
   1  -5  -2 21.1235 7.66655   2
   0  -5  -2 0.38272 3.11731   1
   0  -5  -2 -1.3726 3.66060   2
   0   5   2 -1.3930 2.68947   3
   0   5   2 0.39036 2.79463   1
   0   5   2 0.90142 3.14074   2
  -1  -5  -2 47.9662 7.61463   1
   1   5   2 58.9944 8.76797   3
   1   5   2 67.7073 8.05767   2
   1   5   2 54.4320 6.69850   1
   1   5   2 45.4330 7.00649   1
   2   5   2 1119.96 77.1766   5
   2   5   2 1078.45 81.4911   3
   2   5   2 980.544 67.8159   1
   2   5   2 1048.11 73.7707   4
   2   5   2 1109.97 75.4592   2
   3   5   2 217.030 19.7687   5
   3   5   2 203.091 18.6860   3
   3   5   2 215.992 17.9213   4
   3   5   2 219.276 17.8773   2
   4   5   2 15.6693 4.80794   4
   4   5   2 19.7901 4.24150   3
   4   5   2 20.6868 4.06108   2
   4   5   2 11.2793 5.73323   5
   5   5   2 12.5654 1.83030  10
   5   5   2 8.62579 5.55616   5
   5   5   2 20.4801 3.89318  18
   5   5   2 15.9322 2.92314  17
   5   5   2 12.4727 3.13974  11
   5   5   2 15.8739 6.40550   4
   5   5   2 13.6841 4.15129  13
   5   5   2 10.8423 3.61029  12
   6   5   2 43.1100 7.02494  12
   6   5   2 56.1982 5.89473  18
   6   5   2 49.4391 6.64880  13
   6   5   2 48.0975 3.38884  10
   6   5   2 49.4494 11.4711   5
   6   5   2 55.7529 5.77840  11
   6   5   2 40.9231 9.88245   4
   6   5   2 53.3193 5.65441  17
   7   5   2 13.5463 8.90719   4
   7   5   2 14.8104 4.14682  13
   7   5   2 18.1518 3.73620  11
   7   5   2 20.9474 4.24310  17
   7   5   2 21.9827 5.11725  12
   7   5   2 20.1583 3.79762  18
   8   5   2 2.25330 4.22335  13
   8   5   2 6.10745 2.60679  11
   8   5   2 10.6144 3.01738  18
   8   5   2 7.84327 3.40571  12
   9   5   2 125.981 12.6353  12
   9   5   2 163.268 12.4602  18
   6  -6  -2 2.12401 1.75044  10
   6  -6  -2 2.08722 3.16908  17
   5  -6  -2 3.69370 3.71412  17
   5  -6  -2 1.41816 1.50289   9
   5  -6  -2 2.50716 2.38889  10
   4  -6  -2 3.38079 2.12483   9
   4  -6  -2 0.98178 4.61807  17
   4  -6  -2 7.59896 2.47842  10
   3  -6  -2 87.1368 6.60820   8
   3  -6  -2 91.0037 10.4321  17
   3  -6  -2 81.4497 7.10609  10
   3  -6  -2 59.6256 16.1133   7
   3  -6  -2 90.0538 8.00866   9
   3  -6  -2 62.2097 14.1905   2
   3  -6  -2 45.7254 12.0878   3
   2  -6  -2 166.173 20.4567   3
   2  -6  -2 179.351 13.2477   9
   2  -6  -2 231.625 24.5818   7
   2  -6  -2 174.402 12.2148   8
   2  -6  -2 182.281 20.1246   2
   1  -6  -2 7.74365 2.76989   8
   1  -6  -2 17.5356 7.59587   7
   1  -6  -2 16.9940 7.02176   3
   1  -6  -2 20.7606 8.42969   2
   1   6   2 164.460 17.0354   2
   1   6   2 204.288 19.2552   3
   2   6   2 66.8145 9.45511   5
   2   6   2 65.5904 9.93031   3
   2   6   2 71.9065 10.0413   2
   2   6   2 63.0175 8.38839   4
   3   6   2 13.0683 4.97769   3
   3   6   2 21.1863 5.86739   2
   3   6   2 7.84068 5.67701   5
   3   6   2 10.4921 4.82118   4
   4   6   2 166.825 13.2668  11
   4   6   2 181.054 16.7503   3
   4   6   2 173.339 16.4157   4
   4   6   2 207.842 19.6288   5
   4   6   2 178.250 15.3061  13
   4   6   2 165.042 14.2549  12
   4   6   2 185.184 15.6757   2
   4   6   2 166.079 11.7820   9
   4   6   2 165.514 11.6058  10
   5   6   2 19.4335 1.95884   9
   5   6   2 25.6340 4.46497  12
   5   6   2 10.2694 6.76934   4
   5   6   2 30.3718 10.3660   5
   5   6   2 26.6223 3.76377  11
   5   6   2 24.6560 5.34652  13
   5   6   2 23.9384 2.71814  10
   5   6   2 30.9657 4.52405  18
   5   6   2 16.4819 3.71514   2
   6   6   2 8.28781 1.46139  10
   6   6   2 3.58307 3.16136  11
   6   6   2 14.8389 4.92808  13
   6   6   2 13.3018 4.28024  12
   6   6   2 -4.5845 11.9008   5
   6   6   2 16.5011 3.99527  18
   6   6   2 1.77610 6.92763   4
   7   6   2 1.40662 2.05457  11
   7   6   2 2.10951 3.97512  12
   7   6   2 1.95249 2.20913  18
   7   6   2 -2.7461 4.25282  13
   8   6   2 5.46495 3.25432  18
   8   6   2 0.58710 2.07950  11
   8   6   2 3.98314 3.28649  12
   8   6   2 5.80780 3.41238  13
   9   6   2 50.0661 5.51978  11
   9   6   2 54.3791 7.52136  12
   6  -7  -2 65.1476 6.91542  17
   5  -7  -2 5.40996 1.92457  10
   5  -7  -2 -0.4675 4.16957  17
   4  -7  -2 -0.3835 3.39997  17
   4  -7  -2 1.64795 1.99406  10
   4  -7  -2 0.67145 2.76414   9
   3  -7  -2 7.79041 2.58811  10
   3  -7  -2 5.98276 2.73004   9
   3  -7  -2 18.2000 5.59880  17
   3  -7  -2 12.6157 2.31809   8
   2  -7  -2 -0.3223 9.29479   3
   2  -7  -2 1.43315 11.9085   7
   2  -7  -2 6.28776 2.63471   8
   2  -7  -2 7.60537 3.43926   9
   2  -7  -2 2.36655 12.4536   2
   1  -7  -2 13.0401 10.3724   7
   1   7   2 192.360 19.3498   3
   1   7   2 164.281 19.1860   2
   1   7   2 175.580 11.9859   8
   2   7   2 0.79481 1.61003   8
   2   7   2 10.3429 6.09248   2
   2   7   2 1.61351 1.43546   9
   2   7   2 -0.5089 5.46203   5
   2   7   2 1.24035 5.62250   3
   3   7   2 52.3693 5.96528  12
   3   7   2 60.6880 4.76449   8
   3   7   2 56.0650 5.39397  10
   3   7   2 69.5085 10.7324   3
   3   7   2 72.4063 11.1718   5
   3   7   2 56.0457 10.5742   2
   3   7   2 62.6427 5.65060   9
   3   7   2 54.7226 9.44239   4
   4   7   2 47.4500 5.07383  11
   4   7   2 57.4639 11.7479   5
   4   7   2 52.3485 4.61046  10
   4   7   2 47.7467 8.71594   3
   4   7   2 56.6372 9.91373   4
   4   7   2 53.6484 4.90246   9
   4   7   2 53.7891 6.75820  12
   4   7   2 50.2543 7.74059  13
   4   7   2 58.1544 9.60624   2
   5   7   2 216.458 16.7185  11
   5   7   2 230.416 14.5101   9
   5   7   2 224.537 14.5158  10
   5   7   2 207.361 18.4462   2
   5   7   2 186.996 24.2403   5
   5   7   2 207.203 21.4995   4
   5   7   2 171.407 18.6054   3
   5   7   2 238.185 19.2295  13
   5   7   2 212.653 18.2668  12
   6   7   2 19.8194 2.57727  10
   6   7   2 18.1902 3.46057  11
   6   7   2 23.1231 5.23022  12
   6   7   2 20.6330 5.05633  13
   6   7   2 9.47308 15.0433   5
   6   7   2 0.29418 8.89855   4
   7   7   2 42.1493 6.43948  12
   7   7   2 37.1935 7.35819  13
   7   7   2 48.4216 5.55476  11
   8   7   2 9.20517 4.23805  12
   8   7   2 3.28115 3.08094  11
   8   7   2 -1.4280 4.77717  13
   9   7   2 15.5139 3.59835  12
   5  -8  -2 47.8130 6.17040  17
   5  -8  -2 56.1140 4.82081  10
   4  -8  -2 11.2333 2.81602   9
   4  -8  -2 9.25364 3.63861  17
   4  -8  -2 10.5105 2.59694  10
   3  -8  -2 12.6669 3.96857   9
   3  -8  -2 20.7585 4.07398  10
   3  -8  -2 27.3227 5.37218  17
   2  -8  -2 0.76749 1.83307   8
   2  -8  -2 -2.9064 3.26889   9
   1  -8  -2 0.02704 2.64411   8
   1  -8  -2 8.51374 13.0409   7
   1   8   2 136.931 10.2559   8
   1   8   2 190.139 18.7529   5
   2   8   2 29.9794 9.45746   3
   2   8   2 37.0764 11.3381   2
   2   8   2 34.4723 3.54594   8
   2   8   2 29.4529 4.92182   9
   2   8   2 33.4590 11.0129   5
   3   8   2 35.9363 8.69472   2
   3   8   2 53.1362 4.93239   9
   3   8   2 44.0280 4.20193   8
   3   8   2 60.8097 12.5483   5
   3   8   2 38.8201 4.97466  10
   3   8   2 45.4633 9.59492   3
   4   8   2 97.5948 10.7075  13
   4   8   2 77.8585 12.5768   3
   4   8   2 82.6909 13.5055   2
   4   8   2 85.5895 15.3786   5
   4   8   2 84.2975 9.01531  12
   4   8   2 89.0002 7.25491   9
   4   8   2 87.5480 7.00052  10
   5   8   2 16.7478 3.14722  11
   5   8   2 18.7714 2.90679  10
   5   8   2 19.5837 14.4617   5
   5   8   2 11.9069 4.16710  12
   5   8   2 21.5099 2.89054   9
   5   8   2 23.4190 5.92050  13
   6   8   2 4.50951 2.25658  11
   6   8   2 6.58775 3.23287  12
   6   8   2 7.35904 1.86011  10
   6   8   2 6.66069 4.13725  13
   7   8   2 4.34481 3.87758  12
   7   8   2 0.03486 2.75939  11
   7   8   2 -2.0974 3.76874  13
   8   8   2 21.6681 5.02104  12
   8   8   2 26.4087 6.20867  13
   8   8   2 24.5704 3.99954  11
   9   8   2 3.00368 2.66931  12
   9   8   2 12.5109 2.44844  11
   4  -9  -2 -2.1697 2.40444  17
   4  -9  -2 1.55307 2.38636  10
   3  -9  -2 65.5591 8.33652  17
   3  -9  -2 58.9201 6.83605  10
   3  -9  -2 46.2746 6.33486   9
   2  -9  -2 16.0878 4.10662   9
   2  -9  -2 27.6619 5.27901  17
   2  -9  -2 16.2904 3.01516   8
   1  -9  -2 2.72525 2.19005   8
   0  -9  -2 1.95474 2.26732   8
   0   9   2 0.87981 2.46896   8
   1   9   2 23.9953 8.60307   5
   1   9   2 25.2570 4.09560   8
   2   9   2 -0.2543 1.98450   8
   2   9   2 10.3467 9.69689   5
   3   9   2 41.6313 3.93126   8
   3   9   2 29.1163 4.16188  10
   3   9   2 34.9753 13.0233   5
   3   9   2 34.9513 4.50300   9
   4   9   2 553.537 35.9310  10
   4   9   2 578.654 50.6998   5
   4   9   2 590.754 44.0115  13
   4   9   2 578.250 36.7830   9
   4   9   2 498.774 42.3440  12
   5   9   2 4.76219 2.79520  12
   5   9   2 3.04237 4.73608  13
   5   9   2 4.49838 1.76224   9
   5   9   2 4.29378 2.29726  10
   6   9   2 6.55547 4.08137  12
   6   9   2 7.37204 1.95696  10
   6   9   2 7.92542 2.82030  11
   6   9   2 6.57469 4.31432  13
   7   9   2 17.0461 4.63269  12
   7   9   2 24.6426 3.57914  11
   7   9   2 13.3655 6.19982  13
   8   9   2 1.02757 3.37965  12
   8   9   2 -0.2277 1.71854  11
   8   9   2 0.18997 4.28185  13
   3 -10  -2 -2.4997 2.49480  17
   2 -10  -2 2.91622 3.40269  17
   1 -10  -2 1.88829 1.90063   8
   0 -10  -2 71.0983 6.80558   8
   0  10   2 77.1348 7.03104   8
   1  10   2 2.75180 2.35439   8
   2  10   2 1.23709 1.94755   8
   2  10   2 10.8932 3.28945   9
   3  10   2 -0.9638 1.41587   8
   3  10   2 -1.2656 1.77699  10
   3  10   2 -3.8915 3.54223  13
   3  10   2 2.40386 2.74499   9
   4  10   2 3.64203 3.20935  13
   4  10   2 4.92604 2.42385   9
   4  10   2 5.75281 2.60491  10
   5  10   2 11.3367 3.05520  12
   5  10   2 23.2467 5.61089  13
   5  10   2 11.0649 2.07216   9
   5  10   2 12.9514 2.42844  10
   6  10   2 165.766 10.4400  10
   6  10   2 155.863 14.8190  13
   6  10   2 122.097 12.4875  12
   7  10   2 30.6695 5.25108  13
   7  10   2 13.9436 3.12738  12
   8  10   2 1.65174 1.85427  12
   1 -11  -2 0.39092 2.66008  17
   0 -11  -2 23.1382 3.88563   8
   0  11   2 24.2380 4.10327   8
  -1 -11  -2 28.4603 4.45552   8
   1  11   2 34.5556 4.30044   8
   2  11   2 10.1311 2.75978   9
   2  11   2 20.8468 3.99348  13
   3  11   2 2.06139 3.54168  13
   3  11   2 -2.9989 2.48188   9
   4  11   2 51.3957 6.66441  13
   4  11   2 54.6287 5.48798   9
   4  11   2 46.3261 5.62098  10
   5  11   2 0.85731 2.06226  10
   5  11   2 -2.6637 2.61468  13
   6  11   2 12.6558 1.98158  10
   6  11   2 7.13790 3.08852  13
   1  12   2 0.23502 1.78304  13
   2  12   2 0.26305 1.92119  13
   3  12   2 2.42455 2.24458  13
   4  12   2 2.08052 2.24054  13
   4  12   2 2.85644 1.71221  10
   5  12   2 11.1065 2.86003  13
   5  12   2 24.4218 3.11075  10
   6  11  -3 73.4916 5.06402  10
   5  11  -3 3.42135 1.51871  10
   5  11  -3 0.64419 2.02915  12
   4  11  -3 -0.9828 2.47943  13
   4  11  -3 0.52822 1.58136  10
   4  11  -3 -1.0950 1.58149   9
   3  11  -3 2.58153 3.77859  13
   3  11  -3 2.06704 1.81098   9
   2  11  -3 27.0474 3.90226   9
   2  11  -3 25.2187 2.88288   8
   1  11  -3 1.51440 1.66051   8
  -1 -11   3 1.55721 2.09526   8
   0  11  -3 97.8971 7.25841   8
   0 -11   3 104.956 7.44534   8
   1 -11   3 190.207 13.3476  17
   1 -11   3 144.553 9.83156   8
   7  10  -3 10.4944 2.51909  12
   6  10  -3 84.0090 6.35065  10
   6  10  -3 86.2258 8.90147  12
   5  10  -3 20.6292 2.21490   9
   5  10  -3 15.5226 3.88312  13
   5  10  -3 18.1525 2.86125  10
   5  10  -3 14.3125 3.55748  12
   4  10  -3 185.003 15.4791  13
   4  10  -3 140.221 13.8996  12
   4  10  -3 169.286 11.9108   9
   4  10  -3 176.689 12.3090  10
   3  10  -3 2.48756 1.23596   8
   3  10  -3 3.96596 2.58439   9
   3  10  -3 0.42988 4.02358  13
   2  10  -3 23.3839 3.99227   9
   2  10  -3 18.9771 2.86146   8
   1  10  -3 16.2432 2.57514   8
   0  10  -3 6.63032 2.05448   8
   0 -10   3 14.3036 3.40559   8
   1 -10   3 52.0466 5.38831   8
   2 -10   3 23.7290 4.73445  17
   2 -10   3 18.5598 3.66750   9
   7   9  -3 195.558 15.2726  12
   7   9  -3 163.859 13.4367  11
   6   9  -3 45.8487 5.97205  12
   6   9  -3 35.2858 3.52754  10
   5   9  -3 3.56130 1.69422  10
   5   9  -3 4.19276 4.45616  13
   5   9  -3 3.66623 1.48350   9
   5   9  -3 2.99852 3.71234  12
   4   9  -3 40.2203 7.58135  13
   4   9  -3 30.3558 4.09160  10
   4   9  -3 30.7444 3.73583   9
   4   9  -3 33.3924 6.42925  12
   3   9  -3 163.151 13.9701  12
   3   9  -3 159.868 10.9099   8
   3   9  -3 155.013 11.9123  10
   3   9  -3 165.800 12.3759   9
   2   9  -3 31.1188 4.22825   8
   2   9  -3 32.1346 5.36356   9
   1   9  -3 52.3675 5.76832   8
   0   9  -3 51.9872 6.34891   8
   0  -9   3 61.8826 6.30757   8
   1  -9   3 14.7039 3.64483   8
   2  -9   3 3.66469 2.60434   9
   2  -9   3 3.71782 2.02233   8
   3  -9   3 9.86414 2.91704   9
   3  -9   3 7.80424 3.40708  17
   3  -9   3 2.26849 2.55818  10
   4  -9   3 100.072 7.34835  10
   4  -9   3 80.7323 8.25261  17
   8   8  -3 0.90293 1.81751  11
   8   8  -3 0.69012 2.88795  12
   7   8  -3 27.6070 4.13483  11
   7   8  -3 34.8067 6.00913  12
   6   8  -3 69.8909 5.40659  10
   6   8  -3 65.3094 6.52897  11
   6   8  -3 64.4553 8.12748  12
   5   8  -3 198.123 13.2211  10
   5   8  -3 183.186 16.8106  13
   5   8  -3 195.271 13.0976   9
   5   8  -3 174.484 16.4029  12
   4   8  -3 30.8783 6.22238  13
   4   8  -3 33.6310 4.51985  10
   4   8  -3 32.6916 4.18150   9
   4   8  -3 27.8338 5.10926  12
   4   8  -3 13.6403 7.58981   4
   3   8  -3 5.99730 2.03547  10
   3   8  -3 -6.0216 8.35848   2
   3   8  -3 -2.6115 11.2860   5
   3   8  -3 4.79847 1.77246   8
   3   8  -3 3.72460 2.36628  12
   3   8  -3 -0.0837 1.67876   9
   2   8  -3 12.9731 8.04247   2
   2   8  -3 16.6536 9.47806   3
   2   8  -3 16.9616 3.84352  12
   2   8  -3 17.7203 3.15938   9
   2   8  -3 19.2545 2.95569   8
   1   8  -3 7.94528 2.15043   8
   0  -8   3 5.80334 2.80927   8
   1  -8   3 28.1391 4.32889   8
   2  -8   3 2.55698 2.57983   9
   2  -8   3 0.91002 2.34690   8
   3  -8   3 4.89713 2.39972  10
   3  -8   3 2.67603 2.25644   9
   3  -8   3 4.84215 3.88264  17
   3  -8   3 5.10127 0.91238   8
   4  -8   3 6.92233 3.04200  10
   4  -8   3 4.69967 2.20651   9
   4  -8   3 -2.2748 3.07003  17
   5  -8   3 11.7569 2.32018  10
   5  -8   3 8.84958 2.76866  17
   8   7  -3 97.5595 7.62407  11
   8   7  -3 60.1680 8.47386  12
   7   7  -3 2.89399 3.42875  18
   7   7  -3 -0.1683 2.83203  11
   7   7  -3 -5.2219 2.93262  12
   6   7  -3 0.39371 2.21527  11
   6   7  -3 4.48866 1.53849  10
   6   7  -3 6.11315 2.66532  18
   6   7  -3 0.21343 3.30476  12
   5   7  -3 457.061 38.0392  13
   5   7  -3 448.056 34.6190  11
   5   7  -3 422.722 39.7836   4
   5   7  -3 503.125 37.6520  12
   5   7  -3 515.538 36.8915  18
   5   7  -3 492.738 31.2334   9
   5   7  -3 474.647 30.7290  10
   4   7  -3 373.602 28.1946  12
   4   7  -3 355.081 29.1996  13
   4   7  -3 318.181 30.5820   4
   4   7  -3 344.994 23.7259   9
   4   7  -3 327.980 31.4837   3
   4   7  -3 359.645 23.3650  10
   4   7  -3 391.663 30.8870   2
   3   7  -3 1.85669 4.67362   4
   3   7  -3 2.96985 1.58094  10
   3   7  -3 -1.1278 5.80320   3
   3   7  -3 3.78550 6.46443   2
   3   7  -3 0.39022 2.78980  12
   3   7  -3 4.66434 2.14296   9
   3   7  -3 8.12585 6.76002   5
   3   7  -3 3.64905 1.51205   8
   2   7  -3 -0.6664 2.11459   9
   2   7  -3 -0.5781 1.08883   8
   2   7  -3 3.56889 6.15918   3
   2   7  -3 -4.1094 7.18745   2
   1   7  -3 20.5578 2.97821   8
   1  -7   3 36.3028 5.81615   8
   2  -7   3 28.4169 17.2341   2
   2  -7   3 20.1077 3.54991   8
   2  -7   3 29.4992 15.5508   7
   2  -7   3 17.0344 4.38842   9
   3  -7   3 4.51201 3.33376  10
   3  -7   3 1.32718 1.76215   8
   3  -7   3 -1.2899 3.16014   9
   3  -7   3 -1.4405 3.07807  16
   4  -7   3 0.57576 4.59364  16
   4  -7   3 -0.8205 2.48765   9
   4  -7   3 -0.6232 2.70558  10
   4  -7   3 -5.4287 5.17259  17
   5  -7   3 11.2242 3.03007  10
   5  -7   3 18.5148 4.51621  17
   9   6  -3 2.24523 1.98508  11
   8   6  -3 10.2839 3.55568  11
   8   6  -3 9.45887 3.84638  18
   8   6  -3 6.84146 5.05045  12
   7   6  -3 130.012 13.2755  12
   7   6  -3 123.409 11.2712  11
   7   6  -3 142.860 12.4016  18
   6   6  -3 6.52515 3.74620  12
   6   6  -3 10.7414 2.90141  11
   6   6  -3 13.1806 3.73245  18
   6   6  -3 8.37184 1.73890  10
   6   6  -3 2.29810 7.77869   4
   5   6  -3 139.629 18.5153   4
   5   6  -3 164.113 12.9917  18
   5   6  -3 138.789 12.2120  11
   5   6  -3 155.680 10.4538  10
   5   6  -3 146.408 10.3491   9
   5   6  -3 161.613 13.9583  12
   5   6  -3 131.700 15.1621   3
   4   6  -3 30.7894 7.62552   4
   4   6  -3 43.7467 6.50312  12
   4   6  -3 36.8535 6.33417  13
   4   6  -3 37.0553 4.63019  11
   4   6  -3 50.9263 9.14812   2
   4   6  -3 38.4596 7.77430   3
   4   6  -3 45.4440 4.03878  10
   4   6  -3 45.0384 4.25174   9
   4   6  -3 47.8953 5.49522  18
   3   6  -3 188.737 13.2731   8
   3   6  -3 235.345 19.9518   4
   3   6  -3 225.590 16.6131  18
   3   6  -3 229.109 20.6495   3
   3   6  -3 198.613 22.1784   5
   3   6  -3 214.014 17.2087  12
   3   6  -3 194.242 14.0682  10
   3   6  -3 213.626 19.8408   2
   3   6  -3 200.551 14.4076   9
   2   6  -3 95.4078 10.9462   4
   2   6  -3 89.8770 12.3890   3
   2   6  -3 79.8215 11.7713   2
   2   6  -3 86.5669 6.58945   8
   1   6  -3 302.653 28.5518   3
   1   6  -3 332.374 27.3402   2
   1  -6   3 14.8917 7.69561   3
   1  -6   3 25.7878 11.4671   2
   1  -6   3 31.6385 4.03098   8
   2  -6   3 6.91353 7.63452   3
   2  -6   3 14.0356 7.96157   2
   2  -6   3 19.2331 3.25312   8
   2  -6   3 14.6641 3.66205  16
   2  -6   3 18.1189 3.44569   9
   3  -6   3 131.335 10.3554   9
   3  -6   3 175.254 28.0310   7
   3  -6   3 135.046 10.7954  10
   3  -6   3 113.397 12.9187  16
   3  -6   3 133.578 18.6438   2
   3  -6   3 129.560 9.26710   8
   4  -6   3 113.022 8.94030   9
   4  -6   3 93.6191 8.48652  10
   4  -6   3 121.255 11.9830  17
   4  -6   3 90.4337 10.5486  16
   5  -6   3 7.52697 2.32021  10
   5  -6   3 13.5540 4.83567  17
   5  -6   3 6.06623 4.72894  16
   6  -6   3 28.1189 3.24956  10
   6  -6   3 28.2630 6.06967  17
   6  -6   3 22.0753 4.71782  16
   9   5  -3 -0.9413 2.13185  18
   9   5  -3 0.10454 2.37846  11
   8   5  -3 16.1041 3.62605  18
   8   5  -3 19.3259 5.18185  12
   8   5  -3 20.4985 4.00929  11
   7   5  -3 -0.7401 1.99719  11
   7   5  -3 -4.7903 2.71672  12
   7   5  -3 -1.2233 2.21469  18
   6   5  -3 227.469 20.4532  12
   6   5  -3 236.141 15.1690  10
   6   5  -3 255.425 19.5376  17
   6   5  -3 193.667 23.0029   4
   6   5  -3 228.248 18.4932  11
   6   5  -3 231.264 19.4068  18
   5   5  -3 157.087 13.6187  18
   5   5  -3 161.946 14.3562  12
   5   5  -3 156.440 14.3236   3
   5   5  -3 169.779 11.0178  10
   5   5  -3 169.087 13.9216   2
   5   5  -3 157.316 17.5283   4
   5   5  -3 158.206 13.0018  11
   5   5  -3 159.161 10.7181   9
   4   5  -3 39.9229 7.07099   2
   4   5  -3 35.2423 6.81352   3
   4   5  -3 40.4413 5.11593  11
   4   5  -3 36.8533 3.74067  10
   4   5  -3 38.9800 3.71617   9
   4   5  -3 39.8753 4.56140  18
   4   5  -3 38.8933 5.31182  12
   4   5  -3 42.6022 7.75456   4
   3   5  -3 3.36552 3.75038   2
   3   5  -3 3.11810 4.29188   4
   3   5  -3 5.67783 5.60684   5
   3   5  -3 11.8416 4.45335   3
   2   5  -3 14.1286 5.21594   2
   2   5  -3 20.6391 5.04153   4
   2   5  -3 16.7911 5.33843   3
   1   5  -3 75.4171 8.41053   4
   1   5  -3 65.4062 10.0622   3
   1   5  -3 65.7469 8.39711   1
   1   5  -3 84.7305 9.62759   2
   0  -5   3 212.788 20.6948   3
   0  -5   3 199.998 20.8458   2
   1  -5   3 5.77229 4.87507   3
   1  -5   3 7.72860 6.88148   2
   1  -5   3 6.06627 5.69957   6
   2  -5   3 65.1387 7.51765  16
   2  -5   3 91.9658 14.4797   2
   2  -5   3 62.2954 6.28706   9
   2  -5   3 63.6928 11.7048   6
   2  -5   3 66.1350 5.63124   8
   2  -5   3 90.2100 12.1427   3
   3  -5   3 12.1812 6.30187   6
   3  -5   3 10.6068 3.65697  16
   3  -5   3 14.0439 2.12726   8
   3  -5   3 10.7805 9.15331   2
   3  -5   3 21.5001 3.61970   9
   3  -5   3 26.0485 12.4095   7
   3  -5   3 10.7615 6.42855   3
   3  -5   3 15.3824 3.45829  10
   4  -5   3 20.5201 5.50458  16
   4  -5   3 -5.0670 16.4364   7
   4  -5   3 30.3441 4.27001  10
   4  -5   3 27.7428 4.52739   9
   4  -5   3 21.7008 6.64676  17
   4  -5   3 12.0615 9.13944   2
   4  -5   3 3.82215 8.32991   6
   5  -5   3 19.6397 3.32617  10
   5  -5   3 13.1011 5.10078  17
   5  -5   3 15.1427 4.46809  16
   5  -5   3 18.5159 2.95371   9
   6  -5   3 59.2006 9.42037  16
   6  -5   3 72.5483 5.94840  10
   6  -5   3 72.4918 9.13450  17
   7  -5   3 5.13184 3.19664  17
   7  -5   3 -1.2650 2.38128  16
   9   4  -3 12.3869 3.73879  18
   9   4  -3 13.1893 3.24748  11
   8   4  -3 1.33136 2.43890  11
   8   4  -3 -2.1158 2.00855  18
   8   4  -3 3.08459 3.65691  17
   7   4  -3 11.1874 3.94988  11
   7   4  -3 3.14780 3.35655  18
   7   4  -3 5.62576 4.53351  12
   7   4  -3 9.42291 3.95638  17
   6   4  -3 31.9858 10.5167   4
   6   4  -3 31.9505 5.89350  12
   6   4  -3 31.7715 2.92298  10
   6   4  -3 33.2620 5.53545  18
   6   4  -3 36.1626 4.89247  17
   6   4  -3 31.2236 4.82340  11
   5   4  -3 23.1537 7.57973   4
   5   4  -3 20.0549 4.09489  18
   5   4  -3 23.2894 2.51687  10
   5   4  -3 20.5727 3.77242  17
   5   4  -3 22.8875 4.20667  12
   5   4  -3 23.6543 4.16038  11
   4   4  -3 247.400 16.6311  10
   4   4  -3 242.331 20.8854  12
   4   4  -3 253.308 20.1696  17
   4   4  -3 271.380 22.6004   4
   4   4  -3 286.597 22.0741   3
   4   4  -3 260.457 20.4487   2
   3   4  -3 471.004 37.0572   3
   3   4  -3 469.157 35.8627   5
   3   4  -3 442.977 34.1152   2
   3   4  -3 455.698 34.8334   4
   2   4  -3 116.155 10.9520   4
   2   4  -3 110.251 12.0149   3
   1   4  -3 303.572 22.6591   1
   1   4  -3 332.454 27.0143   3
   1   4  -3 326.906 25.3129   2
   1   4  -3 306.572 23.0822   1
   1   4  -3 336.967 24.1459   4
  -1  -4   3 321.659 23.7629   1
  -1  -4   3 309.852 22.9199   1
   0   4  -3 0.96156 3.47746   1
   0   4  -3 -1.6200 3.30548   3
   0   4  -3 -2.2802 2.92061   1
   0   4  -3 7.61818 4.29338   2
   0   4  -3 2.00097 1.95847   4
   0  -4   3 -0.9078 2.97148   6
   0  -4   3 -3.7325 3.76294   1
   0  -4   3 0.96542 3.58872   3
   0  -4   3 2.25497 5.18164   2
   0  -4   3 0.73694 3.02747   1
  -1   4  -3 14.1075 4.06331   1
   1  -4   3 5.53723 4.11588   2
   1  -4   3 21.4040 4.98085   3
   1  -4   3 19.0991 5.91050   6
   1  -4   3 8.89889 4.26149   1
   2  -4   3 2713.59 189.142   2
   2  -4   3 2788.07 204.413   3
   2  -4   3 2705.28 196.051   6
   3  -4   3 15.2093 3.11385  10
   3  -4   3 18.6699 2.85878   8
   3  -4   3 17.2496 3.85004  16
   3  -4   3 27.9899 8.85298   7
   3  -4   3 18.7075 5.69063   3
   3  -4   3 15.8455 6.48222   2
   3  -4   3 15.5287 6.72862   6
   3  -4   3 12.3490 2.93742   9
   4  -4   3 8.71428 7.89182   2
   4  -4   3 0.51221 9.55943   6
   4  -4   3 -1.2517 4.37051  17
   4  -4   3 -3.2666 11.2098   7
   4  -4   3 1.33333 4.72297   3
   4  -4   3 1.03451 3.76303  16
   4  -4   3 -0.8772 1.92229   9
   4  -4   3 0.83705 3.49523  15
   4  -4   3 0.49071 2.29162  10
   5  -4   3 8.55937 2.55119  10
   5  -4   3 8.46466 3.37884  15
   5  -4   3 6.74378 3.98037  17
   5  -4   3 -9.5599 13.2444   6
   5  -4   3 4.99045 1.95725   9
   5  -4   3 7.41016 3.48744  16
   5  -4   3 2.41592 12.2612   7
   6  -4   3 20.4749 6.30306  17
   6  -4   3 21.6978 4.65979  15
   6  -4   3 16.2124 2.66808  10
   6  -4   3 16.9050 5.56462  16
   7  -4   3 -1.8229 3.23741  17
   7  -4   3 2.31423 3.03037  16
   7  -4   3 -1.2063 2.65726  15
   9   3  -3 35.0173 5.59750  18
   9   3  -3 21.2065 3.92789  11
   8   3  -3 104.038 9.98014  11
   8   3  -3 117.540 10.9612  17
   8   3  -3 104.639 10.3020  18
   7   3  -3 49.9682 7.27011  18
   7   3  -3 52.2705 6.38586  11
   7   3  -3 54.8829 6.66615  17
   6   3  -3 -1.9407 1.88723  18
   6   3  -3 3.39959 2.39146  16
   6   3  -3 -0.8885 7.82179   4
   6   3  -3 -0.0947 3.03033  11
   6   3  -3 1.22043 0.76591  10
   6   3  -3 1.35538 2.05541  17
   6   3  -3 -3.6985 3.08250  12
   5   3  -3 0.19678 1.72443  18
   5   3  -3 0.14990 1.08802  10
   5   3  -3 1.47096 1.81898  11
   5   3  -3 -5.2542 2.50666  16
   5   3  -3 -1.1212 2.30710  17
   5   3  -3 -2.1703 3.24239   4
   5   3  -3 3.71881 2.86176  12
   4   3  -3 -1.3177 4.55621   4
   4   3  -3 7.48804 2.66950   3
   4   3  -3 2.24128 2.55112   2
   3   3  -3 5.75894 4.01214   4
   3   3  -3 4.98819 2.84458   3
   3   3  -3 1.72164 2.64396   2
   3   3  -3 0.26514 3.15686   5
   2   3  -3 106.298 9.95938   2
   2   3  -3 106.987 8.84658   1
   2   3  -3 112.437 10.5382   3
   2   3  -3 78.6571 8.53767   1
   2   3  -3 93.7744 10.1235   4
  -2  -3   3 104.152 9.08040   1
  -2  -3   3 97.9119 9.52433   1
   1   3  -3 518.843 32.7710   1
   1   3  -3 505.014 35.2787   4
   1   3  -3 544.008 39.2897   3
   1   3  -3 485.165 32.9237   1
   1   3  -3 559.841 36.5618   2
  -1  -3   3 495.329 32.8882   1
  -1  -3   3 458.507 36.0878   6
  -1  -3   3 505.228 33.4405   1
  -1  -3   3 455.960 39.0204   3
  -1  -3   3 448.374 37.0680   2
   0   3  -3 38.8948 6.61134   3
   0   3  -3 46.9441 6.78469   2
   0   3  -3 52.3415 6.30294   1
   0   3  -3 40.1534 5.51087   1
   0   3  -3 41.0475 4.80339   4
   0  -3   3 45.4672 6.59784   1
   0  -3   3 46.1720 6.26642   6
   0  -3   3 39.1767 6.72471   3
   0  -3   3 52.3824 8.14079   2
   0  -3   3 43.1439 5.87940   1
  -1   3  -3 258.918 22.2568   3
  -1   3  -3 264.645 18.6517   1
  -1   3  -3 217.341 20.3725   2
  -1   3  -3 237.418 18.8004   1
   1  -3   3 278.432 22.2525   3
   1  -3   3 271.587 21.6411   2
   1  -3   3 279.013 21.9269   6
   1  -3   3 266.016 19.2183   1
   1  -3   3 240.430 18.4230   1
   2  -3   3 37.0280 8.10181   6
   2  -3   3 37.6380 5.86244   1
   2  -3   3 43.9350 6.93932   3
   2  -3   3 54.6822 7.42346   2
   3  -3   3 162.531 14.9772   3
   3  -3   3 127.711 16.7808   6
   3  -3   3 127.804 17.4812   7
   3  -3   3 156.674 15.0435   2
   4  -3   3 75.4599 14.3809   7
   4  -3   3 47.2895 4.69513   9
   4  -3   3 51.1359 8.95012   3
   4  -3   3 53.4914 6.67117  17
   4  -3   3 51.7638 5.09043  10
   4  -3   3 66.9798 6.21557  14
   4  -3   3 41.9930 7.15271  15
   4  -3   3 60.5583 9.36558   2
   4  -3   3 85.5901 14.7096   6
   4  -3   3 51.7319 7.73297  16
   5  -3   3 23.8433 11.7881   6
   5  -3   3 46.7343 6.57929  16
   5  -3   3 36.9434 14.9148   7
   5  -3   3 27.3676 6.25280   2
   5  -3   3 42.1288 7.40648  15
   5  -3   3 39.5483 3.52507   9
   5  -3   3 43.3674 7.39284  17
   5  -3   3 36.1097 4.32933  10
   5  -3   3 31.0230 6.40579   3
   5  -3   3 42.1831 5.50043  14
   6  -3   3 6.17232 3.77334  17
   6  -3   3 4.34370 1.66941  10
   6  -3   3 -2.0388 4.28914  15
   6  -3   3 6.13739 3.70347  16
   7  -3   3 0.66611 4.76241  16
   7  -3   3 16.4917 4.14050  15
   7  -3   3 14.6238 5.68122  17
   8  -3   3 11.8563 4.66722  17
   8  -3   3 11.6460 4.49884  16
   9   2  -3 19.0689 3.57197  17
   9   2  -3 12.2802 3.29062  18
   8   2  -3 115.602 11.0267  17
   8   2  -3 102.690 10.2522  11
   8   2  -3 107.348 10.5269  18
   7   2  -3 81.0234 9.71440  17
   7   2  -3 80.2647 8.93203  18
   7   2  -3 96.1400 9.23790  16
   7   2  -3 94.3816 8.76395  11
   6   2  -3 88.5283 8.43827  16
   6   2  -3 86.1966 8.82218  17
   6   2  -3 84.4950 8.02814  11
   6   2  -3 82.4458 12.3903   4
   6   2  -3 75.4170 5.34997  10
   6   2  -3 69.1833 13.6357   7
   6   2  -3 79.8108 8.75029  18
   5   2  -3 7.38781 7.19017   7
   5   2  -3 18.4138 3.53844  17
   5   2  -3 17.5716 3.71545  11
   5   2  -3 20.7042 3.55200  16
   5   2  -3 12.5429 5.64775   4
   5   2  -3 15.7787 3.27163  18
   5   2  -3 15.8191 2.18818  10
   5   2  -3 19.9987 3.66286  15
   4   2  -3 -1.9600 4.52951   7
   4   2  -3 -0.5107 1.55443   3
   4   2  -3 1.50044 1.96844   2
   4   2  -3 0.73479 1.82852   3
   4   2  -3 -0.5769 3.64875   4
   4   2  -3 1.99032 2.11486   2
   3   2  -3 17.2113 3.82716   2
   3   2  -3 15.2041 3.24894   1
   3   2  -3 8.24214 3.24277   3
   3   2  -3 13.5117 4.71178   4
   3   2  -3 9.84473 2.81233   1
   3   2  -3 3.65358 2.46017   5
   3   2  -3 18.2634 5.38683   7
   3   2  -3 6.62274 3.09452   3
   3   2  -3 5.94068 3.60205   2
  -3  -2   3 7.61204 2.98032   1
   2   2  -3 1.11076 2.05970   1
   2   2  -3 2.64443 2.69159   7
   2   2  -3 1.69209 1.94036   5
   2   2  -3 2.27776 2.55970   3
   2   2  -3 2.15848 3.08921   4
   2   2  -3 4.74365 2.97165   2
   2   2  -3 1.00409 2.14646   1
   2   2  -3 2.22224 2.50270   3
   2   2  -3 2.91483 3.16598   2
  -2  -2   3 0.58501 2.09044   1
  -2  -2   3 3.20439 2.45361   1
   1   2  -3 158.151 13.2377   3
   1   2  -3 144.417 12.5392   2
   1   2  -3 140.520 10.8763   1
   1   2  -3 131.996 11.1332   1
   1   2  -3 143.476 11.8891   4
  -1  -2   3 148.896 11.1044   1
  -1  -2   3 132.066 13.0415   2
  -1  -2   3 159.712 11.7048   1
  -1  -2   3 146.143 13.0743   3
   0   2  -3 313.788 26.0787   3
   0   2  -3 319.960 21.8369   1
   0   2  -3 326.651 23.0118   4
   0   2  -3 326.263 24.4394   2
   0   2  -3 317.069 22.1062   1
   0  -2   3 325.695 21.9557   1
   0  -2   3 309.055 25.0083   2
   0  -2   3 337.281 24.8821   6
   0  -2   3 327.333 26.1181   3
   0  -2   3 353.015 22.4968   1
  -1   2  -3 1020.26 78.6053   3
  -1   2  -3 1087.68 65.4876   1
  -1   2  -3 1077.20 65.8334   1
  -1   2  -3 906.583 69.6442   4
  -1   2  -3 954.038 72.2472   2
   1  -2   3 1079.52 75.6283   6
   1  -2   3 1089.19 65.9068   1
   1  -2   3 1139.06 73.1992   2
   1  -2   3 1035.67 65.4386   1
   1  -2   3 1088.37 78.5501   3
  -2   2  -3 17.9773 3.75182   1
  -2   2  -3 9.76677 3.02208   1
   2  -2   3 8.69349 4.43679   6
   2  -2   3 17.5833 3.99100   3
   2  -2   3 12.8918 3.41962   1
   2  -2   3 15.0563 4.71297   2
   2  -2   3 14.2437 3.07834   1
   3  -2   3 9.02313 6.29698   6
   3  -2   3 7.59679 3.09787   3
   3  -2   3 8.98958 4.29758   7
   3  -2   3 17.4819 4.57506   2
   4  -2   3 4.38988 4.23127   2
   4  -2   3 4.90821 2.65367   3
   4  -2   3 7.58977 5.14203   7
   4  -2   3 3.77111 1.52968   9
   4  -2   3 1.17005 1.55625  10
   4  -2   3 4.12640 5.17646   6
   4  -2   3 3.44213 3.37891  16
   5  -2   3 17.9340 2.86180  10
   5  -2   3 18.7279 3.57845  14
   5  -2   3 17.6503 4.55318  16
   5  -2   3 16.3789 4.62882  15
   5  -2   3 16.1820 7.59356   7
   5  -2   3 14.4526 3.73188  17
   5  -2   3 16.4352 7.68938   6
   6  -2   3 134.280 8.89447  10
   6  -2   3 124.923 13.5397  16
   6  -2   3 130.187 12.5594  15
   6  -2   3 117.293 12.2072  17
   6  -2   3 77.6035 18.8355   6
   6  -2   3 147.251 12.1245  14
   7  -2   3 34.5212 6.51311  17
   7  -2   3 26.2406 6.06038  15
   7  -2   3 42.9194 6.71275  16
   8  -2   3 -3.6749 3.60634  15
   8  -2   3 -1.7672 3.41521  17
   8  -2   3 1.92381 3.18355  16
   9   1  -3 7.49172 2.99450  17
   9   1  -3 6.38759 2.84356  18
   8   1  -3 5.24206 3.91730  17
   8   1  -3 1.07125 2.76966  18
   8   1  -3 11.1632 4.41324  16
   7   1  -3 56.1654 7.75459  18
   7   1  -3 69.8497 7.51221  16
   7   1  -3 56.1468 7.99543  17
   7   1  -3 48.6019 7.01914  11
   6   1  -3 36.8946 2.83309  10
   6   1  -3 31.8224 4.84523  11
   6   1  -3 34.1327 12.4368   7
   6   1  -3 33.4186 5.17634  17
   6   1  -3 28.7761 5.12063  18
   6   1  -3 40.4923 5.30065  15
   6   1  -3 36.3791 6.54240  16
   5   1  -3 316.050 28.1282   7
   5   1  -3 297.597 18.8707  10
   5   1  -3 321.384 23.8496  15
   5   1  -3 287.447 23.6216  18
   5   1  -3 265.912 21.9170  11
   5   1  -3 296.791 23.5468  17
   5   1  -3 269.179 25.0880   4
   5   1  -3 314.797 23.5566  16
   4   1  -3 10.6251 2.49635   3
   4   1  -3 12.2463 2.49257   3
   4   1  -3 10.1637 2.53104   2
   4   1  -3 6.59761 2.60141   2
   4   1  -3 8.04894 5.65733   7
   4   1  -3 11.8226 4.00574   4
   3   1  -3 8.31493 3.74393   7
   3   1  -3 14.5018 4.41854   4
   3   1  -3 8.79267 2.91897   3
   3   1  -3 11.5864 2.76627   3
   3   1  -3 15.3206 3.61449   2
   3   1  -3 5.66861 2.59184   2
   3   1  -3 12.8781 2.89004   1
   3   1  -3 12.5456 2.55186   1
  -3  -1   3 10.2810 2.26920   1
  -3  -1   3 8.65626 2.64520   1
   2   1  -3 66.1749 6.02630   5
   2   1  -3 77.8198 7.69245   3
   2   1  -3 56.7596 7.42538   2
   2   1  -3 92.9201 8.00500   2
   2   1  -3 82.1394 6.74853   1
   2   1  -3 77.8924 9.07929   7
   2   1  -3 86.6550 7.95462   3
   2   1  -3 75.1300 8.09710   4
   2   1  -3 77.8781 6.83719   1
  -2  -1   3 78.9214 7.04958   1
  -2  -1   3 85.5689 6.77165   1
   1   1  -3 113.889 9.66819   2
   1   1  -3 98.9125 9.75345   3
   1   1  -3 109.021 8.44985   1
   1   1  -3 104.870 8.31775   1
   1   1  -3 111.304 9.99388   7
   1   1  -3 101.722 9.59830   3
   1   1  -3 108.379 9.29289   4
  -1  -1   3 106.404 8.12815   1
  -1  -1   3 99.1606 9.45463   3
  -1  -1   3 100.498 9.92262   2
  -1  -1   3 114.405 8.80238   1
   0   1  -3 14.9367 3.03572   1
   0   1  -3 16.1847 3.53205   3
   0   1  -3 17.0336 3.82639   2
   0   1  -3 14.9535 3.33716   1
   0  -1   3 16.8117 4.20287   2
   0  -1   3 14.0933 3.32980   3
   0  -1   3 16.9130 2.93813   1
   0  -1   3 12.8022 3.17093   1
  -1   1  -3 7001.19 411.331   1
  -1   1  -3 6430.34 494.762   3
  -1   1  -3 6403.94 454.414   2
  -1   1  -3 7167.08 411.057   1
   1  -1   3 6527.64 494.846   3
   1  -1   3 6607.56 410.953   1
   1  -1   3 6700.25 494.612   3
   1  -1   3 6658.38 411.199   1
   1  -1   3 7066.89 454.844   2
   1  -1   3 6992.21 472.420   6
  -2   1  -3 92.0753 7.38031   1
  -2   1  -3 82.1047 6.78175   1
   2  -1   3 72.3146 6.89480   1
   2  -1   3 86.2870 8.23928   2
   2  -1   3 63.9949 7.58861   2
   2  -1   3 73.6773 8.29862   3
   2  -1   3 85.3892 8.62078   7
   2  -1   3 82.6156 7.96379   3
   2  -1   3 80.1298 10.2281   6
   2  -1   3 85.0362 6.80502   1
  -3   1  -3 336.433 23.8016   1
   3  -1   3 363.930 28.6153   3
   3  -1   3 336.122 26.5173   2
   3  -1   3 357.696 23.8913   1
   3  -1   3 397.377 26.9540   2
   3  -1   3 351.360 30.2878   6
   3  -1   3 357.185 24.1064   1
   3  -1   3 401.696 28.5800   3
   3  -1   3 370.456 29.3684   7
   4  -1   3 -2.2572 3.92108   7
   4  -1   3 3.19623 2.25611   2
   4  -1   3 1.42582 1.80766   3
   4  -1   3 2.55990 2.47108   2
   4  -1   3 4.71615 6.38400   6
   4  -1   3 -0.7656 1.72318   3
   5  -1   3 1.28428 6.56812   7
   5  -1   3 0.93112 2.23314  16
   5  -1   3 1.37609 2.08868  14
   5  -1   3 0.74885 7.48606   6
   5  -1   3 2.31919 2.89059  17
   5  -1   3 0.30513 1.07714  10
   5  -1   3 0.03522 2.22792  15
   5  -1   3 -2.4744 2.49221  13
   6  -1   3 12.7582 3.41150  17
   6  -1   3 12.4343 1.61525  10
   6  -1   3 11.2886 3.68270  16
   6  -1   3 6.84150 8.15462   6
   6  -1   3 10.1010 3.76447  14
   6  -1   3 11.0752 4.45967  15
   7  -1   3 50.6975 7.38980  16
   7  -1   3 47.9062 7.42244  14
   7  -1   3 42.3408 7.03612  15
   7  -1   3 52.5377 7.77090  17
   8  -1   3 60.1056 7.96028  16
   8  -1   3 68.5817 7.82362  15
   8  -1   3 55.0821 7.29067  17
   9  -1   3 32.9910 5.34275  16
   9   0  -3 4.02247 2.69768  17
   8   0  -3 8.62704 3.56979  18
   8   0  -3 12.2495 3.71187  16
   8   0  -3 10.0122 4.54555  17
   7   0  -3 9.70980 3.56837  18
   7   0  -3 7.88017 4.29026  17
   7   0  -3 6.26864 3.18185  16
   6   0  -3 18.8236 8.91408   7
   6   0  -3 11.5719 1.89744  10
   6   0  -3 17.2403 3.79405  16
   6   0  -3 17.5372 3.79232  17
   6   0  -3 12.5881 3.38021  11
   6   0  -3 21.2852 4.41037  15
   6   0  -3 13.5865 4.43722  18
   5   0  -3 0.27632 2.42855  11
   5   0  -3 0.16943 2.70215  18
   5   0  -3 4.90644 3.08088  16
   5   0  -3 5.73619 2.81548  15
   5   0  -3 2.22883 2.17087  17
   5   0  -3 -2.4403 4.64703   7
   5   0  -3 0.99109 1.27680  10
   4   0  -3 -1.7370 1.93464   2
   4   0  -3 -0.2919 2.45785   3
   4   0  -3 0.48123 2.30651   2
   4   0  -3 -1.8681 3.26132   4
   4   0  -3 1.92874 4.94480   7
   4   0  -3 -0.8760 1.76118   3
   3   0  -3 1113.09 70.5603   1
   3   0  -3 1169.14 78.0768   4
   3   0  -3 1086.84 84.6295   3
   3   0  -3 1275.57 78.4882   2
   3   0  -3 1014.77 77.9330   2
   3   0  -3 1162.67 84.7049   7
   3   0  -3 1183.56 84.5919   3
   3   0  -3 1140.17 70.6242   1
  -3   0   3 1070.83 70.6814   1
   2   0  -3 21.4689 4.10677   2
   2   0  -3 15.8337 3.37267   3
   2   0  -3 23.5106 4.30184   4
   2   0  -3 17.8184 4.93342   7
   2   0  -3 20.4608 3.18824   1
   2   0  -3 19.4286 3.82958   3
   2   0  -3 20.6123 3.10838   1
   2   0  -3 17.3080 3.66790   2
  -2   0   3 19.5701 3.29134   1
  -2   0   3 15.1104 3.04486   1
   1   0  -3 21.3033 2.88435   1
   1   0  -3 19.6014 3.87843   3
   1   0  -3 12.6096 2.79227   3
   1   0  -3 23.0555 3.67772   2
   1   0  -3 22.2937 3.73351   1
   1   0  -3 23.8522 4.12053   7
  -1   0   3 22.6440 3.60691   2
  -1   0   3 20.1458 3.58598   3
  -1   0   3 18.4762 3.00209   1
  -1   0   3 29.7183 3.25720   1
   0   0  -3 83.0363 7.80927   3
   0   0  -3 83.1486 7.17066   7
   0   0  -3 89.5549 6.84968   1
   0   0  -3 85.9007 6.80778   1
   0   0  -3 81.4397 7.83805   2
   0   0   3 94.0007 6.99354   1
   0   0   3 88.2702 7.25260   5
   0   0   3 90.3030 7.92817   2
   0   0   3 81.1487 7.63529   3
   0   0   3 88.6762 6.64884   1
  -1   0  -3 416.327 24.8365   1
  -1   0  -3 413.169 25.0205   1
  -1   0  -3 361.203 29.6293   3
   1   0   3 393.552 29.5322   3
   1   0   3 385.917 27.6471   2
   1   0   3 323.830 29.4339   3
   1   0   3 390.125 24.8811   1
   1   0   3 418.587 29.2472   6
   1   0   3 395.565 28.1604   5
  -2   0  -3 28.8908 3.24445   1
  -2   0  -3 30.9953 3.61285   1
   2   0   3 35.4704 5.97549   5
   2   0   3 26.9679 3.13202   1
   2   0   3 29.1109 3.82737   2
   2   0   3 23.3080 3.90752   7
   2   0   3 34.4618 6.16394   6
   2   0   3 26.4669 3.36370   1
   2   0   3 30.3585 3.72913   3
   2   0   3 32.7393 4.32736   2
   2   0   3 33.0346 3.99563   3
  -3   0  -3 1.92049 1.40150   1
  -3   0  -3 2.37923 1.28944   1
   3   0   3 1.41861 1.47593   3
   3   0   3 2.35086 1.54035   3
   3   0   3 2.43210 2.84422   7
   3   0   3 1.37730 1.49675   2
   3   0   3 -0.2416 1.19493   1
   3   0   3 7.30186 3.75603   5
   3   0   3 -0.5090 4.78477   6
   3   0   3 2.65672 1.81729   2
   3   0   3 0.71160 1.25339   1
   4   0   3 346.254 29.3823   7
   4   0   3 385.224 31.4536   6
   5   0   3 -1.1490 2.65582  14
   5   0   3 0.34119 1.85560  13
   5   0   3 4.33380 3.16317  15
   5   0   3 1.50208 0.83592  10
   5   0   3 2.31346 4.80567   7
   5   0   3 -1.1763 4.28719   6
   5   0   3 -0.3458 2.85973  16
   6   0   3 12.9368 7.67455   6
   6   0   3 19.2119 3.80395  14
   6   0   3 11.6197 3.69610  17
   6   0   3 26.0110 4.82317  15
   6   0   3 8.57590 3.59062  13
   6   0   3 20.2484 4.01523  16
   7   0   3 1.20289 2.58199  14
   7   0   3 3.28828 3.65415  17
   7   0   3 1.42709 3.88429  16
   7   0   3 5.14267 8.66788   6
   7   0   3 -1.6367 3.96596  15
   8   0   3 5.17567 4.42704  16
   8   0   3 9.78070 4.15046  17
   8   0   3 15.3776 4.85816  15
   9   0   3 -2.0804 2.52913  15
   9   0   3 1.41336 3.73007  17
   9   0   3 -1.2085 2.62309  16
   8  -1  -3 73.9059 8.70849  18
   8  -1  -3 81.7914 8.75558  17
   8  -1  -3 103.090 9.76169  16
   7  -1  -3 294.896 25.1311  17
   7  -1  -3 306.807 25.3038  18
   7  -1  -3 316.156 24.9149  16
   6  -1  -3 14.7309 12.5000   7
   6  -1  -3 1.30457 2.30334  15
   6  -1  -3 1.11490 3.55868  16
   6  -1  -3 3.34827 2.82647  18
   6  -1  -3 -1.2889 1.25437  10
   6  -1  -3 0.86112 3.67471  17
   5  -1  -3 22.6751 2.67382  10
   5  -1  -3 17.9156 3.86995  17
   5  -1  -3 19.0490 3.72026  16
   5  -1  -3 21.3428 4.13539  15
   5  -1  -3 23.4006 4.66212  18
   5  -1  -3 12.9911 7.09416   7
   4  -1  -3 60.6856 11.7291   7
   4  -1  -3 83.3401 8.54283   2
   4  -1  -3 78.8106 8.01582   3
   4  -1  -3 55.6103 8.36621   4
   3  -1  -3 -1.8541 4.21413   7
   3  -1  -3 0.08384 2.69124   1
   3  -1  -3 -0.4627 2.67787   4
   3  -1  -3 -0.1377 2.58158   3
   3  -1  -3 -3.3776 2.26206   2
   2  -1  -3 179.569 15.7242   7
   2  -1  -3 167.895 12.3182   1
   2  -1  -3 182.472 14.5038   3
   2  -1  -3 132.246 13.4089   2
   2  -1  -3 150.295 14.2274   3
   2  -1  -3 163.472 13.8043   2
   2  -1  -3 173.458 12.3469   1
  -2   1   3 193.511 12.7505   1
  -2   1   3 169.438 12.3676   1
   1  -1  -3 20.7326 4.15009   3
   1  -1  -3 21.1954 4.18110   2
   1  -1  -3 16.9381 3.12660   1
   1  -1  -3 15.3128 3.07005   1
   1  -1  -3 20.7771 4.01869   3
   1  -1  -3 12.3642 3.90249   7
  -1   1   3 16.9272 3.66746   2
  -1   1   3 16.1378 2.06970   5
  -1   1   3 18.3968 3.21297   1
  -1   1   3 13.9981 3.33367   3
  -1   1   3 19.1507 3.13388   1
   0  -1  -3 2039.95 118.663   1
   0  -1  -3 1922.29 142.471   3
   0  -1  -3 1899.11 131.167   2
   0  -1  -3 1932.15 118.556   1
   0  -1  -3 1802.08 138.159   7
   0   1   3 1955.91 118.550   1
   0   1   3 1950.00 142.478   3
   0   1   3 2061.60 118.666   1
   0   1   3 1912.60 131.159   2
   0   1   3 1869.47 132.549   5
  -1  -1  -3 0.04574 1.77241   3
  -1  -1  -3 -1.8438 1.60114   1
  -1  -1  -3 -1.5949 1.62789   1
   1   1   3 -0.7104 1.99226   2
   1   1   3 0.25587 2.34947   5
   1   1   3 -0.2052 0.65015   1
   1   1   3 1.08885 1.67816   3
   1   1   3 2.35093 1.71214   3
   1   1   3 2.18190 1.62608   1
   1   1   3 0.50329 1.21635   2
  -2  -1  -3 17.1605 2.64656   1
  -2  -1  -3 16.9362 2.39555   1
   2   1   3 18.7002 4.30608   6
   2   1   3 10.8361 2.30666   7
   2   1   3 17.8907 2.78708   2
   2   1   3 15.1823 2.52042   3
   2   1   3 16.2688 2.95471   3
   2   1   3 19.7070 3.81898   5
   2   1   3 17.2375 2.22276   1
   2   1   3 19.5310 3.51027   2
   2   1   3 19.9934 2.76180   1
  -3  -1  -3 96.7659 6.59599   1
   3   1   3 101.990 11.3540   6
   3   1   3 109.701 7.96084   3
   3   1   3 104.608 7.41680   2
   3   1   3 106.947 10.3897   5
   3   1   3 98.2004 6.64729   1
   3   1   3 106.541 7.38682   2
   3   1   3 103.183 7.89094   3
   3   1   3 82.6111 9.14863   7
   3   1   3 113.575 9.01723   4
   3   1   3 102.988 6.64082   1
   4   1   3 418.829 30.8843   5
   4   1   3 390.007 28.0839   4
   4   1   3 352.652 30.2091   7
   4   1   3 382.664 31.8734   6
   5   1   3 59.9137 11.7029   6
   5   1   3 72.4345 10.9509   5
   5   1   3 62.5853 9.65556   7
   6   1   3 217.246 19.1628  17
   6   1   3 253.188 20.1455  16
   6   1   3 257.149 19.8384  13
   6   1   3 243.373 25.5568   6
   6   1   3 217.055 19.0226  18
   6   1   3 254.677 20.4064  15
   6   1   3 249.931 19.7428  14
   6   1   3 243.444 19.2310  12
   7   1   3 189.385 15.5932  16
   7   1   3 135.308 23.2965   6
   7   1   3 193.653 16.4291  15
   7   1   3 178.392 15.6392  13
   7   1   3 159.828 15.0698  17
   7   1   3 168.987 15.0400  14
   8   1   3 4.09036 3.90328  16
   8   1   3 -0.7208 3.15969  14
   8   1   3 -4.8822 3.11035  17
   8   1   3 -5.2784 3.60440  15
   9   1   3 -2.9154 2.49794  15
   9   1   3 -0.1700 2.63373  16
   9   1   3 2.67775 2.40997  17
   8  -2  -3 -3.2861 2.30745  18
   8  -2  -3 -0.1480 2.63549  16
   8  -2  -3 -1.1863 3.98712  17
   7  -2  -3 19.1036 4.37139  17
   7  -2  -3 8.11647 3.76981  18
   7  -2  -3 15.3034 3.94780  16
   6  -2  -3 135.357 12.8539  18
   6  -2  -3 129.651 13.3410  17
   6  -2  -3 138.464 9.32165  10
   6  -2  -3 130.773 13.2550  16
   6  -2  -3 106.370 21.1942   7
   5  -2  -3 165.257 11.4304  10
   5  -2  -3 188.490 13.8062   2
   5  -2  -3 154.719 14.8698  17
   5  -2  -3 161.613 22.8213   7
   5  -2  -3 157.103 14.1793   3
   5  -2  -3 195.225 14.9821  15
   5  -2  -3 163.490 14.8330  18
   5  -2  -3 159.558 11.0352   9
   5  -2  -3 172.060 14.5708  16
   4  -2  -3 901.285 72.1366  17
   4  -2  -3 967.328 72.7981  18
   4  -2  -3 973.816 62.0028   9
   4  -2  -3 966.549 60.4112  10
   4  -2  -3 1059.04 68.7249   2
   4  -2  -3 911.923 72.4937  16
   4  -2  -3 1004.07 76.3099   7
   4  -2  -3 1000.77 73.7406  15
   3  -2  -3 6.54674 2.91400   4
   3  -2  -3 11.3719 4.29218   2
   3  -2  -3 22.0554 6.68624   7
   3  -2  -3 18.7266 4.18838   3
   2  -2  -3 3.08388 2.10046   3
   2  -2  -3 5.42184 3.03818   1
   2  -2  -3 8.53774 4.81404   7
   2  -2  -3 3.48824 2.10209   1
   2  -2  -3 6.44743 3.99684   2
  -2   2   3 8.84720 3.01753   1
  -2   2   3 0.28212 1.95078   1
   1  -2  -3 223.237 17.6504   7
   1  -2  -3 209.048 17.3157   3
   1  -2  -3 186.672 14.5768   1
   1  -2  -3 200.048 14.7380   1
   1  -2  -3 218.347 16.8035   2
  -1   2   3 210.936 14.7727   1
  -1   2   3 193.104 16.4961   2
  -1   2   3 207.212 14.9189   1
  -1   2   3 185.788 17.2654   3
   0  -2  -3 11.0453 3.45431   2
   0  -2  -3 8.84986 2.90976   7
   0  -2  -3 13.5003 3.44904   3
   0  -2  -3 13.1846 2.69150   1
   0  -2  -3 13.4971 3.16016   1
   0   2   3 11.9098 3.22391   3
   0   2   3 9.03415 2.79510   2
   0   2   3 10.0440 2.40304   1
   0   2   3 10.9047 3.02523   1
   0   2   3 12.4338 2.72386   5
  -1  -2  -3 62.6851 7.29757   3
  -1  -2  -3 88.2209 6.71324   1
  -1  -2  -3 74.7506 6.23045   1
  -1  -2  -3 66.8091 7.06457   2
   1   2   3 78.4553 7.07618   2
   1   2   3 71.7163 6.42579   1
   1   2   3 77.2211 7.13924   5
   1   2   3 85.2652 7.56139   3
   1   2   3 67.7913 6.90842   3
   1   2   3 80.1066 6.20396   1
  -2  -2  -3 97.3471 7.50318   1
  -2  -2  -3 95.7650 7.29470   1
   2   2   3 96.8223 7.37193   1
   2   2   3 92.6633 8.43906   3
   2   2   3 94.5291 8.19691   2
   2   2   3 89.8923 9.08264   6
   2   2   3 91.4638 8.26519   2
   2   2   3 90.8126 8.35192   3
   2   2   3 99.6962 7.32374   1
   2   2   3 104.910 9.93091   5
   2   2   3 111.149 9.12287   4
  -3  -2  -3 2.54987 1.09740   1
  -3  -2  -3 4.94261 1.15383   1
   3   2   3 5.78749 1.36408   3
   3   2   3 3.53528 1.25456   1
   3   2   3 4.62383 2.24746   7
   3   2   3 12.0749 3.42328   4
   3   2   3 5.49889 1.65384   2
   3   2   3 4.93904 1.47359   2
   3   2   3 4.84913 1.44292   3
   3   2   3 2.35797 3.41697   6
   3   2   3 4.95257 1.18944   1
   3   2   3 5.33621 3.80707   5
   4   2   3 398.616 32.1188   6
   4   2   3 383.398 31.0600   7
   4   2   3 405.192 31.9446   5
   4   2   3 418.296 29.8064   4
   5   2   3 0.54417 3.53628   4
   5   2   3 3.52455 4.11010   7
   5   2   3 -0.2301 3.12683   5
   5   2   3 2.06504 4.85276   6
   6   2   3 8.67731 5.32303   6
   6   2   3 7.19139 3.23605  16
   6   2   3 6.69743 2.33793  17
   6   2   3 13.1619 3.74625  14
   6   2   3 9.62809 7.57711   5
   6   2   3 10.2086 3.38180  12
   6   2   3 10.5236 2.55748  18
   6   2   3 6.15820 3.51161  13
   6   2   3 14.0963 3.93593  15
   6   2   3 12.0473 3.03632  11
   7   2   3 364.244 28.9193  12
   7   2   3 373.549 29.3543  16
   7   2   3 368.473 29.0066  18
   7   2   3 369.939 29.0106  17
   7   2   3 387.883 30.3218  15
   7   2   3 372.553 29.7990  13
   7   2   3 339.441 26.9697  11
   7   2   3 398.073 29.3038  14
   8   2   3 258.069 19.8446  14
   8   2   3 229.013 20.0052  13
   8   2   3 266.268 20.7003  16
   8   2   3 240.709 19.5810  17
   8   2   3 209.686 19.6333  18
   8   2   3 263.069 21.1103  15
   9   2   3 20.0063 3.83878  15
   9   2   3 15.3144 3.30573  17
   9   2   3 19.4017 4.37937  16
   8  -3  -3 -1.0461 2.37991  17
   7  -3  -3 -1.8092 2.67381  16
   7  -3  -3 -1.3434 4.23863  17
   7  -3  -3 0.13372 2.74668  18
   6  -3  -3 39.2560 7.98395  17
   6  -3  -3 42.4673 7.83544  16
   6  -3  -3 47.0584 4.45163  10
   6  -3  -3 46.9318 6.79510  18
   5  -3  -3 88.8146 6.61755   9
   5  -3  -3 80.8706 9.44843  18
   5  -3  -3 71.6466 10.2549   3
   5  -3  -3 82.7744 9.23975  17
   5  -3  -3 99.7877 9.30684  16
   5  -3  -3 93.4235 7.12084  10
   5  -3  -3 97.8733 17.9628   7
   5  -3  -3 114.444 10.2148  15
   5  -3  -3 69.2451 11.5781   2
   4  -3  -3 61.1359 5.44926   9
   4  -3  -3 75.9061 7.83071  15
   4  -3  -3 70.7181 9.70649   2
   4  -3  -3 48.2369 6.57647  16
   4  -3  -3 71.6462 8.25360  18
   4  -3  -3 62.6894 5.23278  10
   4  -3  -3 62.5895 7.77172  17
   4  -3  -3 60.8666 8.93253   3
   4  -3  -3 76.3693 14.7801   7
   3  -3  -3 45.5980 8.58868   7
   3  -3  -3 38.7972 6.87715   3
   3  -3  -3 24.9516 6.51453   2
   2  -3  -3 86.5735 10.6282   3
   2  -3  -3 84.9730 8.90027   1
   2  -3  -3 113.039 11.9586   7
   2  -3  -3 101.470 10.3602   2
   1  -3  -3 25.1201 5.93891   2
   1  -3  -3 40.9566 7.30511   7
   1  -3  -3 23.0835 4.68325   1
   1  -3  -3 32.7200 4.96432   1
   1  -3  -3 26.4645 5.23743   3
  -1   3   3 23.4701 4.48161   1
  -1   3   3 16.1965 4.32779   1
  -1   3   3 17.5212 5.13264   2
  -1   3   3 24.1259 5.62302   3
   0  -3  -3 67.8031 8.61574   2
   0  -3  -3 63.7431 7.90172   3
   0  -3  -3 65.5946 7.19214   1
   0  -3  -3 63.3792 7.05586   1
   0   3   3 68.8528 7.04336   1
   0   3   3 64.9807 8.24879   3
   0   3   3 57.5316 6.72220   1
   0   3   3 60.8936 7.98501   2
  -1  -3  -3 46.1639 6.72389   2
  -1  -3  -3 65.3192 7.45201   3
  -1  -3  -3 62.9576 6.04940   1
  -1  -3  -3 63.0918 6.47386   1
   1   3   3 64.1523 7.29836   5
   1   3   3 65.2964 6.33674   1
   1   3   3 64.3440 6.92771   2
   1   3   3 61.5356 5.85428   1
   1   3   3 61.2500 7.48619   3
  -2  -3  -3 10.3262 2.69814   1
  -2  -3  -3 6.40948 2.41619   1
   2   3   3 10.0654 3.27635   2
   2   3   3 12.4243 3.70513   4
   2   3   3 6.84792 2.82288   3
   2   3   3 6.18863 2.90849   5
   2   3   3 9.69121 2.48581   1
   2   3   3 5.15265 3.09964   2
   2   3   3 9.03214 2.66319   3
   2   3   3 7.48622 2.35351   1
   2   3   3 5.00607 2.77685   6
  -3  -3  -3 223.165 15.7434   1
  -3  -3  -3 240.962 15.8645   1
   3   3   3 236.227 15.8949   1
   3   3   3 254.953 17.6151   2
   3   3   3 246.890 18.6500   4
   3   3   3 234.389 17.7067   2
   3   3   3 222.352 15.6965   1
   3   3   3 203.862 18.6542   6
   3   3   3 264.229 18.9647   3
   3   3   3 223.816 18.5896   3
   3   3   3 255.991 20.0191   5
   4   3   3 179.503 16.6060   5
   4   3   3 148.905 14.9538   6
   4   3   3 179.817 15.0471   4
   5   3   3 18.2901 5.89369   6
   5   3   3 24.4001 5.34015   4
   5   3   3 20.0280 7.41004   5
   6   3   3 5.92134 2.27278  11
   6   3   3 2.14154 3.19366  12
   6   3   3 0.66505 5.11179   4
   6   3   3 4.39287 2.67361  13
   6   3   3 0.99668 2.58760  16
   6   3   3 2.55790 2.92677  14
   6   3   3 2.69537 3.00754  15
   6   3   3 4.63475 2.63863  17
   6   3   3 -0.6609 5.15687   5
   6   3   3 2.51506 2.49191  18
   7   3   3 17.9502 4.63945  12
   7   3   3 24.2493 4.09045  11
   7   3   3 19.6333 4.36786  14
   7   3   3 14.1459 3.87168  16
   7   3   3 8.79407 3.18892  15
   7   3   3 26.5600 5.13817  13
   7   3   3 27.1354 4.74855  18
   7   3   3 20.9500 4.15884  17
   8   3   3 15.6365 4.67912  13
   8   3   3 16.9403 3.52446  17
   8   3   3 18.8537 3.92429  15
   8   3   3 16.2623 4.33695  12
   8   3   3 20.1797 3.75248  11
   8   3   3 19.6685 3.75324  16
   8   3   3 20.6323 3.83893  14
   8   3   3 22.3870 4.22905  18
   9   3   3 2.05232 2.36121  16
   9   3   3 6.08031 3.31823  17
   9   3   3 3.52852 2.31330  15
   7  -4  -3 76.3540 8.76857  16
   7  -4  -3 92.1898 9.90392  17
   6  -4  -3 35.4983 7.61176  18
   6  -4  -3 60.8242 8.09316  16
   6  -4  -3 63.6297 7.78146  17
   6  -4  -3 61.8254 5.23359  10
   5  -4  -3 0.68913 1.77047   9
   5  -4  -3 0.94618 2.17152  10
   5  -4  -3 3.16471 9.57046   7
   5  -4  -3 0.75566 3.29181  17
   5  -4  -3 2.17709 3.78786  16
   5  -4  -3 0.12539 2.95764  18
   4  -4  -3 -0.5034 2.00688  10
   4  -4  -3 1.13563 2.13402   9
   4  -4  -3 1.76883 2.81551  18
   4  -4  -3 -3.1090 9.91685   7
   4  -4  -3 2.58174 3.78014  17
   4  -4  -3 4.44771 5.93578   2
   4  -4  -3 2.29869 3.23725  16
   4  -4  -3 0.64253 5.98132   3
   3  -4  -3 3.96147 1.59134   8
   3  -4  -3 2.88215 1.67050   9
   3  -4  -3 2.07857 2.01156  10
   3  -4  -3 -3.0541 3.14089  17
   3  -4  -3 6.92360 4.89891   3
   3  -4  -3 3.32165 3.09567  15
   3  -4  -3 -2.6987 6.17804   7
   3  -4  -3 6.40912 5.70103   2
   2  -4  -3 118.471 14.5778   7
   2  -4  -3 93.9166 12.7660   2
   2  -4  -3 104.592 12.3903   3
   1  -4  -3 1230.56 89.4686   1
   1  -4  -3 1490.19 107.726   3
   1  -4  -3 1477.74 99.7181   2
   1  -4  -3 1618.98 105.855   7
  -1   4   3 1293.06 89.9672   1
   0  -4  -3 221.331 17.3442   1
   0  -4  -3 209.830 17.3282   1
   0  -4  -3 241.005 20.7332   3
   0  -4  -3 240.549 19.8109   2
   0   4   3 241.600 19.7284   2
   0   4   3 271.207 21.1308   3
   0   4   3 226.916 17.5867   1
   0   4   3 234.753 17.4353   1
  -1  -4  -3 13.5438 4.81635   3
  -1  -4  -3 13.3522 5.40863   2
  -1  -4  -3 20.5366 4.51146   1
  -1  -4  -3 14.5146 4.06342   1
   1   4   3 24.5733 4.84079   5
   1   4   3 11.5549 3.58002   1
   1   4   3 22.4118 5.15835   2
   1   4   3 24.4487 4.23096   1
   1   4   3 18.6328 4.73396   3
  -2  -4  -3 1.13780 2.72080   1
  -2  -4  -3 1.31860 2.56839   1
   2   4   3 0.69069 2.41463   1
   2   4   3 -0.5153 2.17418   1
   2   4   3 2.22201 3.29064   2
   2   4   3 2.41847 2.50360   5
   2   4   3 3.85524 2.93159   3
   2   4   3 1.78604 3.16937   4
   2   4   3 1.82407 1.80064   6
  -3  -4  -3 39.5772 5.67006   1
   3   4   3 48.9146 5.51783   1
   3   4   3 61.8798 6.81963   3
   3   4   3 48.4339 7.13865   4
   3   4   3 37.0504 6.84528   2
   3   4   3 47.6586 6.04528   3
   3   4   3 57.7550 8.48484   5
   3   4   3 55.7963 6.26221   2
   3   4   3 52.5915 5.48470   1
   4   4   3 28.5352 3.83112   2
   4   4   3 34.2291 4.03421   3
   4   4   3 24.4098 4.17003   2
   4   4   3 24.9068 3.67295   3
   4   4   3 32.5806 5.53630   4
   4   4   3 22.7706 6.61356   5
   5   4   3 8.36744 2.31080  11
   5   4   3 11.2744 3.42420  12
   5   4   3 6.37983 4.86998   4
   5   4   3 15.8264 6.82151   5
   5   4   3 8.19995 1.33926  10
   5   4   3 8.66096 2.62766  18
   5   4   3 14.5957 3.70673  13
   6   4   3 7.30966 2.27190  11
   6   4   3 5.10577 2.39749  14
   6   4   3 -7.8999 4.93732   4
   6   4   3 8.59830 8.24686   5
   6   4   3 3.91417 2.67699  18
   6   4   3 6.10561 3.73092  13
   6   4   3 7.84527 2.79885  12
   6   4   3 6.90013 2.74654  17
   7   4   3 7.81793 3.25977  12
   7   4   3 12.7808 3.11581  18
   7   4   3 16.1156 4.11539  14
   7   4   3 16.2159 3.60245  17
   7   4   3 13.1898 3.68146  11
   7   4   3 13.2551 3.99162  13
   8   4   3 1.33172 2.16453  17
   8   4   3 1.32700 2.83478  11
   8   4   3 1.96256 2.17963  18
   8   4   3 -0.2663 2.72842  14
   8   4   3 0.15765 2.80760  13
   8   4   3 0.71139 3.54925  12
   9   4   3 3.79729 2.03321  18
   9   4   3 3.20954 3.54121  12
   9   4   3 -0.5015 2.54269  11
   7  -5  -3 4.91740 2.86902  17
   6  -5  -3 7.52046 1.71699  10
   6  -5  -3 2.18110 3.33290  17
   5  -5  -3 84.2765 9.63710  17
   5  -5  -3 85.4145 6.91302  10
   5  -5  -3 88.5626 6.55319   9
   5  -5  -3 70.7722 8.83457  18
   4  -5  -3 13.5995 3.85933  17
   4  -5  -3 9.99746 4.75598  18
   4  -5  -3 5.84866 2.82989  10
   4  -5  -3 9.01087 8.88896   7
   4  -5  -3 0.76101 8.33600   2
   4  -5  -3 12.7090 3.07736   9
   3  -5  -3 10.8390 7.41897   7
   3  -5  -3 17.8326 2.46979   8
   3  -5  -3 13.5502 3.09174  10
   3  -5  -3 16.7471 4.75074  17
   3  -5  -3 14.0359 6.70668   3
   3  -5  -3 15.5119 8.37247   2
   3  -5  -3 10.6686 3.12873   9
   2  -5  -3 8.45757 6.97303   2
   2  -5  -3 18.7465 6.51631   7
   2  -5  -3 4.98633 5.60873   3
   2  -5  -3 8.23363 2.34762   9
   2  -5  -3 12.5905 2.51809   8
   1  -5  -3 65.2721 9.20885   3
   1  -5  -3 62.9384 11.3858   7
   1  -5  -3 61.8574 11.2695   2
   0  -5  -3 1.93737 5.22032   2
   0  -5  -3 4.04252 4.16329   1
   0  -5  -3 5.65907 4.66789   3
   0   5   3 2.31421 4.12913   1
   0   5   3 1.89867 4.48460   3
   0   5   3 5.46499 5.23303   2
  -1  -5  -3 101.576 10.9095   1
   1   5   3 106.958 11.5023   2
   1   5   3 116.966 10.4232   1
   1   5   3 115.405 12.0916   3
   2   5   3 1088.18 75.0580   2
   2   5   3 1025.74 80.8829   3
   2   5   3 1173.64 76.9162   5
   2   5   3 963.827 67.4227   1
   3   5   3 10.3699 4.23043   4
   3   5   3 7.10329 3.64830   3
   3   5   3 -1.0387 4.06996   5
   3   5   3 7.61036 3.64556   2
   4   5   3 44.1357 6.91391   4
   4   5   3 56.0369 10.0366   5
   4   5   3 47.0814 6.01367   2
   4   5   3 45.4636 6.51925   3
   5   5   3 74.5176 6.59820  11
   5   5   3 68.0369 5.05242  10
   5   5   3 68.8723 7.25702  12
   5   5   3 52.2574 7.32791  14
   5   5   3 98.6066 14.2488   5
   5   5   3 72.0830 10.4888   4
   5   5   3 64.3858 8.11584  13
   5   5   3 81.8786 7.25141  18
   6   5   3 175.424 17.8127   4
   6   5   3 202.082 14.9755  18
   6   5   3 155.619 14.7754  14
   6   5   3 164.103 10.8921  10
   6   5   3 184.744 15.4212  12
   6   5   3 177.968 14.5265  17
   6   5   3 169.711 15.8123  13
   6   5   3 180.736 13.9167  11
   6   5   3 146.730 22.1285   5
   7   5   3 40.7453 6.31424  13
   7   5   3 40.7886 5.62737  14
   7   5   3 35.5904 5.17653  11
   7   5   3 47.6259 6.16119  18
   7   5   3 44.1116 6.17385  12
   7   5   3 39.7199 5.12133  17
   8   5   3 2.34391 3.16935  13
   8   5   3 2.58140 3.92172  12
   8   5   3 2.23482 2.15157  11
   8   5   3 3.63056 3.02758  18
   9   5   3 2.18508 2.13652  11
   9   5   3 1.30415 2.73562  12
   6  -6  -3 7.96706 3.43902  17
   6  -6  -3 6.70298 1.48521  10
   5  -6  -3 30.3955 6.26169  17
   5  -6  -3 27.4970 3.30247   9
   5  -6  -3 29.5563 3.86014  10
   4  -6  -3 48.5670 7.78252  18
   4  -6  -3 49.4754 6.11312  10
   4  -6  -3 51.3857 6.18348   9
   4  -6  -3 57.1495 7.48995  17
   3  -6  -3 74.6761 6.35161   8
   3  -6  -3 83.2818 8.84569  17
   3  -6  -3 91.4539 15.8812   2
   3  -6  -3 81.3867 7.50443  10
   3  -6  -3 36.9746 11.7385   3
   3  -6  -3 92.2731 7.92168   9
   3  -6  -3 63.7819 14.7257   7
   2  -6  -3 8.57097 6.73992   3
   2  -6  -3 -5.4809 8.99198   2
   2  -6  -3 1.48180 2.25441   8
   2  -6  -3 0.42420 2.93211   9
   2  -6  -3 -9.4109 8.53832   7
   1  -6  -3 -1.4618 4.91775   7
   1  -6  -3 -7.4539 7.61898   2
   1  -6  -3 0.42230 1.67846   8
   1  -6  -3 -2.0973 4.35345   3
   1   6   3 22.6483 6.98189   2
   1   6   3 25.1897 7.12000   3
   2   6   3 360.929 32.2837   3
   2   6   3 388.377 30.6773   2
   2   6   3 383.636 31.0068   5
   3   6   3 81.9921 10.4485   3
   3   6   3 66.8761 10.4310   5
   3   6   3 95.4112 10.6527   2
   3   6   3 80.0166 9.99186   4
   4   6   3 190.428 15.6480  11
   4   6   3 246.471 19.9079   3
   4   6   3 201.920 16.9618  12
   4   6   3 199.081 14.1741   9
   4   6   3 222.434 18.1669   2
   4   6   3 220.355 13.9988  10
   4   6   3 246.544 19.8998   4
   4   6   3 222.513 22.0465   5
   4   6   3 199.062 17.7575  13
   5   6   3 155.513 13.4238  13
   5   6   3 146.176 19.8908   5
   5   6   3 126.438 10.9980  11
   5   6   3 159.952 11.9644  18
   5   6   3 135.905 12.5955  12
   5   6   3 130.052 8.97533   9
   5   6   3 133.893 10.7512   2
   5   6   3 134.587 9.41126  10
   5   6   3 130.669 15.4655   4
   6   6   3 26.7347 2.73089  10
   6   6   3 27.9651 4.37755  18
   6   6   3 27.4192 5.12251  11
   6   6   3 38.8272 6.00043  13
   6   6   3 25.3101 13.1116   5
   6   6   3 33.5664 5.66168  12
   6   6   3 27.8867 7.85892   4
   7   6   3 -2.0791 2.77268  18
   7   6   3 -0.8182 2.83926  12
   7   6   3 7.42073 4.83609  13
   7   6   3 5.20873 2.49766  11
   8   6   3 34.5552 5.76609  12
   8   6   3 36.1102 5.63957  11
   8   6   3 31.3762 6.18139  13
   9   6   3 1.91817 3.20899  13
   9   6   3 1.53461 3.91806  12
   9   6   3 1.13795 2.05947  11
   5  -7  -3 3.26690 3.02934  17
   5  -7  -3 2.70582 2.26232  10
   4  -7  -3 13.6020 4.37210  17
   4  -7  -3 16.0916 3.64060  10
   4  -7  -3 22.5792 3.64721   9
   3  -7  -3 1.96545 1.90977   8
   3  -7  -3 0.75902 3.08336   9
   3  -7  -3 5.09201 3.53857  17
   3  -7  -3 1.01238 2.97022  10
   2  -7  -3 2.54926 8.55177   7
   2  -7  -3 21.3729 10.3455   2
   2  -7  -3 7.07620 2.11794   8
   2  -7  -3 10.8060 2.90422   9
   2  -7  -3 7.29537 10.2152   3
   1  -7  -3 1.26182 2.61889   8
   1  -7  -3 10.3833 9.27793   7
   1   7   3 30.6063 9.38028   3
   1   7   3 36.9474 9.88492   2
   1   7   3 50.7137 4.41476   8
   1   7   3 64.0403 9.68043   5
   2   7   3 112.682 14.1395   5
   2   7   3 85.4303 13.1235   3
   2   7   3 89.4252 6.75533   8
   2   7   3 82.4072 7.51807   9
   2   7   3 86.3940 13.4951   2
   3   7   3 -4.3348 5.05833   2
   3   7   3 -0.7267 4.36217   3
   3   7   3 0.03552 1.83293   9
   3   7   3 -6.4227 5.64885   5
   3   7   3 -0.4910 1.26700   8
   3   7   3 2.76042 1.83272  10
   4   7   3 83.0150 6.86682  10
   4   7   3 84.5844 15.1699   5
   4   7   3 95.6537 10.0521  13
   4   7   3 87.3098 7.81787  11
   4   7   3 89.7217 6.98655   9
   4   7   3 95.0260 11.8683   2
   4   7   3 80.8574 8.80925  12
   5   7   3 932.144 72.9471   5
   5   7   3 935.788 63.6881  11
   5   7   3 895.192 57.7924   9
   5   7   3 889.597 56.5604  10
   5   7   3 918.352 69.3116  13
   5   7   3 876.846 67.8224  12
   5   7   3 878.647 66.5187   4
   6   7   3 0.47384 2.65158  11
   6   7   3 -0.8046 14.3578   5
   6   7   3 8.66426 3.88309  12
   6   7   3 5.19379 1.45709  10
   6   7   3 2.76637 4.84137  13
   7   7   3 -0.2054 3.85033  12
   7   7   3 -3.3023 1.75560  11
   7   7   3 1.22681 3.47301  13
   8   7   3 56.8338 6.96068  12
   8   7   3 45.3124 7.62925  13
   8   7   3 54.5001 5.80338  11
   9   7   3 33.4154 5.17339  13
   9   7   3 35.3361 5.11528  12
   5  -8  -3 0.10101 2.45446  17
   5  -8  -3 2.92401 1.39098  10
   4  -8  -3 6.88483 1.95512   9
   4  -8  -3 13.9941 3.94544  17
   4  -8  -3 10.3780 2.57977  10
   3  -8  -3 2.55956 3.19119  10
   3  -8  -3 3.34919 1.53950   8
   3  -8  -3 9.16548 4.98479  17
   3  -8  -3 7.71697 3.50977   9
   2  -8  -3 2.31669 2.30064   9
   2  -8  -3 4.65425 3.69767  17
   2  -8  -3 -3.1661 2.38587   8
   1  -8  -3 -7.4614 8.32679   7
   1  -8  -3 0.06586 2.73944   8
   0  -8  -3 46.7900 14.6106   7
   0   8   3 70.5987 13.0111   5
   1   8   3 3.39127 7.67898   5
   1   8   3 3.89388 2.17792   8
   2   8   3 1.75319 8.62606   2
   2   8   3 14.7304 7.97303   5
   2   8   3 9.85430 2.41068   9
   2   8   3 7.44700 2.25968   8
   2   8   3 2.03297 4.61569   3
   3   8   3 12.3398 8.13191   2
   3   8   3 16.0996 7.47774   5
   3   8   3 16.0796 2.86228  10
   3   8   3 25.5053 4.34300   9
   3   8   3 32.2128 3.28473   8
   3   8   3 9.00809 7.03843   3
   4   8   3 24.5564 5.35248  13
   4   8   3 15.4898 4.10319  12
   4   8   3 12.4476 8.29711   5
   4   8   3 21.8033 7.74008   2
   4   8   3 11.3003 6.37831   3
   4   8   3 17.5788 3.12832  10
   4   8   3 17.5070 2.95345   9
   5   8   3 3.08791 3.66016  12
   5   8   3 5.98531 1.73643   9
   5   8   3 3.82129 1.87959  10
   5   8   3 0.37199 1.66168  11
   5   8   3 -4.9531 7.01942   2
   5   8   3 12.2724 4.12800  13
   5   8   3 12.2184 9.86799   5
   6   8   3 52.5802 6.92130  12
   6   8   3 53.6354 4.71471  10
   6   8   3 59.3039 6.38269  11
   6   8   3 43.9804 8.46224  13
   7   8   3 150.047 12.3022  11
   7   8   3 149.648 13.6091  12
   7   8   3 156.346 15.0510  13
   8   8   3 71.0785 7.56501  12
   8   8   3 53.4500 8.36851  13
   8   8   3 70.0054 6.50289  11
   9   8   3 49.7865 5.72276  12
   4  -9  -3 108.527 9.66992  17
   4  -9  -3 105.637 8.24922  10
   3  -9  -3 -1.4295 3.04757  10
   3  -9  -3 1.11301 2.89560   9
   3  -9  -3 0.69231 2.88833  17
   2  -9  -3 5.17126 2.39819   8
   2  -9  -3 -1.7312 4.41036  17
   2  -9  -3 4.70848 3.41065   9
   1  -9  -3 27.4791 4.44339   8
   0  -9  -3 42.5553 5.24180   8
   0   9   3 44.9535 5.47475   8
   1   9   3 16.3394 11.4405   5
   1   9   3 6.23105 1.94130   8
   2   9   3 22.4493 11.8332   5
   2   9   3 22.8968 3.98096   9
   2   9   3 25.4151 4.01392   8
   3   9   3 202.289 26.9135   5
   3   9   3 260.239 19.3590  13
   3   9   3 207.743 14.1788   8
   3   9   3 208.352 15.7273   9
   3   9   3 206.747 15.3662  10
   4   9   3 12.4307 4.70620  13
   4   9   3 10.5480 2.43408  10
   4   9   3 1.21376 12.0208   5
   4   9   3 8.46585 2.56825   9
   5   9   3 7.08806 4.04388  13
   5   9   3 3.32835 1.78015   9
   5   9   3 3.73638 1.73717  10
   5   9   3 3.62164 2.49693  12
   6   9   3 7.13869 2.02352  10
   6   9   3 5.52340 2.97830  12
   6   9   3 5.82279 2.20461  11
   6   9   3 14.3552 4.44231  13
   7   9   3 0.79869 2.55551  12
   7   9   3 1.52116 2.52506  11
   7   9   3 1.07381 5.17722  13
   8   9   3 35.4191 6.12314  13
   8   9   3 48.9615 5.63057  12
   3 -10  -3 2.24609 2.29860  17
   3 -10  -3 -1.1181 1.82974   9
   2 -10  -3 73.9685 8.58685  17
   2 -10  -3 66.3808 7.40097   9
   1 -10  -3 7.35303 4.71157  17
   1 -10  -3 3.97051 2.77819   8
   0 -10  -3 6.12993 2.47077   8
   0  10   3 1.56326 2.44025   8
   1  10   3 22.0136 3.56035   8
   2  10   3 7.53601 3.21895   9
   2  10   3 4.85557 2.19781   8
   3  10   3 17.3385 3.73017   9
   3  10   3 21.1677 4.31433  13
   3  10   3 12.6820 2.96829  10
   3  10   3 17.2040 2.83010   8
   4  10   3 46.7001 5.60916  10
   4  10   3 49.8767 6.90123  13
   4  10   3 49.0948 5.53199   9
   5  10   3 1.91396 1.62807  10
   5  10   3 1.95742 3.13794  13
   6  10   3 118.106 8.07874  10
   6  10   3 113.390 12.2887  13
   6  10   3 89.1728 10.2645  12
   7  10   3 5.94795 3.70222  13
   7  10   3 -0.2079 2.28936  12
   8  10   3 35.3949 4.25827  12
   1 -11  -3 0.13769 3.39138   9
   1 -11  -3 -1.1045 1.59492   8
   1 -11  -3 3.74264 3.72048  17
  -1  11   3 -2.4780 1.99738   8
   0 -11  -3 8.09220 2.31899   8
   0  11   3 5.91401 1.86356   8
  -1 -11  -3 13.4237 3.01133   8
   1  11   3 16.6547 2.84006   8
   2  11   3 2.92987 2.58526  13
   2  11   3 1.14904 3.02975   9
   2  11   3 3.42706 1.86918   8
   3  11   3 4.17163 3.51882  13
   3  11   3 -1.2784 2.60570   9
   4  11   3 14.9552 3.26089  10
   4  11   3 11.6419 2.83107   9
   4  11   3 17.2238 4.55894  13
   5  11   3 -0.5732 3.68633  13
   5  11   3 -0.2658 1.40698  10
   6  11   3 10.8207 3.47664  13
   6  11   3 6.56898 1.88247  10
   1  12   3 3.59892 1.84552  13
   2  12   3 14.8902 1.58929   8
   2  12   3 11.3127 2.61809  13
   3  12   3 14.9498 3.74865  13
   4  12   3 8.93078 2.89682  13
   4  12   3 7.98862 2.04029  10
   5  12   3 21.6920 3.86891  13
   5  11  -4 6.84888 2.48853  12
   5  11  -4 17.4685 2.85632  10
   4  11  -4 44.4986 3.95198   9
   4  11  -4 37.7378 6.02189  13
   4  11  -4 47.1383 4.86320  10
   3  11  -4 30.8087 5.59314  13
   3  11  -4 34.4673 4.53927   9
   2  11  -4 5.49936 2.69290   9
   2  11  -4 4.40057 1.35627   8
   2  11  -4 6.39980 2.77233  13
   1  11  -4 39.1218 3.72321   8
  -1 -11   4 30.7052 4.11095   8
   0  11  -4 18.7865 2.52642   8
   0 -11   4 17.8715 2.72582   8
   6  10  -4 1.53432 1.08158  10
   6  10  -4 1.81836 2.50968  12
   5  10  -4 22.8800 4.46123  12
   5  10  -4 28.4731 3.88701  10
   4  10  -4 78.5097 6.71161   9
   4  10  -4 82.5497 7.11787  10
   4  10  -4 69.2494 8.84175  13
   4  10  -4 78.5743 7.89999  12
   3  10  -4 131.565 11.2834  13
   3  10  -4 101.377 8.83881   9
   3  10  -4 99.2949 10.1129  12
   3  10  -4 102.496 6.97279   8
   2  10  -4 37.5588 4.69632   9
   2  10  -4 41.6021 4.33937   8
   1  10  -4 26.8200 4.08998   8
  -1 -10   4 21.1770 4.63387   8
   0  10  -4 2.52370 1.75159   8
   0 -10   4 2.07720 2.09655   8
  -1  10  -4 -0.1441 2.33437   8
   1 -10   4 4.74160 2.07729   8
   1 -10   4 1.96819 3.64269   9
   2 -10   4 23.9147 3.68228   9
   2 -10   4 27.3369 4.71674  17
   7   9  -4 13.7041 3.45239  12
   6   9  -4 -1.2831 3.79147  12
   6   9  -4 1.66747 1.16156  10
   5   9  -4 4.67182 2.85007  12
   5   9  -4 3.14335 1.47300   9
   5   9  -4 -0.2819 1.51867  10
   4   9  -4 49.0191 7.92325  13
   4   9  -4 55.8209 5.93123  10
   4   9  -4 49.0116 7.54281  12
   4   9  -4 52.9621 4.95603   9
   3   9  -4 143.900 10.7888   9
   3   9  -4 127.636 9.11882   8
   3   9  -4 136.321 12.0263  12
   3   9  -4 127.923 10.1893  10
   2   9  -4 4.58397 3.18045  12
   2   9  -4 3.87363 2.23913   8
   2   9  -4 1.36433 2.70425   9
   1   9  -4 9.31575 2.20203   8
   0   9  -4 108.839 8.72685   8
   0  -9   4 97.9363 8.62057   8
   1  -9   4 8.09425 3.14280   8
   2  -9   4 8.62051 2.79299   9
   2  -9   4 8.13985 1.91094   8
   3  -9   4 -1.6545 2.86357  17
   3  -9   4 -0.8743 3.38455  10
   3  -9   4 0.01567 2.42119   9
   8   8  -4 10.6675 2.23092  11
   8   8  -4 6.03730 2.82745  12
   7   8  -4 8.73461 3.15482  11
   7   8  -4 7.57550 4.56102  12
   6   8  -4 117.114 11.4781  12
   6   8  -4 99.7048 9.83062  11
   6   8  -4 121.873 8.38768  10
   5   8  -4 27.4389 3.98425  10
   5   8  -4 17.4909 5.11730  12
   5   8  -4 27.7035 3.16340   9
   4   8  -4 79.1085 6.80016   9
   4   8  -4 79.3227 8.42692  12
   4   8  -4 84.9347 9.85723  13
   4   8  -4 70.6826 6.52086  10
   3   8  -4 -1.3577 2.17996   9
   3   8  -4 5.79142 11.8608   5
   3   8  -4 2.20528 2.22190  12
   3   8  -4 -2.6042 1.45373  10
   3   8  -4 0.17995 1.60685   8
   2   8  -4 40.5192 4.46326   8
   2   8  -4 38.6671 4.79072   9
   2   8  -4 40.6151 6.11530  12
   1   8  -4 91.6798 7.61348   8
   0  -8   4 94.4245 8.47914   8
   1  -8   4 1.29126 2.86057   8
   2  -8   4 0.12166 2.34371   8
   2  -8   4 2.93892 3.35886   9
   3  -8   4 14.7053 4.44985  17
   3  -8   4 10.2422 2.99090  10
   3  -8   4 12.3906 3.69813   9
   4  -8   4 8.63435 3.44726  17
   4  -8   4 5.92455 3.03392  10
   4  -8   4 6.40044 1.66753   9
   5  -8   4 10.9536 2.90659  17
   8   7  -4 -2.0312 2.97319  12
   8   7  -4 0.07423 2.87268  11
   7   7  -4 36.0748 6.60595  12
   7   7  -4 42.3367 5.15563  18
   7   7  -4 31.4574 4.82445  11
   6   7  -4 81.2552 8.69697  11
   6   7  -4 87.1511 6.63961  10
   6   7  -4 106.527 11.6164  12
   6   7  -4 92.6008 9.03550  18
   5   7  -4 166.363 15.3654  12
   5   7  -4 151.128 13.4934  11
   5   7  -4 169.685 11.9204   9
   5   7  -4 181.643 14.3782  18
   5   7  -4 189.061 12.2265  10
   5   7  -4 146.386 21.2338   4
   4   7  -4 134.365 10.3591   9
   4   7  -4 145.866 12.8265  12
   4   7  -4 122.380 17.9066   4
   4   7  -4 125.798 16.6138   2
   4   7  -4 145.400 10.2535  10
   4   7  -4 144.641 13.7891  13
   3   7  -4 -0.5820 3.00293  12
   3   7  -4 -1.2223 9.86753   5
   3   7  -4 -2.4694 6.37433   4
   3   7  -4 -8.3852 6.55023   2
   3   7  -4 0.61189 6.46779   3
   3   7  -4 2.04968 2.14798  10
   3   7  -4 -0.9846 1.32115   9
   3   7  -4 2.69489 1.49286   8
   2   7  -4 -5.2369 5.27574   2
   2   7  -4 -3.0907 4.46261   3
   2   7  -4 -2.5536 1.61811   8
   2   7  -4 -0.1328 1.63438   9
   1   7  -4 -1.7455 1.75771   8
   1  -7   4 174.756 13.1513   8
   2  -7   4 2.66702 10.9120   7
   2  -7   4 8.17381 3.66102  16
   2  -7   4 4.19193 2.88614   9
   2  -7   4 8.66452 2.78821   8
   3  -7   4 84.1774 7.98651  10
   3  -7   4 82.4637 7.91434   9
   3  -7   4 84.5068 10.6573  16
   3  -7   4 95.4420 6.63650   8
   4  -7   4 25.6014 3.59549   9
   4  -7   4 15.6557 4.20076  16
   4  -7   4 22.5665 5.12291  17
   4  -7   4 12.0709 3.04379  10
   5  -7   4 20.0644 4.31367  17
   5  -7   4 23.8286 3.96555  10
   5  -7   4 14.7114 3.54581  16
   8   6  -4 15.5050 3.30702  18
   8   6  -4 13.2393 3.12771  11
   8   6  -4 2.76646 4.45712  12
   7   6  -4 30.2401 4.95270  11
   7   6  -4 32.4050 6.05826  12
   7   6  -4 38.6541 5.08102  18
   6   6  -4 3.76134 2.33873  11
   6   6  -4 3.80829 3.18920  18
   6   6  -4 5.47760 3.53124  12
   6   6  -4 2.20833 1.41581  10
   5   6  -4 33.4976 10.1459   4
   5   6  -4 40.0654 7.37061  12
   5   6  -4 22.8644 7.13957   2
   5   6  -4 21.6654 3.94642  18
   5   6  -4 28.0942 3.25739   9
   5   6  -4 30.2754 3.68837  10
   5   6  -4 23.0883 4.14266  11
   4   6  -4 5.84401 5.99378   2
   4   6  -4 11.5437 2.98912  18
   4   6  -4 11.4331 2.08849   9
   4   6  -4 10.9963 3.14607  11
   4   6  -4 11.8575 5.95056   4
   4   6  -4 12.3962 5.89175   3
   4   6  -4 10.1989 3.89659  12
   4   6  -4 10.6448 2.47326  10
   3   6  -4 251.892 16.4393   8
   3   6  -4 272.597 23.5958   4
   3   6  -4 267.055 17.7027   9
   3   6  -4 277.104 24.6679   3
   3   6  -4 175.766 24.7566   5
   3   6  -4 271.373 21.0733  12
   3   6  -4 286.898 23.5732   2
   3   6  -4 246.417 17.1731  10
   2   6  -4 132.899 14.1796   2
   2   6  -4 116.623 8.40635   8
   2   6  -4 117.406 15.0459   3
   2   6  -4 120.319 12.5287   4
   2   6  -4 113.912 9.00424   9
   1   6  -4 7.36025 2.10636   8
   1   6  -4 0.34864 4.06857   3
   1   6  -4 -1.0281 5.99737   2
   1  -6   4 9.59225 8.04090   3
   1  -6   4 13.2706 3.32514   8
   2  -6   4 -5.1468 3.88343  16
   2  -6   4 -20.160 9.73818   2
   2  -6   4 0.73360 3.17286   9
   2  -6   4 0.67471 2.39339   8
   2  -6   4 2.73842 5.25195   3
   3  -6   4 299.274 21.2758   9
   3  -6   4 316.819 19.4062   8
   3  -6   4 308.174 20.6951  10
   3  -6   4 281.445 24.5033  16
   3  -6   4 223.138 31.2913   2
   3  -6   4 335.578 38.9812   7
   4  -6   4 -0.7495 2.50195   9
   4  -6   4 6.25850 4.69981  16
   4  -6   4 -2.9022 3.34186  17
   4  -6   4 4.65264 3.12241  10
   5  -6   4 5.70412 3.76977  17
   5  -6   4 2.69054 3.37475  16
   5  -6   4 9.86713 2.77889  10
   6  -6   4 16.4020 3.79083  16
   6  -6   4 27.1571 5.20201  17
   6  -6   4 25.2151 2.57372  10
   9   5  -4 15.6117 3.08354  18
   8   5  -4 80.3838 9.59806  12
   8   5  -4 84.2246 8.78383  11
   8   5  -4 75.6006 8.61026  18
   7   5  -4 13.5658 3.43675  18
   7   5  -4 5.59231 2.83119  11
   7   5  -4 11.1862 5.25633  12
   6   5  -4 31.3494 5.10708  11
   6   5  -4 25.3692 6.35129  12
   6   5  -4 22.2413 11.1341   4
   6   5  -4 32.2665 5.37020  18
   6   5  -4 25.9969 2.92792  10
   5   5  -4 102.693 7.37893  10
   5   5  -4 92.1224 8.85128  11
   5   5  -4 100.067 10.6803   2
   5   5  -4 103.099 9.27403  18
   5   5  -4 101.133 7.05888   9
   5   5  -4 95.8350 10.8283   3
   5   5  -4 76.1312 14.0169   4
   5   5  -4 102.166 10.3260  12
   4   5  -4 46.2243 5.24265  11
   4   5  -4 47.5947 8.77975   3
   4   5  -4 36.2450 9.06417   4
   4   5  -4 62.6726 6.53155  12
   4   5  -4 51.5314 4.50563   9
   4   5  -4 52.3708 4.58322  10
   4   5  -4 44.7851 5.18493  18
   4   5  -4 39.9273 7.72498   2
   3   5  -4 16.1377 5.28436   4
   3   5  -4 18.4721 5.73337   2
   3   5  -4 18.8089 2.38126   8
   3   5  -4 23.6282 7.65263   5
   3   5  -4 18.8718 3.19741   9
   3   5  -4 21.5958 5.80016   3
   2   5  -4 14.6985 5.60185   4
   2   5  -4 17.4305 6.24776   2
   2   5  -4 22.8763 6.30930   3
   1   5  -4 264.280 22.3206   2
   1   5  -4 249.812 20.4649   4
   1   5  -4 255.397 23.4626   3
   1  -5   4 76.9540 10.8404   3
   1  -5   4 74.4526 13.9468   2
   2  -5   4 56.4825 7.88236  16
   2  -5   4 55.9104 9.33648   3
   2  -5   4 35.1155 10.3926   6
   2  -5   4 36.3833 10.6243   2
   2  -5   4 50.5035 4.81724   8
   2  -5   4 51.6202 5.37892  10
   2  -5   4 54.7257 5.64613   9
   3  -5   4 7.28654 4.30783  16
   3  -5   4 -0.2571 6.35270   3
   3  -5   4 3.17520 2.27398   9
   3  -5   4 9.33067 2.14619   8
   3  -5   4 4.87164 2.88107  10
   3  -5   4 -4.0819 7.63276   7
   3  -5   4 19.0246 9.50338   2
   3  -5   4 7.12498 9.72461   6
   4  -5   4 61.0640 16.6317   6
   4  -5   4 59.5265 20.3365   7
   4  -5   4 59.0475 10.1068  17
   4  -5   4 63.3346 6.14467  10
   4  -5   4 55.9015 8.03441  16
   4  -5   4 71.4765 6.54707   9
   5  -5   4 24.8337 3.47283  10
   5  -5   4 19.0211 5.70024  16
   5  -5   4 15.4295 6.19062  17
   5  -5   4 20.1532 2.94220   9
   6  -5   4 8.02692 5.47987  17
   6  -5   4 8.12405 2.18514  10
   6  -5   4 7.86726 3.70587  16
   7  -5   4 2.74583 2.69025  17
   7  -5   4 1.98378 3.62073  16
   9   4  -4 30.2378 3.97105  18
   9   4  -4 20.5918 3.96997  11
   8   4  -4 13.2844 4.50707  11
   8   4  -4 10.4415 3.86723  18
   7   4  -4 5.53983 3.73983  11
   7   4  -4 7.93556 3.99968  17
   7   4  -4 3.57467 4.47607  12
   7   4  -4 6.07800 3.61002  18
   6   4  -4 34.0777 5.87460  17
   6   4  -4 34.8068 9.88163   4
   6   4  -4 30.2380 2.90274  10
   6   4  -4 35.9406 4.96165  11
   6   4  -4 25.3793 5.08296  18
   6   4  -4 36.3579 6.24901  12
   5   4  -4 4.55259 2.29413  17
   5   4  -4 5.29324 1.01058   9
   5   4  -4 4.52798 1.52489  10
   5   4  -4 12.1804 3.32925  18
   5   4  -4 8.15525 3.09069  11
   5   4  -4 7.33673 3.86898  12
   5   4  -4 6.62439 3.55038   2
   5   4  -4 2.56026 2.79974   3
   5   4  -4 0.05284 6.08384   4
   4   4  -4 25.7489 5.58644   3
   4   4  -4 22.2106 5.57204   2
   4   4  -4 24.1027 4.12294  18
   4   4  -4 20.0040 6.95718   4
   4   4  -4 21.6922 3.81698  11
   4   4  -4 20.9350 2.51236  10
   4   4  -4 24.5569 4.07230  17
   4   4  -4 21.9377 2.77181   9
   4   4  -4 26.0940 4.34185  12
   3   4  -4 175.092 15.9214   3
   3   4  -4 159.811 15.5540   4
   3   4  -4 135.395 15.6410   5
   2   4  -4 40.8341 6.92303   4
   2   4  -4 37.5427 7.14762   3
   2   4  -4 36.3040 6.75817   2
   1   4  -4 0.79740 3.64762   3
   1   4  -4 1.28452 3.48006   1
   1   4  -4 -5.3949 3.37002   2
   1   4  -4 1.02852 1.97087   4
  -1  -4   4 1.45833 3.55895   1
   0   4  -4 286.376 24.2361   3
   0   4  -4 242.732 20.5611   1
   0   4  -4 278.702 20.2972   4
   0  -4   4 236.374 20.2772   1
   0  -4   4 300.666 24.3810   2
   0  -4   4 295.750 24.5021   3
   0  -4   4 283.320 21.6921   1
   0  -4   4 247.988 22.2650   6
   1  -4   4 1.61759 5.58036   1
   1  -4   4 18.4934 5.75606   3
   1  -4   4 3.32012 5.05818   6
   1  -4   4 13.0793 6.45230   2
   2  -4   4 1696.63 124.933   6
   2  -4   4 1730.86 120.788   2
   2  -4   4 1695.78 129.526   3
   3  -4   4 -4.3881 3.49709  16
   3  -4   4 -2.5530 8.99610   7
   3  -4   4 0.15839 1.57863   9
   3  -4   4 2.17453 2.40050  10
   3  -4   4 0.55526 1.50150   8
   3  -4   4 7.68077 6.55702   2
   3  -4   4 3.19246 3.68380   3
   3  -4   4 -0.1975 5.39880   6
   4  -4   4 6.92192 5.50666   3
   4  -4   4 10.0309 2.85658  10
   4  -4   4 10.8336 3.92551  17
   4  -4   4 9.58465 4.22742  15
   4  -4   4 6.74035 11.6497   7
   4  -4   4 3.81444 2.23612   9
   4  -4   4 2.77503 3.12562  16
   4  -4   4 5.34362 7.24313   2
   4  -4   4 10.9108 7.80841   6
   5  -4   4 2.37912 1.81383   9
   5  -4   4 1.48336 4.06238  15
   5  -4   4 1.04582 14.2377   6
   5  -4   4 3.92343 4.59504  16
   5  -4   4 -4.9445 3.09582  17
   5  -4   4 3.89564 2.48933  10
   6  -4   4 0.37692 1.88562  10
   6  -4   4 1.93164 3.16349  15
   6  -4   4 7.21386 3.86488  16
   6  -4   4 1.66356 3.60752  17
   7  -4   4 7.54101 3.51234  16
   7  -4   4 7.01313 3.19062  15
   7  -4   4 8.91711 3.87986  17
   8   3  -4 -4.5513 3.51159  17
   8   3  -4 -3.5596 2.50234  11
   8   3  -4 -0.0384 2.33183  18
   7   3  -4 35.4177 5.40514  17
   7   3  -4 27.7245 5.19546  11
   7   3  -4 29.4321 5.90194  18
   6   3  -4 186.234 16.8724  12
   6   3  -4 185.352 21.2797   4
   6   3  -4 199.701 16.9546  18
   6   3  -4 211.433 16.7135  11
   6   3  -4 221.295 17.1628  17
   6   3  -4 197.291 13.0008  10
   5   3  -4 12.0387 1.80995  10
   5   3  -4 -0.7918 6.45535   4
   5   3  -4 12.8431 3.44040  11
   5   3  -4 12.0236 3.68083  12
   5   3  -4 7.92954 2.60999  18
   5   3  -4 14.1840 3.44378  17
   4   3  -4 21.2620 3.71781  11
   4   3  -4 25.5910 6.09501   4
   4   3  -4 29.0805 5.79512   3
   4   3  -4 32.7266 5.48487   2
   3   3  -4 44.5102 7.75696   4
   3   3  -4 35.9396 6.28685   2
   3   3  -4 47.9700 7.36575   3
   2   3  -4 56.4739 6.70593   4
   2   3  -4 44.2602 5.59173   1
   2   3  -4 36.2094 6.12660   1
   2   3  -4 51.3968 6.45617   2
   2   3  -4 59.2610 7.42206   3
  -2  -3   4 35.0646 5.81370   1
   1   3  -4 285.741 20.5742   1
   1   3  -4 291.782 20.4737   1
   1   3  -4 306.464 24.2062   3
   1   3  -4 317.006 21.9535   4
   1   3  -4 310.516 23.0157   2
  -1  -3   4 267.950 20.2543   1
  -1  -3   4 265.957 23.9716   3
  -1  -3   4 274.198 21.0994   1
  -1  -3   4 284.118 22.2160   6
  -1  -3   4 251.214 23.7200   2
   0   3  -4 14.7474 4.12922   1
   0   3  -4 20.3168 4.84898   3
   0   3  -4 18.1026 3.31671   4
   0   3  -4 16.0809 4.87308   2
   0   3  -4 2.59226 3.17752   1
   0  -3   4 21.2428 5.01227   3
   0  -3   4 4.06041 5.20912   2
   0  -3   4 16.6877 4.33103   6
   0  -3   4 19.5559 4.80734   1
   0  -3   4 12.6949 3.77579   1
  -1   3  -4 23.4822 4.85885   1
  -1   3  -4 29.2437 5.44203   1
   1  -3   4 39.8984 7.10424   6
   1  -3   4 19.2629 5.18388   1
   1  -3   4 33.5334 6.40030   3
   1  -3   4 27.1544 4.82032   1
   1  -3   4 29.2983 6.93808   2
   2  -3   4 905.288 68.4861   3
   2  -3   4 867.315 64.0264   2
   2  -3   4 877.605 66.9854   6
   3  -3   4 48.1988 10.7327   6
   3  -3   4 56.0399 8.39754   3
   3  -3   4 43.4625 8.63612   2
   3  -3   4 59.0499 11.4903   7
   4  -3   4 95.7378 12.6259   2
   4  -3   4 117.535 18.0806   6
   4  -3   4 122.863 10.0900  14
   4  -3   4 105.827 8.17302  10
   4  -3   4 121.621 12.3048   3
   4  -3   4 99.5515 7.94107   9
   4  -3   4 116.344 17.9615   7
   4  -3   4 91.8655 10.5864  15
   4  -3   4 89.8482 10.2259  16
   4  -3   4 110.022 10.9024  17
   5  -3   4 12.6351 4.99501   3
   5  -3   4 27.6149 5.59676  15
   5  -3   4 34.6513 6.26496  17
   5  -3   4 31.4704 2.98531   9
   5  -3   4 31.6051 6.21913  16
   5  -3   4 35.3735 4.12755  10
   5  -3   4 21.3549 4.59573  14
   5  -3   4 37.5340 13.7867   6
   5  -3   4 24.1720 6.60958   2
   6  -3   4 2.33951 3.05373  15
   6  -3   4 0.39899 3.11991  17
   6  -3   4 5.16538 4.91356  16
   6  -3   4 2.09357 1.73602  10
   7  -3   4 10.5986 3.71611  15
   7  -3   4 11.0676 4.19911  16
   7  -3   4 7.71094 3.88866  17
   8  -3   4 10.0307 3.04594  17
   8  -3   4 1.84315 3.07047  16
   9   2  -4 26.6699 4.43616  18
   9   2  -4 28.4276 5.30334  17
   8   2  -4 7.86249 4.35518  11
   8   2  -4 20.7147 4.12331  17
   8   2  -4 15.1725 3.76213  18
   7   2  -4 0.58125 3.53147  11
   7   2  -4 1.16641 2.52447  17
   7   2  -4 0.14129 3.31884  18
   7   2  -4 -1.0984 3.84527  16
   6   2  -4 27.1048 9.72164   7
   6   2  -4 22.0223 2.32994  10
   6   2  -4 28.9675 10.8651   4
   6   2  -4 25.0767 5.00576  16
   6   2  -4 20.0684 4.58778  11
   6   2  -4 20.0510 4.74183  18
   6   2  -4 28.6493 5.67314  17
   5   2  -4 1.04489 2.69271  17
   5   2  -4 4.96571 2.36408  18
   5   2  -4 0.80560 1.85568  11
   5   2  -4 8.59815 5.94614   4
   5   2  -4 4.98789 3.03200  16
   5   2  -4 5.85195 1.49799  10
   5   2  -4 3.33982 7.44195   7
   4   2  -4 11.0904 3.14238   3
   4   2  -4 13.1901 5.89009   4
   4   2  -4 15.9734 3.93002   2
   4   2  -4 12.5920 6.18351   7
   3   2  -4 1.93007 4.38602   7
   3   2  -4 -5.3929 3.22170   4
   3   2  -4 4.04051 3.14129   2
   3   2  -4 -1.2693 2.32411   3
   2   2  -4 150.620 12.9485   3
   2   2  -4 133.472 12.0844   4
   2   2  -4 118.331 10.4579   1
   2   2  -4 144.483 12.3655   2
   2   2  -4 134.899 10.6825   1
  -2  -2   4 114.675 10.9252   1
  -2  -2   4 128.504 10.4715   1
   1   2  -4 64.2938 8.54829   2
   1   2  -4 74.0126 7.44705   1
   1   2  -4 70.9251 8.43877   3
   1   2  -4 74.9796 7.23280   4
   1   2  -4 71.8654 7.11652   1
  -1  -2   4 69.3496 8.35046   3
  -1  -2   4 69.1332 7.65769   1
  -1  -2   4 74.8512 9.50235   2
  -1  -2   4 77.0040 7.30009   1
   0   2  -4 43.9152 5.13452   1
   0   2  -4 43.2891 5.94406   3
   0   2  -4 45.6522 6.13027   2
   0   2  -4 46.6802 5.24517   4
   0   2  -4 43.0049 5.39850   1
   0  -2   4 38.9322 6.52809   2
   0  -2   4 46.1944 6.52039   6
   0  -2   4 49.5856 5.70609   1
   0  -2   4 45.9887 5.13648   1
   0  -2   4 41.5225 5.80026   3
  -1   2  -4 16.5636 3.26948   4
  -1   2  -4 23.7317 4.73540   3
  -1   2  -4 28.0259 4.48294   1
  -1   2  -4 27.3427 4.59105   1
  -1   2  -4 26.0625 5.13875   2
   1  -2   4 24.5220 3.87739   1
   1  -2   4 28.1897 4.68113   3
   1  -2   4 33.5275 5.73595   6
   1  -2   4 30.0724 6.07672   2
   1  -2   4 33.6256 5.44415   1
  -2   2  -4 37.5354 5.90238   1
   2  -2   4 38.6746 6.16747   3
   2  -2   4 38.9077 5.36740   1
   2  -2   4 38.7037 7.35939   6
   2  -2   4 45.8425 6.35258   2
   2  -2   4 33.9580 4.95061   1
   3  -2   4 -2.6410 4.42279   7
   3  -2   4 -0.9000 3.71485   2
   3  -2   4 -0.6511 5.46879   6
   3  -2   4 2.25035 3.00011   3
   4  -2   4 18.6218 4.73124   3
   4  -2   4 16.0606 4.22281  16
   4  -2   4 11.5893 1.94088   9
   4  -2   4 9.29487 4.15845   2
   4  -2   4 10.5700 2.98409  15
   4  -2   4 10.8321 3.23568  14
   4  -2   4 14.0738 8.07678   6
   4  -2   4 16.7569 7.01364   7
   5  -2   4 377.120 23.6955  10
   5  -2   4 340.298 28.7199  17
   5  -2   4 350.503 29.3625  16
   5  -2   4 374.684 36.5526   6
   5  -2   4 346.109 29.9685  15
   5  -2   4 417.037 28.6373  14
   6  -2   4 1.06685 3.21041  16
   6  -2   4 -1.2150 2.56020  17
   6  -2   4 0.28372 1.23659  10
   6  -2   4 -6.4152 8.60298   6
   6  -2   4 -2.3172 2.59257  15
   6  -2   4 5.97086 3.38962  14
   7  -2   4 2.35367 3.37548  15
   7  -2   4 5.50295 4.82861  16
   7  -2   4 9.45161 4.72637  17
   8  -2   4 -1.6825 2.69646  15
   8  -2   4 1.43143 3.10051  16
   8  -2   4 2.76624 2.88567  17
   9   1  -4 2.42191 2.18832  17
   9   1  -4 1.83114 2.50906  18
   8   1  -4 43.8817 6.42607  18
   8   1  -4 50.3954 6.27666  17
   7   1  -4 134.644 13.2347  18
   7   1  -4 139.513 12.5573  17
   7   1  -4 157.922 13.6257  16
   7   1  -4 116.471 12.1502  11
   6   1  -4 517.591 32.1005  10
   6   1  -4 482.781 37.4612  11
   6   1  -4 516.294 39.6297  17
   6   1  -4 576.930 39.9074  16
   6   1  -4 466.918 39.6746  18
   5   1  -4 92.4583 9.04321  11
   5   1  -4 94.5719 9.44833  17
   5   1  -4 93.4726 13.3070   4
   5   1  -4 88.8889 9.40815  18
   5   1  -4 107.433 9.87883  16
   5   1  -4 101.833 14.2915   7
   5   1  -4 99.8380 6.97050  10
   4   1  -4 15.9905 3.80676   2
   4   1  -4 15.5543 5.43071   4
   4   1  -4 14.4211 3.45889   3
   4   1  -4 17.0201 6.70165   7
   3   1  -4 16.3172 3.57470   3
   3   1  -4 10.8144 5.47147   7
   3   1  -4 12.8497 4.54679   4
   3   1  -4 9.88186 3.39144   1
   3   1  -4 19.2965 4.71918   2
   2   1  -4 -2.4564 3.07803   2
   2   1  -4 -3.0025 3.33369   7
   2   1  -4 3.78077 3.39071   2
   2   1  -4 0.79071 2.72056   3
   2   1  -4 0.56861 2.69201   3
   2   1  -4 1.90200 2.50581   1
   2   1  -4 2.01514 2.21304   1
   2   1  -4 -0.2338 3.15716   4
  -2  -1   4 -1.8625 2.20515   1
  -2  -1   4 2.01238 2.59812   1
   1   1  -4 11.4498 3.29208   1
   1   1  -4 18.0632 3.69080   2
   1   1  -4 12.3435 2.70694   1
   1   1  -4 14.0785 3.91332   3
   1   1  -4 10.6177 3.72747   7
  -1  -1   4 15.6095 3.19691   1
  -1  -1   4 8.69534 3.23670   2
  -1  -1   4 12.3475 3.03399   3
  -1  -1   4 9.68258 2.79192   1
   0   1  -4 82.9613 6.89514   1
   0   1  -4 76.6970 7.51517   1
   0   1  -4 70.9554 7.68371   2
   0   1  -4 83.9884 8.48195   3
   0  -1   4 69.6605 7.83845   2
   0  -1   4 78.9792 7.04845   1
   0  -1   4 76.2547 8.11529   3
   0  -1   4 67.5441 6.78447   1
  -1   1  -4 1021.86 79.6661   2
  -1   1  -4 1212.96 72.4718   1
  -1   1  -4 1139.38 86.5752   3
  -1   1  -4 1172.53 72.0520   1
   1  -1   4 1124.84 71.9423   1
   1  -1   4 1159.41 72.3513   1
   1  -1   4 1201.04 83.3495   6
   1  -1   4 1189.95 86.4128   3
   1  -1   4 1174.65 80.2666   2
  -2   1  -4 4.36617 2.17692   1
  -2   1  -4 1.66887 2.49752   1
   2  -1   4 4.60426 2.08767   1
   2  -1   4 1.00052 2.19958   2
   2  -1   4 2.42078 2.43803   1
   2  -1   4 2.70508 3.38208   2
   2  -1   4 6.70547 4.93791   6
   2  -1   4 2.02808 2.76312   3
   2  -1   4 5.55565 2.77445   3
   3  -1   4 3.12806 2.19036   3
   3  -1   4 5.08456 5.55007   6
   3  -1   4 6.40290 3.61322   7
   3  -1   4 5.36483 3.02639   2
   3  -1   4 3.82908 3.17308   3
   3  -1   4 3.30522 2.08096   1
   3  -1   4 5.01683 3.44314   2
   4  -1   4 17.9746 3.40226   3
   4  -1   4 21.3732 3.86899   2
   4  -1   4 15.2386 6.41623   6
   4  -1   4 10.7749 3.49943   2
   4  -1   4 13.1650 3.38879   3
   4  -1   4 8.44753 5.20765   7
   5  -1   4 34.9839 9.78879   6
   5  -1   4 37.3613 5.51017  13
   5  -1   4 37.3490 5.58845  14
   5  -1   4 24.9222 4.84035  15
   5  -1   4 15.9778 7.69831   7
   5  -1   4 39.2205 6.83062  16
   5  -1   4 34.7322 3.25534  10
   5  -1   4 26.7729 5.25110  17
   6  -1   4 0.94510 1.01601  10
   6  -1   4 -0.2950 2.82036  15
   6  -1   4 0.68440 8.09249   6
   6  -1   4 -0.2504 2.28094  17
   6  -1   4 -3.0717 3.06767  14
   6  -1   4 0.75869 3.81023  16
   7  -1   4 44.9729 8.16034  15
   7  -1   4 30.7848 5.90530  17
   7  -1   4 46.4125 8.80584  16
   7  -1   4 53.8182 7.29826  14
   8  -1   4 156.764 13.9121  16
   8  -1   4 148.151 13.5907  15
   8  -1   4 134.865 13.4179  17
   9  -1   4 24.7733 5.03479  16
   8   0  -4 1.78058 3.02857  18
   8   0  -4 3.03111 2.86284  17
   7   0  -4 25.0865 5.08626  17
   7   0  -4 23.3004 4.63970  16
   7   0  -4 22.3117 4.83577  18
   6   0  -4 6.70885 11.6028   7
   6   0  -4 13.5496 4.20968  16
   6   0  -4 8.56372 1.52375  10
   6   0  -4 11.9326 4.20950  18
   6   0  -4 8.44477 3.49385  11
   6   0  -4 8.08120 3.93106  17
   5   0  -4 40.6140 5.84155  15
   5   0  -4 41.1071 3.52526  10
   5   0  -4 40.0067 6.26130  16
   5   0  -4 24.4704 10.5561   7
   5   0  -4 33.5006 5.22544  11
   5   0  -4 31.5266 5.56651  18
   5   0  -4 28.7271 5.65417  17
   4   0  -4 217.982 16.6277   2
   4   0  -4 183.542 20.4604   7
   4   0  -4 197.200 16.7744   3
   4   0  -4 187.257 17.9356   4
   3   0  -4 1760.84 128.564   3
   3   0  -4 1634.19 126.958   7
   3   0  -4 1749.36 118.841   2
   3   0  -4 1763.45 118.016   4
   2   0  -4 1.45031 2.85044   3
   2   0  -4 -0.7932 3.08630   2
   2   0  -4 -2.1768 1.92467   1
   2   0  -4 0.34242 2.93970   2
   2   0  -4 6.65098 4.03927   7
   2   0  -4 2.21573 2.53116   3
   2   0  -4 2.48498 3.27886   4
   2   0  -4 1.63697 2.30913   1
  -2   0   4 -0.0176 2.27651   1
  -2   0   4 2.63817 2.23850   1
   1   0  -4 29.0036 4.52831   1
   1   0  -4 26.9825 5.30770   7
   1   0  -4 29.3474 4.44019   3
   1   0  -4 30.5857 4.05197   1
   1   0  -4 32.0401 5.21889   2
  -1   0   4 27.0047 4.87875   2
  -1   0   4 27.2474 4.15228   3
  -1   0   4 26.8683 4.12868   1
  -1   0   4 29.9995 3.73412   1
   0   0  -4 72.6431 6.44655   7
   0   0  -4 75.4707 7.01512   1
   0   0  -4 71.6948 6.54563   1
   0   0  -4 66.0612 7.62105   3
   0   0  -4 58.0007 7.57015   2
   0   0   4 70.9179 6.41700   5
   0   0   4 75.9569 6.50968   1
   0   0   4 64.7398 7.30787   3
   0   0   4 71.0448 7.69830   2
   0   0   4 64.5529 6.43242   1
  -1   0  -4 861.828 68.1019   3
  -1   0  -4 950.785 57.0571   1
  -1   0  -4 935.547 56.7783   1
  -1   0  -4 856.176 62.8750   2
   1   0   4 826.769 67.9856   3
   1   0   4 914.568 56.8744   1
   1   0   4 945.506 63.9969   5
   1   0   4 907.837 56.6454   1
   1   0   4 932.560 63.0580   2
   1   0   4 947.486 67.9844   3
  -2   0  -4 47.3887 5.17552   1
  -2   0  -4 50.6960 4.88835   1
   2   0   4 44.6101 4.55988   1
   2   0   4 42.4345 4.94227   7
   2   0   4 44.4785 6.04737   2
   2   0   4 49.6710 5.42356   3
   2   0   4 38.8185 5.18722   2
   2   0   4 46.4161 5.75286   3
   2   0   4 39.9258 4.90028   1
   2   0   4 49.9154 7.10393   5
   2   0   4 52.4137 7.08511   6
  -3   0  -4 -1.0432 1.61320   1
  -3   0  -4 -0.4957 1.54592   1
   3   0   4 2.31962 2.27311   2
   3   0   4 -1.6765 1.55391   1
   3   0   4 1.94133 2.58440   2
   3   0   4 -0.4755 3.48776   5
   3   0   4 1.21650 4.82211   6
   3   0   4 2.28470 1.96034   3
   3   0   4 3.96026 2.42173   3
   3   0   4 4.23490 2.03550   1
   3   0   4 3.82162 3.09684   7
   4   0   4 108.399 8.73950   3
   4   0   4 86.4701 11.0363   7
   4   0   4 108.926 8.27279   2
   4   0   4 115.651 8.71669   3
   4   0   4 114.252 8.24846   2
   4   0   4 112.971 13.3490   6
   5   0   4 53.7757 4.12541  10
   5   0   4 58.8663 6.69139  15
   5   0   4 56.6717 6.79386  14
   5   0   4 58.8375 6.76010  13
   5   0   4 58.4287 11.8190   6
   5   0   4 46.7250 7.20845  16
   6   0   4 53.1318 6.91993  15
   6   0   4 45.9413 6.95853  14
   6   0   4 42.6283 6.39363  17
   6   0   4 53.7138 6.93896  13
   6   0   4 67.2102 8.10250  16
   6   0   4 27.8575 11.5625   6
   7   0   4 7.73013 3.07861  17
   7   0   4 4.09544 9.30262   6
   7   0   4 8.16579 3.44919  16
   7   0   4 12.7517 4.05346  15
   7   0   4 13.4777 3.66318  14
   8   0   4 189.491 17.3831  16
   8   0   4 222.691 17.8745  15
   8   0   4 168.388 16.3489  17
   8   0   4 227.808 16.9785  14
   9   0   4 189.126 16.4495  16
   9   0   4 203.147 16.6877  15
   8  -1  -4 53.1339 5.91143  17
   8  -1  -4 28.9847 5.70516  18
   7  -1  -4 14.8229 4.72953  16
   7  -1  -4 13.3820 4.04343  18
   7  -1  -4 17.5492 4.13494  17
   6  -1  -4 7.03886 9.37364   7
   6  -1  -4 5.63494 1.56375  10
   6  -1  -4 4.63162 3.01189  17
   6  -1  -4 7.94784 3.97782  16
   6  -1  -4 9.48265 3.47081  18
   5  -1  -4 15.3869 4.05875  16
   5  -1  -4 13.6709 3.92404  17
   5  -1  -4 16.1340 4.31243  18
   5  -1  -4 19.8403 10.0343   7
   5  -1  -4 15.7302 1.55843   9
   5  -1  -4 15.2628 2.28548  10
   5  -1  -4 15.1577 2.73577   2
   5  -1  -4 11.2008 2.51589   3
   4  -1  -4 39.6991 6.18054   3
   4  -1  -4 33.3471 6.98095   4
   4  -1  -4 51.2811 5.95247  15
   4  -1  -4 51.8441 7.13692   2
   4  -1  -4 45.3991 3.86764  10
   4  -1  -4 39.6462 3.74301   9
   4  -1  -4 51.2683 10.4895   7
   4  -1  -4 37.4017 5.16043  18
   3  -1  -4 98.1835 10.4667   4
   3  -1  -4 99.5851 10.5085   2
   3  -1  -4 107.809 10.4738   3
   3  -1  -4 103.659 12.8421   7
   2  -1  -4 253.271 20.5563   3
   2  -1  -4 258.167 17.5162   1
   2  -1  -4 258.265 19.3562   2
   2  -1  -4 266.889 21.4789   7
   2  -1  -4 192.842 19.5744   2
   2  -1  -4 238.815 17.2893   1
  -2   1   4 241.592 17.3603   1
  -2   1   4 255.849 17.7007   1
   1  -1  -4 270.933 22.0406   3
   1  -1  -4 288.638 18.9005   1
   1  -1  -4 273.269 18.7110   1
   1  -1  -4 282.002 20.9788   2
   1  -1  -4 264.735 21.7530   7
  -1   1   4 250.576 20.8045   2
  -1   1   4 298.304 18.9602   1
  -1   1   4 240.648 21.8419   3
  -1   1   4 289.487 18.8223   1
   0  -1  -4 1507.58 107.123   2
   0  -1  -4 1588.21 116.314   3
   0  -1  -4 1597.51 96.9639   1
   0  -1  -4 1648.65 96.9647   1
   0  -1  -4 1515.68 112.519   7
   0   1   4 1520.17 107.166   2
   0   1   4 1573.07 96.9042   1
   0   1   4 1555.53 116.200   3
   0   1   4 1659.66 96.8770   1
   0   1   4 1528.10 107.977   5
  -1  -1  -4 235.578 19.8846   2
  -1  -1  -4 233.750 21.2627   3
  -1  -1  -4 296.905 18.2334   1
  -1  -1  -4 303.373 18.2034   1
   1   1   4 277.679 20.0414   2
   1   1   4 277.453 21.2322   3
   1   1   4 242.552 21.1556   3
   1   1   4 262.293 17.9109   1
   1   1   4 267.361 20.3297   5
   1   1   4 292.728 17.9735   1
  -2  -1  -4 83.4491 6.53811   1
  -2  -1  -4 76.5266 6.52671   1
   2   1   4 81.0405 9.29835   6
   2   1   4 80.0762 8.77752   5
   2   1   4 75.0840 7.38099   3
   2   1   4 79.7241 6.46256   1
   2   1   4 79.0750 7.48654   2
   2   1   4 79.1964 7.30246   3
   2   1   4 67.9623 7.00997   2
   2   1   4 73.5500 6.21733   1
  -3  -1  -4 22.8837 2.96341   1
  -3  -1  -4 22.4038 2.85569   1
   3   1   4 18.7523 3.77150   7
   3   1   4 30.1912 3.20685   1
   3   1   4 28.5741 3.28451   3
   3   1   4 29.6386 3.86722   2
   3   1   4 24.3794 3.45536   3
   3   1   4 24.8086 6.26060   6
   3   1   4 24.0018 5.67091   5
   3   1   4 20.7827 2.89123   1
   3   1   4 20.3361 3.38244   2
   4   1   4 45.6783 6.82034   7
   4   1   4 76.8326 9.81207   5
   4   1   4 77.7057 10.7956   6
   5   1   4 249.181 20.0351  13
   5   1   4 263.063 23.3768   5
   5   1   4 230.965 20.6762  15
   5   1   4 249.218 19.9410  14
   5   1   4 281.458 25.0859   6
   6   1   4 21.5210 3.88322  16
   6   1   4 16.0138 3.44820  13
   6   1   4 16.0412 3.62522  17
   6   1   4 17.8424 3.95196  15
   6   1   4 11.6228 7.18421   6
   6   1   4 17.1640 3.70454  14
   6   1   4 14.3768 3.69621  12
   7   1   4 9.90811 4.20930  16
   7   1   4 5.53258 3.18440  12
   7   1   4 7.17257 3.86989  13
   7   1   4 14.8606 12.5340   6
   7   1   4 10.5581 3.77928  15
   7   1   4 7.51930 3.35750  17
   7   1   4 9.55205 3.36993  14
   8   1   4 2.72931 2.33872  17
   8   1   4 -1.3164 2.39054  14
   8   1   4 2.22812 2.76067  16
   8   1   4 -0.6517 3.00064  15
   9   1   4 34.4677 5.52826  16
   9   1   4 35.3676 5.31657  15
   8  -2  -4 -4.5919 2.43191  17
   8  -2  -4 3.55124 2.76218  18
   7  -2  -4 4.64607 4.32792  16
   7  -2  -4 1.37939 4.45574  18
   7  -2  -4 2.09529 4.23175  17
   6  -2  -4 190.152 16.7832  18
   6  -2  -4 182.529 15.9743  16
   6  -2  -4 188.476 16.7353  17
   6  -2  -4 180.285 12.4533  10
   5  -2  -4 3.92704 2.56520  16
   5  -2  -4 0.05318 3.52856   3
   5  -2  -4 -2.8581 3.19285  17
   5  -2  -4 5.26274 3.78525  18
   5  -2  -4 9.21557 8.06901   7
   5  -2  -4 6.88756 4.70662   2
   5  -2  -4 3.27318 1.73574  10
   5  -2  -4 2.64084 1.21980   9
   4  -2  -4 36.0845 7.04544   2
   4  -2  -4 38.0881 3.46483  10
   4  -2  -4 28.2814 5.70033  16
   4  -2  -4 39.4981 4.99508  15
   4  -2  -4 35.1381 9.82235   7
   4  -2  -4 28.5269 5.70386  17
   4  -2  -4 30.6865 6.15635   3
   4  -2  -4 32.4729 5.85641  18
   4  -2  -4 36.0455 3.66887   9
   3  -2  -4 4.29684 3.19015   3
   3  -2  -4 3.81654 4.49980   7
   3  -2  -4 9.54244 4.20273   2
   3  -2  -4 5.49719 3.68335   4
   2  -2  -4 68.0150 8.41259   2
   2  -2  -4 64.6623 9.42156   7
   2  -2  -4 56.4005 7.42831   3
   2  -2  -4 43.6323 6.60278   1
  -2   2   4 49.8624 6.68327   1
   1  -2  -4 142.295 10.7967   1
   1  -2  -4 124.554 12.7660   7
   1  -2  -4 139.851 12.4344   3
   1  -2  -4 142.580 12.6671   2
   1  -2  -4 147.460 11.1528   1
  -1   2   4 135.923 12.4814   3
  -1   2   4 120.107 12.3635   2
  -1   2   4 135.756 10.9883   1
  -1   2   4 125.251 10.4919   5
  -1   2   4 140.272 11.1876   1
   0  -2  -4 2995.54 233.148   3
   0  -2  -4 3321.17 194.248   1
   0  -2  -4 3215.03 194.120   1
   0  -2  -4 3029.29 226.376   7
   0  -2  -4 3217.72 214.836   2
   0   2   4 3245.03 194.133   1
   0   2   4 3104.00 233.238   3
   0   2   4 3224.99 214.788   2
   0   2   4 3074.23 217.121   5
   0   2   4 3258.93 194.179   1
  -1  -2  -4 53.5782 5.55111   1
  -1  -2  -4 57.6166 5.30608   1
  -1  -2  -4 38.3089 5.68788   2
  -1  -2  -4 48.6693 6.26179   3
  -1  -2  -4 44.1468 4.54328   7
   1   2   4 54.9747 5.10150   1
   1   2   4 56.6088 5.95152   2
   1   2   4 48.3803 6.24388   5
   1   2   4 59.6836 6.34553   3
   1   2   4 49.1760 5.26571   1
  -2  -2  -4 6.48214 2.27440   1
  -2  -2  -4 7.73818 2.43150   1
   2   2   4 7.35885 2.21908   1
   2   2   4 6.23062 2.77265   2
   2   2   4 6.99146 2.41197   3
   2   2   4 6.04090 2.86959   2
   2   2   4 6.98588 2.20540   1
   2   2   4 9.08797 2.45416   3
   2   2   4 13.5824 4.16303   6
   2   2   4 13.3446 4.32704   5
  -3  -2  -4 75.5600 5.96226   1
  -3  -2  -4 77.6275 6.04251   1
   3   2   4 70.0113 6.86267   3
   3   2   4 82.1592 6.96031   3
   3   2   4 73.4140 9.17258   6
   3   2   4 79.2801 6.10412   1
   3   2   4 64.2705 8.48700   5
   3   2   4 74.5367 6.83958   2
   3   2   4 75.3854 6.00580   1
   3   2   4 70.9222 6.69384   2
   4   2   4 40.1549 5.59617   7
   4   2   4 50.8168 8.81647   6
   4   2   4 65.2443 9.36165   5
   5   2   4 -5.5348 4.97295   5
   5   2   4 -2.2804 4.87338   6
   6   2   4 4.83471 2.67099  17
   6   2   4 10.1278 3.72660  13
   6   2   4 -1.6161 6.95147   5
   6   2   4 3.70831 3.19285  12
   6   2   4 6.51240 3.56596  15
   6   2   4 3.83363 2.43374  18
   6   2   4 4.88042 2.26835  16
   6   2   4 2.42777 6.83328   6
   6   2   4 4.57882 2.50233  14
   6   2   4 6.24943 2.68054  11
   7   2   4 173.243 15.6695  16
   7   2   4 173.400 15.2484  14
   7   2   4 196.861 16.0862  13
   7   2   4 163.045 14.5979  17
   7   2   4 180.416 15.4370  12
   7   2   4 172.833 13.9548  11
   7   2   4 184.994 16.3331  15
   8   2   4 96.0843 10.0004  12
   8   2   4 105.212 10.1811  16
   8   2   4 97.5808 9.92026  17
   8   2   4 106.282 11.3565  15
   8   2   4 107.711 10.8482  13
   8   2   4 108.825 10.7063  14
   9   2   4 0.96702 3.31040  15
   9   2   4 1.98735 3.54558  16
   8  -3  -4 1.82551 2.47061  17
   7  -3  -4 5.63122 3.38168  17
   7  -3  -4 1.19699 2.92969  18
   7  -3  -4 8.92341 3.99503  16
   6  -3  -4 16.2503 5.69877  18
   6  -3  -4 20.0718 4.46467  17
   6  -3  -4 17.7916 2.71914  10
   6  -3  -4 16.9342 3.95920  16
   5  -3  -4 30.7822 5.80435  18
   5  -3  -4 25.4296 13.4541   7
   5  -3  -4 30.4921 3.43118   9
   5  -3  -4 24.8675 5.03383  16
   5  -3  -4 14.3772 7.20323   2
   5  -3  -4 25.4453 5.39783  17
   5  -3  -4 28.1428 3.92912  10
   4  -3  -4 10.3898 4.33041  18
   4  -3  -4 7.18532 3.35551  16
   4  -3  -4 5.56901 4.44630   3
   4  -3  -4 6.42622 2.09170   9
   4  -3  -4 6.38448 2.21327  10
   4  -3  -4 1.20939 3.44508  17
   4  -3  -4 6.86957 8.90730   7
   4  -3  -4 9.57397 5.54175   2
   3  -3  -4 180.254 19.5959   7
   3  -3  -4 168.534 16.7685   2
   3  -3  -4 172.080 16.9673   3
   2  -3  -4 167.948 15.7717   2
   2  -3  -4 164.532 16.4364   3
   2  -3  -4 191.829 17.5060   7
   1  -3  -4 39.8876 7.11620   7
   1  -3  -4 28.3432 5.62606   2
   1  -3  -4 15.4864 3.62308   1
   1  -3  -4 17.0914 4.16042   3
   1  -3  -4 19.0784 4.02273   1
  -1   3   4 23.5435 5.10879   2
  -1   3   4 19.6379 3.95961   1
  -1   3   4 16.9577 3.90727   1
  -1   3   4 24.8645 5.17032   3
   0  -3  -4 3.60160 3.41346   3
   0  -3  -4 -1.1865 2.90711   1
   0  -3  -4 -4.0449 2.57148   1
   0  -3  -4 4.94894 4.39925   2
   0  -3  -4 0.40407 3.10154   7
   0   3   4 0.48530 2.85133   1
   0   3   4 -0.6487 2.72763   1
   0   3   4 0.71598 2.33131   5
   0   3   4 -0.3060 3.53736   2
   0   3   4 1.01629 3.04777   3
  -1  -3  -4 39.9492 4.97805   1
  -1  -3  -4 30.2285 5.23835   3
  -1  -3  -4 38.1361 6.63003   2
  -1  -3  -4 44.9600 5.79586   1
   1   3   4 51.2460 5.86262   3
   1   3   4 41.6631 5.36825   5
   1   3   4 38.4150 5.32592   1
   1   3   4 35.7603 4.61545   1
   1   3   4 38.1145 6.49752   2
  -2  -3  -4 168.387 12.0706   1
  -2  -3  -4 161.560 12.0442   1
   2   3   4 188.022 14.3195   3
   2   3   4 163.895 13.3493   2
   2   3   4 138.688 13.4110   2
   2   3   4 164.755 12.1662   1
   2   3   4 157.018 11.8601   1
   2   3   4 176.649 14.4720   5
   2   3   4 145.485 14.0245   3
  -3  -3  -4 2124.93 132.850   1
  -3  -3  -4 2060.59 132.749   1
   3   3   4 2234.24 151.401   5
   3   3   4 2340.56 146.990   2
   3   3   4 2060.35 159.425   3
   3   3   4 2055.46 132.834   1
   3   3   4 2022.28 146.901   2
   3   3   4 2449.95 146.437   4
   3   3   4 2130.82 153.359   6
   3   3   4 2095.21 132.768   1
   3   3   4 2253.93 159.667   3
   4   3   4 319.630 24.2480   4
   4   3   4 289.562 25.3642   6
   4   3   4 321.050 26.4252   5
   5   3   4 6.65745 5.20427   6
   5   3   4 3.93387 2.86259  12
   5   3   4 5.25253 5.75319   5
   5   3   4 2.30157 3.87370   4
   5   3   4 5.35101 3.02004  13
   6   3   4 98.4483 8.90036  14
   6   3   4 99.4511 9.67293  13
   6   3   4 96.4377 9.34247  12
   6   3   4 100.567 8.31035  18
   6   3   4 73.0152 8.16553  17
   6   3   4 99.3025 13.6326   5
   6   3   4 65.1454 8.55600  16
   6   3   4 89.6968 9.33266  15
   6   3   4 91.1585 8.32556  11
   7   3   4 8.29593 2.85429  16
   7   3   4 15.3631 4.31044  15
   7   3   4 8.56098 3.29044  18
   7   3   4 10.8151 4.17071  14
   7   3   4 12.1082 2.77920  11
   7   3   4 15.9579 3.47876  12
   7   3   4 13.5313 4.43597  13
   7   3   4 12.2638 2.91807  17
   8   3   4 -1.1447 2.40147  15
   8   3   4 1.81696 3.32983  14
   8   3   4 0.52190 1.92442  11
   8   3   4 4.53278 2.94103  13
   8   3   4 -0.8331 3.48166  12
   8   3   4 3.38412 2.23647  17
   8   3   4 0.06637 2.21834  16
   8   3   4 3.82527 2.73016  18
   9   3   4 56.2288 6.26349  14
   9   3   4 57.6322 6.42351  15
   9   3   4 56.1975 6.29782  16
   7  -4  -4 1.90448 2.71121  18
   7  -4  -4 -2.0926 3.00570  17
   7  -4  -4 0.66764 3.39980  16
   6  -4  -4 9.73503 4.04532  16
   6  -4  -4 7.88594 4.79254  17
   6  -4  -4 12.1237 2.40654  10
   6  -4  -4 8.44348 3.66331  18
   5  -4  -4 31.0937 6.55782  18
   5  -4  -4 50.5980 8.00498  17
   5  -4  -4 50.5709 5.19891  10
   5  -4  -4 46.4951 7.33906  16
   5  -4  -4 51.4418 4.45188   9
   4  -4  -4 20.4813 4.09352  17
   4  -4  -4 8.03363 8.36949   7
   4  -4  -4 18.1814 3.10476   9
   4  -4  -4 7.91590 5.47879   3
   4  -4  -4 13.7087 4.09488  18
   4  -4  -4 9.92337 7.06295   2
   4  -4  -4 15.2854 3.10737  10
   4  -4  -4 17.3356 4.01457  16
   3  -4  -4 65.1848 6.06847   9
   3  -4  -4 63.0961 4.99990   8
   3  -4  -4 57.0728 12.5864   7
   3  -4  -4 53.6793 7.36556  17
   3  -4  -4 59.1039 10.1616   3
   3  -4  -4 74.3719 11.6370   2
   3  -4  -4 60.6149 5.38849  10
   2  -4  -4 78.8177 11.6277   7
   2  -4  -4 92.0311 11.7047   3
   2  -4  -4 83.6354 11.0199   2
   1  -4  -4 114.951 11.9751   7
   1  -4  -4 102.507 10.2335   1
   1  -4  -4 119.084 11.9674   2
   1  -4  -4 106.643 12.3492   3
  -1   4   4 67.6825 10.2835   1
   0  -4  -4 54.2246 6.93370   1
   0  -4  -4 63.4859 8.28599   1
   0  -4  -4 82.0400 8.73945   3
   0  -4  -4 56.2328 9.37116   2
   0   4   4 76.5320 9.60658   2
   0   4   4 69.3581 8.51369   3
   0   4   4 65.2346 7.84679   1
   0   4   4 48.7619 6.77820   1
  -1  -4  -4 20.0989 4.66821   1
  -1  -4  -4 24.6800 5.62781   2
  -1  -4  -4 26.1154 5.96963   3
  -1  -4  -4 31.6254 4.98441   1
   1   4   4 25.8197 4.73530   1
   1   4   4 31.4484 6.33555   3
   1   4   4 34.8235 5.96197   2
   1   4   4 30.8838 5.53094   5
   1   4   4 26.6283 4.62253   1
  -2  -4  -4 14.7199 3.72548   1
  -2  -4  -4 7.70715 3.15905   1
   2   4   4 10.3022 3.23546   1
   2   4   4 6.04507 3.80236   5
   2   4   4 19.9837 4.31515   3
   2   4   4 17.5531 4.55955   2
   2   4   4 -0.1792 2.32581   1
   3   4   4 465.487 35.9919   5
   3   4   4 466.219 36.1351   3
   3   4   4 436.824 33.4955   2
   3   4   4 476.116 34.1439   4
   4   4   4 -1.0612 1.64718   3
   4   4   4 2.44608 2.73391   2
   4   4   4 1.79299 3.53898   4
   4   4   4 -4.6691 4.02727   5
   4   4   4 1.90321 1.96413   2
   4   4   4 -0.4144 1.94729   3
   5   4   4 116.578 14.1475   5
   5   4   4 112.148 11.0495  13
   5   4   4 108.198 12.0640   4
   5   4   4 121.393 7.74039  10
   5   4   4 101.060 10.2629  14
   5   4   4 122.213 9.86419  11
   5   4   4 112.407 9.89183  18
   5   4   4 129.407 10.5631  12
   6   4   4 61.2818 12.1200   5
   6   4   4 68.7944 6.96594  18
   6   4   4 58.5445 6.75756  11
   6   4   4 61.0131 7.32596  13
   6   4   4 64.2536 7.70663  14
   6   4   4 74.5058 7.35493  12
   7   4   4 14.1263 3.43393  18
   7   4   4 9.69658 4.14304  12
   7   4   4 10.2655 3.25337  17
   7   4   4 14.7753 4.06983  13
   7   4   4 8.62427 2.91305  15
   7   4   4 11.4232 3.54409  11
   7   4   4 9.76239 3.92212  14
   8   4   4 13.7593 3.38807  14
   8   4   4 11.8925 2.93043  18
   8   4   4 12.2498 2.80449  11
   8   4   4 9.73104 3.12761  12
   8   4   4 7.35571 3.44505  13
   9   4   4 46.1385 5.48274  14
   9   4   4 39.6997 6.86065  13
   9   4   4 40.2815 6.34475  12
   7  -5  -4 2.69841 2.73126  17
   6  -5  -4 6.82478 3.99369  18
   6  -5  -4 8.94162 3.63064  17
   6  -5  -4 8.64718 2.26139  10
   5  -5  -4 62.6452 5.94626  10
   5  -5  -4 55.0564 5.22003   9
   5  -5  -4 53.8162 8.87712  17
   5  -5  -4 58.6949 8.74136  18
   4  -5  -4 -3.6510 3.85084  17
   4  -5  -4 -0.4699 2.64253   9
   4  -5  -4 7.93770 13.0062   7
   4  -5  -4 3.74867 3.30614  18
   4  -5  -4 5.58906 2.66534  10
   3  -5  -4 11.6006 6.72821   3
   3  -5  -4 17.6144 3.41130  10
   3  -5  -4 15.5290 4.40740  17
   3  -5  -4 16.9033 2.49982   8
   3  -5  -4 9.25033 7.68439   7
   3  -5  -4 -1.4888 8.02690   2
   3  -5  -4 18.4740 3.54375   9
   2  -5  -4 -4.6860 7.09840   7
   2  -5  -4 3.54741 7.23225   2
   2  -5  -4 -4.1510 2.63213   9
   2  -5  -4 0.26131 4.58065   3
   2  -5  -4 -3.9652 2.99407  17
   2  -5  -4 2.51470 2.08101   8
   1  -5  -4 -4.6757 5.69207   2
   1  -5  -4 -2.3687 5.40951   7
   1  -5  -4 -1.1649 4.55056   3
   0  -5  -4 -2.5669 5.75500   2
   0  -5  -4 -1.6526 3.00233   3
   0   5   4 0.29405 3.16689   3
   0   5   4 3.97371 5.23676   2
  -1  -5  -4 285.030 23.4714   1
   1   5   4 333.537 27.8315   3
   1   5   4 333.020 26.4974   2
   1   5   4 292.536 23.3991   1
   1   5   4 360.624 26.2157   5
   2   5   4 3.86706 4.13577   5
   2   5   4 4.79363 3.37343   2
   2   5   4 10.3920 4.14003   3
   3   5   4 117.873 12.8578   3
   3   5   4 137.449 14.4845   5
   3   5   4 139.696 12.6865   2
   4   5   4 7.53757 3.68123   4
   4   5   4 10.6491 3.25389   3
   4   5   4 22.5472 4.68190   2
   4   5   4 11.0449 4.59337   5
   5   5   4 15.3507 6.00277   4
   5   5   4 19.0949 4.09096  12
   5   5   4 14.9369 2.88775  18
   5   5   4 16.5446 2.85620  11
   5   5   4 14.5998 4.06479  13
   5   5   4 11.4964 3.57205  14
   5   5   4 9.08296 1.63534  10
   5   5   4 21.7233 7.65157   5
   6   5   4 158.117 15.7784  14
   6   5   4 192.994 16.1814  12
   6   5   4 178.015 11.6835  10
   6   5   4 208.865 15.0129  11
   6   5   4 183.021 16.2451  13
   6   5   4 196.900 15.6278  18
   7   5   4 8.60222 2.73822  11
   7   5   4 7.02408 2.61612  18
   7   5   4 8.05130 3.25606  12
   7   5   4 6.41271 4.32169  13
   7   5   4 2.56392 2.63334  14
   8   5   4 2.25546 2.97107  11
   8   5   4 0.36941 2.07575  18
   8   5   4 -2.9966 2.78533  13
   8   5   4 2.25024 2.72190  12
   8   5   4 4.19800 3.30116  14
   9   5   4 9.66503 3.23640  12
   9   5   4 17.6440 3.83961  13
   9   5   4 12.2590 2.73906  11
   6  -6  -4 14.6969 3.55216  17
   6  -6  -4 8.29835 1.89370  10
   5  -6  -4 37.6959 6.13850  18
   5  -6  -4 48.9665 6.89942  17
   5  -6  -4 54.0548 5.42051  10
   5  -6  -4 43.9694 3.77014   9
   4  -6  -4 3.77048 4.45575  18
   4  -6  -4 6.03702 2.86723  10
   4  -6  -4 7.21842 2.30995   9
   4  -6  -4 2.91307 3.35064  17
   3  -6  -4 43.9640 7.53171  17
   3  -6  -4 51.0037 4.69590   8
   3  -6  -4 34.4746 5.68528  10
   3  -6  -4 26.1177 12.6014   2
   3  -6  -4 34.2845 11.9174   7
   3  -6  -4 47.6967 5.31262   9
   2  -6  -4 14.2056 4.44500  17
   2  -6  -4 11.1256 3.42456   9
   2  -6  -4 12.9746 9.93349   7
   2  -6  -4 5.10800 9.85160   2
   2  -6  -4 3.61901 7.41250   3
   2  -6  -4 10.1777 2.73182   8
   1  -6  -4 -0.9528 7.14999   7
   1  -6  -4 5.83866 1.99567   8
   1  -6  -4 3.33256 7.99693   2
   1   6   4 32.9892 7.60086   2
   1   6   4 17.7954 6.22864   3
   1   6   4 31.8187 7.75187   5
   2   6   4 227.076 22.7309   3
   2   6   4 240.287 21.7352   2
   2   6   4 270.617 22.6661   5
   3   6   4 33.7601 7.10091   3
   3   6   4 35.6531 7.19383   2
   3   6   4 21.6030 2.49882   8
   3   6   4 24.9625 6.64662   5
   4   6   4 141.368 13.2119  14
   4   6   4 160.191 15.6170   3
   4   6   4 159.988 10.8419   9
   4   6   4 138.038 12.8594  12
   4   6   4 155.773 17.2920   5
   4   6   4 162.778 10.7151  10
   4   6   4 146.078 13.4352  13
   4   6   4 166.958 12.3041  11
   4   6   4 160.455 14.6681   2
   5   6   4 68.3801 7.55935  12
   5   6   4 86.4231 8.96956  13
   5   6   4 63.5420 8.12549  14
   5   6   4 70.3283 7.06420   2
   5   6   4 75.6284 5.70127  10
   5   6   4 73.7604 5.12925   9
   5   6   4 83.1548 15.7069   5
   5   6   4 81.3637 7.39255  11
   5   6   4 71.5067 7.15097   3
   6   6   4 239.701 17.8462  11
   6   6   4 234.652 14.7649  10
   6   6   4 192.980 18.7355  14
   6   6   4 240.720 20.2759  13
   6   6   4 213.546 25.4569   5
   6   6   4 232.263 19.2637  12
   7   6   4 12.3994 4.29840  13
   7   6   4 12.3861 3.12961  11
   7   6   4 9.54147 3.47591  12
   8   6   4 21.1237 4.64031  13
   8   6   4 9.05792 2.79436  11
   8   6   4 13.4965 3.84385  12
   9   6   4 19.8630 4.56809  13
   9   6   4 35.1149 4.22598  11
   9   6   4 31.8748 4.94025  12
   5  -7  -4 56.0656 5.39402  10
   5  -7  -4 51.3832 7.84485  17
   4  -7  -4 33.5569 5.03618   9
   4  -7  -4 21.5863 4.72238  17
   4  -7  -4 24.2402 5.14586  18
   4  -7  -4 28.4851 4.13789  10
   3  -7  -4 121.863 10.3598   9
   3  -7  -4 122.715 10.1859  10
   3  -7  -4 141.002 9.26961   8
   3  -7  -4 126.417 13.1543  17
   2  -7  -4 3.40298 3.45328   9
   2  -7  -4 16.3037 10.0156   7
   2  -7  -4 1.32230 4.13510  17
   2  -7  -4 7.98444 2.81174   8
   2  -7  -4 12.5212 13.5425   2
   1  -7  -4 14.3020 2.86351   8
   1  -7  -4 12.4059 10.9745   7
   0  -7  -4 13.7743 8.92061   7
   0   7   4 21.0565 7.70048   5
   1   7   4 24.8467 3.79226   8
   1   7   4 15.5774 8.09752   2
   1   7   4 20.0017 7.02442   3
   1   7   4 37.6832 8.80454   5
   2   7   4 -1.5782 2.06788   9
   2   7   4 0.80137 1.65868   8
   2   7   4 -6.8048 4.95691   3
   2   7   4 4.71081 6.22634   2
   2   7   4 2.69272 5.91515   5
   3   7   4 38.1891 3.60483   8
   3   7   4 38.2671 4.51588   9
   3   7   4 38.0073 5.15105  13
   3   7   4 32.7030 8.21803   2
   3   7   4 43.7512 7.67681   3
   3   7   4 23.3361 8.63526   5
   3   7   4 26.9718 4.24181  10
   4   7   4 347.664 21.8713  10
   4   7   4 332.239 26.8400  13
   4   7   4 328.204 22.2554   9
   4   7   4 295.559 25.9873  12
   4   7   4 339.940 26.4747  14
   4   7   4 339.270 31.8525   5
   4   7   4 349.836 24.4161  11
   5   7   4 42.8475 4.14673  10
   5   7   4 39.3329 4.70778  11
   5   7   4 32.2638 6.38900  14
   5   7   4 42.1604 7.57170  13
   5   7   4 39.2643 5.53809  12
   5   7   4 37.2389 7.00455   3
   5   7   4 41.3525 3.72412   9
   5   7   4 28.5768 6.72691   2
   5   7   4 40.8742 12.5624   5
   6   7   4 -0.9742 3.43010  12
   6   7   4 2.41363 1.34215  10
   6   7   4 0.50296 13.8693   5
   6   7   4 -2.0833 2.61344  11
   6   7   4 6.27919 3.65431  13
   7   7   4 5.03091 2.99506  11
   7   7   4 6.46794 4.09119  12
   7   7   4 -1.1251 4.67124  13
   8   7   4 16.8160 3.72334  11
   8   7   4 10.9475 3.72136  12
   8   7   4 26.7556 5.50617  13
   9   7   4 1.26541 3.29095  13
   9   7   4 -2.5247 2.34261  12
   5  -8  -4 4.78945 1.53255  10
   5  -8  -4 3.39786 2.57478  17
   4  -8  -4 2.76831 2.18283   9
   4  -8  -4 6.14032 2.26128  10
   4  -8  -4 8.72908 4.48329  17
   3  -8  -4 26.7726 2.75287   8
   3  -8  -4 27.0142 4.40134  10
   3  -8  -4 24.3174 4.46112   9
   3  -8  -4 32.0766 5.38249  17
   3  -8  -4 29.6858 4.95792  18
   2  -8  -4 4.35489 2.55594   9
   2  -8  -4 3.42300 2.65341   8
   2  -8  -4 1.07288 3.19173  17
   1  -8  -4 50.4890 13.6242   7
   1  -8  -4 66.9062 6.27814   8
   0  -8  -4 51.4743 5.47890   8
   0  -8  -4 39.1370 13.2716   7
   0   8   4 64.9085 11.1768   5
   1   8   4 8.17529 8.02952   5
   1   8   4 1.37069 1.54865   8
   2   8   4 21.1773 3.52434   8
   2   8   4 6.72338 7.51779   3
   2   8   4 7.51977 8.84060   2
   2   8   4 15.9421 6.90053   5
   2   8   4 18.1997 3.59447   9
   3   8   4 15.6334 3.69354  13
   3   8   4 15.8209 9.04732   5
   3   8   4 16.3750 3.31461   9
   3   8   4 14.7281 7.93272   2
   3   8   4 6.93750 6.35562   3
   3   8   4 14.9575 2.63584  10
   3   8   4 14.1144 2.27253   8
   4   8   4 39.2076 6.76652  13
   4   8   4 32.1092 4.53638  11
   4   8   4 36.1025 4.43402   9
   4   8   4 35.9593 11.8154   5
   4   8   4 16.4183 7.50925   2
   4   8   4 29.6827 4.33884  10
   4   8   4 29.6677 4.89268  12
   4   8   4 16.9521 7.33233   3
   5   8   4 3.22643 3.06323  13
   5   8   4 1.22521 3.40250  12
   5   8   4 4.84262 1.91719   9
   5   8   4 2.81541 1.94676  11
   5   8   4 0.92848 1.80796  10
   5   8   4 9.93597 9.85998   5
   6   8   4 1.78721 2.61197  12
   6   8   4 4.13778 2.87773  11
   6   8   4 -1.5218 3.29364  13
   6   8   4 10.3139 2.00201  10
   7   8   4 320.007 23.5510  11
   7   8   4 298.003 25.6244  12
   7   8   4 333.909 27.4276  13
   8   8   4 2.91811 2.79628  12
   8   8   4 -0.3830 3.55369  13
   8   8   4 2.33487 2.84083  11
   9   8   4 114.275 10.1201  12
   4  -9  -4 37.0129 4.52972  10
   3  -9  -4 6.44400 2.87397   9
   3  -9  -4 3.49920 3.28003  10
   3  -9  -4 6.96964 4.22035  17
   2  -9  -4 3.74127 2.25547   8
   2  -9  -4 6.10877 3.39271   9
   2  -9  -4 8.85937 3.52358  17
   1  -9  -4 17.8033 3.17644   8
   0  -9  -4 22.7638 3.70747   8
   0   9   4 29.1677 4.05434   8
  -1  -9  -4 -9.9129 9.57983   7
   1   9   4 0.41840 1.57823   8
   1   9   4 4.09621 10.2891   5
   2   9   4 9.06198 3.27728   9
   2   9   4 3.69348 1.61834   8
   2   9   4 -9.4625 10.6534   5
   3   9   4 14.3849 9.05993   5
   3   9   4 -2.3452 2.38000  10
   3   9   4 3.78259 2.87611  13
   3   9   4 7.74467 1.98730   8
   3   9   4 5.42313 2.80946   9
   4   9   4 -1.8882 12.5845   5
   4   9   4 23.8932 3.69034   9
   4   9   4 29.5544 4.43328  10
   4   9   4 23.3856 4.66632  13
   5   9   4 3.88854 3.09727  13
   5   9   4 -0.9880 3.23295  12
   5   9   4 -0.0039 1.56840   9
   5   9   4 -1.7277 1.83354  10
   6   9   4 13.3490 4.26093  13
   6   9   4 4.08748 2.77757  12
   6   9   4 8.99679 1.84518  10
   7   9   4 23.1648 4.76990  12
   7   9   4 33.9173 6.08654  13
   8   9   4 121.733 10.2749  12
   8   9   4 100.533 10.9604  13
   2 -10  -4 3.89455 1.12530   8
   2 -10  -4 1.98006 2.79679  17
   2 -10  -4 9.64348 3.29812   9
   1 -10  -4 51.9527 5.86764   8
   1 -10  -4 38.0561 6.30244  17
   0 -10  -4 23.4797 3.64814   8
   0  10   4 31.1740 4.10313   8
   1  10   4 22.5387 3.61609   8
   2  10   4 18.9891 3.91907   9
   2  10   4 18.0511 4.70202  13
   2  10   4 20.7690 3.08222   8
   3  10   4 40.7852 3.84198   8
   3  10   4 49.8351 7.04503  13
   3  10   4 35.0757 5.09763   9
   3  10   4 32.4042 4.52719  10
   4  10   4 97.1166 8.10782   9
   4  10   4 86.4707 9.69864  13
   4  10   4 96.9895 8.14949  10
   5  10   4 54.2583 5.63078  10
   5  10   4 53.4954 7.32937  13
   6  10   4 0.96126 3.09546  12
   6  10   4 0.48969 1.65567  10
   6  10   4 0.67895 3.03414  13
   7  10   4 0.74259 4.62988  13
   7  10   4 2.24652 2.14844  12
   8  10   4 4.38237 2.09776  12
   8  10   4 4.57674 2.62683  13
   1 -11  -4 0.93280 1.19083   8
   1 -11  -4 2.33474 2.54943  17
   1 -11  -4 -0.7128 2.44518   9
  -1  11   4 -0.8773 1.57636   8
   0 -11  -4 183.061 12.1572   8
   0 -11  -4 148.152 13.9327  17
   0  11   4 170.040 11.4078   8
  -1 -11  -4 17.7082 3.36589   8
   1  11   4 29.5087 4.24953  13
   1  11   4 24.6280 3.23596   8
   2  11   4 5.23513 1.79008   8
   2  11   4 0.92867 3.23869  13
   2  11   4 4.51330 3.10731   9
   3  11   4 0.77003 3.32937  13
   3  11   4 1.32960 2.79906   9
   4  11   4 4.49326 1.94888  10
   4  11   4 7.56473 2.03687   9
   4  11   4 4.38068 3.59219  13
   5  11   4 12.3127 2.30736  10
   5  11   4 7.16413 3.15176  13
   6  11   4 37.7332 7.16222  13
   6  11   4 52.4159 4.39684  10
  -1 -12  -4 12.8100 2.81408   8
   1  12   4 7.36028 2.93940  13
   2  12   4 7.41974 2.28496  13
   3  12   4 -0.9190 1.89578  13
   4  12   4 3.97865 2.25509  13
   4  12   4 -0.4827 1.57014  10
   5  12   4 1.42867 2.13081  13
   4  11  -5 36.2514 3.02149   9
   4  11  -5 33.8944 4.25127  10
   3  11  -5 0.22965 2.23542  13
   3  11  -5 -2.7232 1.93151   9
   2  11  -5 74.1856 6.69862   9
   2  11  -5 90.3140 7.87200  13
   1  11  -5 -0.3535 1.37322   8
  -1 -11   5 1.40528 2.33485   8
   0  11  -5 2.21948 1.16763   8
   0 -11   5 2.13054 1.21791   8
   6  10  -5 -1.2006 1.15019  10
   6  10  -5 1.37723 2.26611  12
   5  10  -5 107.771 10.4838  12
   5  10  -5 110.793 8.02186  10
   4  10  -5 -0.4080 1.86678   9
   4  10  -5 1.20886 1.74386  10
   4  10  -5 -1.9957 2.21468  12
   3  10  -5 19.9891 3.92742  12
   3  10  -5 17.0534 4.54557  13
   3  10  -5 29.9091 3.65522   9
   2  10  -5 12.5299 2.19369   8
   2  10  -5 8.41040 2.51948   9
   1  10  -5 12.8036 2.18455   8
  -1 -10   5 6.13283 2.60571   8
   0  10  -5 4.27375 1.78151   8
   0 -10   5 2.59457 2.81540   8
  -1  10  -5 2.76818 1.60441   8
   1 -10   5 10.0000 2.73966   9
   1 -10   5 2.67413 1.36807   8
   2 -10   5 6.51758 2.58182  17
   2 -10   5 6.23210 2.66601   9
   7   9  -5 11.8178 3.14954  12
   6   9  -5 -0.8492 3.56417  12
   6   9  -5 1.25432 1.56735  10
   5   9  -5 16.6148 4.67117  12
   5   9  -5 20.5699 3.17815  10
   5   9  -5 17.0037 2.33436   9
   4   9  -5 164.055 15.7352  12
   4   9  -5 195.254 13.4057   9
   4   9  -5 197.994 13.5850  10
   3   9  -5 194.980 15.8962  12
   3   9  -5 182.639 13.5408   9
   3   9  -5 172.403 11.8702   8
   2   9  -5 17.2838 2.60808   8
   2   9  -5 15.7632 3.99779  12
   2   9  -5 17.1224 3.27096   9
   1   9  -5 20.2329 3.34053   8
   0   9  -5 -1.5766 1.61303   8
   0  -9   5 0.26544 3.02160   8
   1  -9   5 1.22931 1.80084   8
   2  -9   5 4.48307 1.54215   8
   2  -9   5 2.78061 2.58604   9
   3  -9   5 5.84318 2.87739  17
   3  -9   5 2.80807 1.71374   9
   7   8  -5 29.0638 5.53616  12
   7   8  -5 19.2998 3.70135  11
   6   8  -5 2.31240 2.61293  11
   6   8  -5 0.78434 1.09716  10
   6   8  -5 0.28835 4.14337  12
   5   8  -5 2.61621 2.91008  12
   5   8  -5 2.41488 1.51007   9
   5   8  -5 4.55643 1.66686  10
   4   8  -5 76.2063 6.95123  10
   4   8  -5 79.3669 9.18634  12
   4   8  -5 70.8854 6.68767   9
   3   8  -5 16.8564 3.37153   9
   3   8  -5 10.8670 2.62983  10
   3   8  -5 10.6006 2.23060   8
   3   8  -5 13.2372 4.00936  12
   2   8  -5 178.145 15.4295  12
   2   8  -5 175.670 13.2614   9
   2   8  -5 179.550 12.3546   8
   1   8  -5 49.5515 5.42730   8
   0   8  -5 2.34151 2.58884   8
   0  -8   5 1.03518 2.45417   8
   1  -8   5 1.80769 2.89778   8
   2  -8   5 -2.9457 3.21582   9
   2  -8   5 -0.1357 2.25204   8
   3  -8   5 2.60930 4.58297  17
   3  -8   5 2.08948 2.20170   9
   3  -8   5 4.47476 2.44126  10
   4  -8   5 17.7355 3.89719  17
   4  -8   5 20.6949 2.99223   9
   4  -8   5 22.7588 3.87867  10
   8   7  -5 11.1446 3.04616  11
   8   7  -5 9.50513 4.21880  12
   7   7  -5 -2.1722 3.33619  12
   7   7  -5 0.21819 3.12317  11
   6   7  -5 11.0828 3.10713  11
   6   7  -5 10.3198 5.30878  12
   6   7  -5 9.88908 2.08164  10
   6   7  -5 18.1765 3.35980  18
   5   7  -5 119.546 12.2957  12
   5   7  -5 110.220 10.0806  11
   5   7  -5 111.868 8.27142   9
   5   7  -5 114.462 8.77293  10
   4   7  -5 0.48567 1.48508  10
   4   7  -5 3.55646 8.81408   4
   4   7  -5 1.66405 1.98282   9
   4   7  -5 2.34376 3.60989  12
   3   7  -5 20.3956 3.07827   8
   3   7  -5 22.7431 4.50307  12
   3   7  -5 13.8384 9.15222   2
   3   7  -5 21.7465 3.54009  10
   3   7  -5 5.08814 7.56152   3
   3   7  -5 17.2431 8.41297   4
   3   7  -5 24.8802 4.19094   9
   2   7  -5 10.9450 9.28807   2
   2   7  -5 9.59587 3.13866   9
   2   7  -5 7.48295 2.21018   8
   2   7  -5 6.02958 5.93294   3
   1   7  -5 5.47743 2.20586   8
   1  -7   5 -2.2232 1.96327   8
   2  -7   5 45.7217 4.63567   8
   2  -7   5 31.7289 6.45966  16
   2  -7   5 18.2724 12.8408   7
   2  -7   5 42.0779 7.01795   9
   3  -7   5 -2.6972 2.98599   9
   3  -7   5 3.93385 3.32000  16
   3  -7   5 2.14917 3.18021  10
   3  -7   5 0.62785 1.71650   8
   4  -7   5 13.1729 3.04793   9
   4  -7   5 15.4765 4.28501  17
   4  -7   5 6.65073 4.82735  16
   4  -7   5 17.1567 3.09856  10
   5  -7   5 0.74038 2.60099  16
   5  -7   5 6.14613 2.47495  10
   5  -7   5 1.62718 2.68978  17
   8   6  -5 -0.2802 2.75371  12
   8   6  -5 2.64257 2.24896  18
   8   6  -5 -1.0942 2.11266  11
   7   6  -5 6.49911 5.09812  12
   7   6  -5 3.87788 2.48258  11
   7   6  -5 2.82756 3.24570  18
   6   6  -5 14.6361 3.17189  18
   6   6  -5 3.04422 3.33880  11
   6   6  -5 9.84508 4.22901  12
   6   6  -5 6.42402 1.81884  10
   5   6  -5 134.901 12.5107  11
   5   6  -5 168.279 15.0586  12
   5   6  -5 154.422 10.5087   9
   5   6  -5 118.825 18.9224   4
   5   6  -5 148.059 12.9288  18
   5   6  -5 148.106 10.7163  10
   4   6  -5 92.1398 8.97664  12
   4   6  -5 66.2704 12.0923   3
   4   6  -5 70.6065 12.0190   4
   4   6  -5 68.1245 7.71716  11
   4   6  -5 89.5014 6.91712  10
   4   6  -5 80.6146 12.2032   2
   4   6  -5 82.1241 7.69850  18
   4   6  -5 82.4206 6.76774   9
   3   6  -5 35.7016 8.09007   4
   3   6  -5 30.3867 4.55059   9
   3   6  -5 39.7221 8.26270   3
   3   6  -5 39.9043 4.04495  10
   3   6  -5 37.3759 3.55491   8
   3   6  -5 47.4448 9.88123   2
   2   6  -5 11.2072 6.99168   2
   2   6  -5 5.70766 2.61703   9
   2   6  -5 7.90652 1.66756   8
   2   6  -5 4.94672 5.46411   4
   2   6  -5 9.28304 6.47514   3
   1   6  -5 81.6456 6.57704   8
   1  -6   5 0.51679 1.96169   8
   2  -6   5 8.19712 6.52166   3
   2  -6   5 26.9551 9.84460   2
   2  -6   5 19.3628 3.63198   9
   2  -6   5 17.9376 3.00508   8
   2  -6   5 14.1398 4.11352  16
   3  -6   5 729.029 44.6209   8
   3  -6   5 786.100 64.3376   7
   3  -6   5 688.036 46.3933  10
   3  -6   5 710.995 47.4564   9
   4  -6   5 -2.9394 2.55823   9
   4  -6   5 0.49552 4.88374  17
   4  -6   5 1.38700 3.12190  16
   4  -6   5 0.77131 1.92322  10
   5  -6   5 2.51751 1.76338  10
   5  -6   5 2.67984 3.24974  16
   5  -6   5 6.53104 3.62760  17
   6  -6   5 3.12119 1.54324  10
   6  -6   5 2.17158 2.60495  17
   6  -6   5 2.29457 2.79716  16
   8   5  -5 162.262 13.2896  11
   8   5  -5 159.971 13.5842  18
   7   5  -5 13.5902 4.06439  11
   7   5  -5 10.0621 3.88439  18
   7   5  -5 9.82720 5.36887  12
   6   5  -5 5.11412 2.55085  11
   6   5  -5 4.44080 1.55805  10
   6   5  -5 2.35307 3.19056  18
   6   5  -5 0.90700 3.18975  12
   5   5  -5 2.61784 2.15137  11
   5   5  -5 6.31433 5.04178   3
   5   5  -5 4.02989 2.79922  18
   5   5  -5 1.23768 1.33016   9
   5   5  -5 4.26750 5.50812   4
   5   5  -5 0.64965 1.57782  10
   5   5  -5 -0.4184 5.01003   2
   5   5  -5 3.47229 4.24294  12
   4   5  -5 20.0409 8.23126   4
   4   5  -5 24.6776 6.69536   3
   4   5  -5 28.4255 4.96923  12
   4   5  -5 22.9556 3.27876   9
   4   5  -5 23.5470 3.41362  10
   4   5  -5 26.1708 6.60550   2
   4   5  -5 25.5416 4.44018  11
   4   5  -5 20.5971 3.52263  18
   3   5  -5 12.6418 2.20064  10
   3   5  -5 14.8240 2.59949   9
   3   5  -5 9.08917 6.24884   4
   3   5  -5 8.58158 2.31100  11
   3   5  -5 11.1882 1.74825   8
   3   5  -5 10.0645 5.66785   2
   3   5  -5 20.4963 6.87720   3
   2   5  -5 5.94318 4.90240   3
   2   5  -5 9.59956 1.70893   8
   2   5  -5 9.67524 5.25710   4
   2   5  -5 16.7684 6.16036   2
   1   5  -5 34.9752 7.80763   3
   1   5  -5 25.5865 5.75496   4
   1   5  -5 37.5970 8.47484   2
   1  -5   5 11.3347 2.49817   8
   1  -5   5 14.4873 5.79330   3
   1  -5   5 12.3022 8.46428   2
   2  -5   5 14.9534 3.05645   8
   2  -5   5 15.2784 7.47085   2
   2  -5   5 21.2412 9.89025   6
   2  -5   5 10.3640 5.64112   3
   2  -5   5 16.9201 3.34135   9
   3  -5   5 92.5740 15.6073   3
   3  -5   5 127.504 12.2000  16
   3  -5   5 120.794 8.97143   8
   3  -5   5 83.6554 17.3523   6
   3  -5   5 179.604 25.3660   7
   3  -5   5 125.582 10.2967  10
   3  -5   5 139.319 10.5098   9
   4  -5   5 0.51464 2.75018  10
   4  -5   5 -2.7024 4.85801  17
   4  -5   5 -3.4663 4.25693  16
   4  -5   5 8.59317 13.1867   6
   4  -5   5 1.07874 2.45284   9
   5  -5   5 19.7619 3.70288  10
   5  -5   5 22.5926 6.18174  17
   5  -5   5 24.7874 3.35194   9
   5  -5   5 17.1939 4.72571  16
   6  -5   5 10.3825 1.87044  10
   6  -5   5 2.14815 3.42235  16
   6  -5   5 11.8100 3.98196  17
   7  -5   5 4.12002 2.55403  16
   9   4  -5 4.20357 1.99164  18
   8   4  -5 10.9309 3.18351  18
   8   4  -5 14.4751 3.65535  11
   7   4  -5 79.2129 9.14102  17
   7   4  -5 77.8611 8.76624  18
   7   4  -5 62.6672 8.38227  12
   7   4  -5 87.9968 8.25207  11
   6   4  -5 22.5426 5.69831  12
   6   4  -5 25.2756 4.49997  11
   6   4  -5 21.4062 2.73966  10
   6   4  -5 30.3607 5.35920  18
   6   4  -5 16.2018 9.01852   4
   6   4  -5 27.9551 5.04367  17
   5   4  -5 265.386 17.3112   9
   5   4  -5 270.937 20.8029   2
   5   4  -5 253.050 25.6367   4
   5   4  -5 269.621 22.0508  12
   5   4  -5 300.875 21.4387  17
   5   4  -5 245.547 20.2430  11
   5   4  -5 265.371 17.3591  10
   5   4  -5 245.050 21.9750   3
   5   4  -5 251.008 21.3428  18
   4   4  -5 57.0190 8.67980   3
   4   4  -5 51.7236 10.0525   4
   4   4  -5 54.5605 6.42923  12
   4   4  -5 54.8436 4.32386  10
   4   4  -5 47.8191 5.77777  11
   4   4  -5 44.5856 4.39173   9
   4   4  -5 37.1135 5.54143  18
   4   4  -5 52.8341 8.63184   2
   4   4  -5 56.8007 6.40596  17
   3   4  -5 2.14430 4.06100   2
   3   4  -5 4.38584 1.28961   8
   3   4  -5 1.76307 3.20232   3
   3   4  -5 3.69177 3.23223   4
   2   4  -5 7.39520 4.98057   2
   2   4  -5 13.4238 5.07918   3
   2   4  -5 11.1993 4.84329   4
   1   4  -5 102.118 9.75808   4
   1   4  -5 94.9410 11.6813   2
   1   4  -5 84.6838 10.3979   1
   1   4  -5 98.6733 11.8567   3
   0   4  -5 33.0984 6.41951   3
   0   4  -5 18.5940 6.39960   2
   0   4  -5 18.8739 4.13591   4
   0  -4   5 23.4075 5.89292   6
   0  -4   5 26.1912 6.19200   3
   0  -4   5 22.6446 8.20256   2
   1  -4   5 2.21545 5.55088   6
   1  -4   5 4.49584 6.36662   2
   1  -4   5 -0.3251 4.00575   3
   2  -4   5 191.081 17.2580   3
   2  -4   5 146.755 18.4665   6
   2  -4   5 165.055 17.2408   2
   2  -4   5 148.282 11.0840   8
   3  -4   5 29.9988 10.4349   6
   3  -4   5 19.0462 3.12953   8
   3  -4   5 17.4085 3.48999  10
   3  -4   5 16.2506 7.83144   2
   3  -4   5 14.4770 7.92114   7
   3  -4   5 29.3646 5.56184  16
   3  -4   5 23.4375 6.65521   3
   3  -4   5 22.2210 3.69535   9
   4  -4   5 40.5366 16.2152   7
   4  -4   5 58.1932 9.43509  16
   4  -4   5 73.5951 13.3207   2
   4  -4   5 70.9144 6.49134  10
   4  -4   5 64.7729 6.08415   9
   4  -4   5 61.5191 9.07947  17
   4  -4   5 58.0436 8.26240  15
   4  -4   5 48.0151 9.75299   3
   4  -4   5 51.1308 15.5208   6
   5  -4   5 -2.0196 4.29672  16
   5  -4   5 1.45725 2.48232  10
   5  -4   5 -4.8831 4.11855  17
   5  -4   5 -0.3627 1.80544   9
   5  -4   5 -2.2018 4.00483  15
   6  -4   5 93.2778 10.8238  16
   6  -4   5 95.0641 11.3987  17
   6  -4   5 103.105 10.0190  15
   6  -4   5 94.5596 7.55988  10
   7  -4   5 10.1125 3.70054  16
   7  -4   5 5.47640 2.94546  15
   7  -4   5 5.79635 3.24902  17
   9   3  -5 21.8926 3.82045  18
   8   3  -5 11.2861 3.24873  18
   8   3  -5 10.6720 3.24026  17
   8   3  -5 8.93766 4.46347  11
   7   3  -5 13.0697 3.70055  11
   7   3  -5 11.9704 4.28569  17
   7   3  -5 11.5923 4.18477  18
   6   3  -5 54.5540 7.50984  11
   6   3  -5 39.3648 7.34526  12
   6   3  -5 58.6116 4.34431  10
   6   3  -5 49.8837 7.16227  17
   6   3  -5 57.3862 6.55652  18
   6   3  -5 47.3023 11.4862   4
   5   3  -5 504.022 39.9132  12
   5   3  -5 440.310 32.9624   9
   5   3  -5 524.631 42.1854   4
   5   3  -5 524.606 39.5533   3
   5   3  -5 538.321 37.6418  11
   5   3  -5 550.778 36.6678   2
   5   3  -5 547.281 39.3568  17
   5   3  -5 505.628 39.6342  18
   5   3  -5 540.884 32.6932  10
   4   3  -5 90.7104 6.71960  10
   4   3  -5 75.7493 9.13498  12
   4   3  -5 93.3381 8.16590  17
   4   3  -5 104.443 10.6442   3
   4   3  -5 102.519 10.6000   2
   4   3  -5 84.5298 8.14607  18
   4   3  -5 101.959 12.6748   4
   4   3  -5 84.5816 6.59921   9
   4   3  -5 92.0458 8.30702  11
   3   3  -5 16.3534 5.74535   4
   3   3  -5 18.5389 5.25362   3
   3   3  -5 28.2136 5.75261   2
   2   3  -5 94.4581 10.3314   4
   2   3  -5 85.2010 10.6910   2
   2   3  -5 99.6469 10.9955   3
   1   3  -5 16.3109 3.85488   1
   1   3  -5 15.8570 4.72831   1
   1   3  -5 29.9703 5.73535   2
   1   3  -5 25.1842 5.71753   3
   1   3  -5 31.0761 5.50204   4
  -1  -3   5 19.3279 4.69093   1
  -1  -3   5 18.6663 4.69596   1
  -1  -3   5 26.3006 4.83858   6
   0   3  -5 35.9787 6.13249   2
   0   3  -5 26.8871 5.60308   1
   0   3  -5 25.6711 4.52856   4
   0   3  -5 34.1967 6.68357   3
   0   3  -5 29.9011 4.92534   1
   0  -3   5 27.6871 6.32009   2
   0  -3   5 24.7401 5.87138   6
   0  -3   5 33.9619 5.79678   1
   0  -3   5 23.7625 4.85020   1
   0  -3   5 37.7389 6.84051   3
  -1   3  -5 44.3844 7.45424   1
   1  -3   5 71.9716 8.74545   3
   1  -3   5 52.4001 9.51714   2
   1  -3   5 46.9198 7.75056   1
   1  -3   5 56.1564 8.23342   6
   2  -3   5 1711.77 117.802   2
   2  -3   5 1662.50 126.367   3
   2  -3   5 1648.67 122.381   6
   3  -3   5 12.6965 4.08325   3
   3  -3   5 8.96764 4.69387   2
   3  -3   5 -3.8270 6.44593   6
   3  -3   5 -2.9569 5.94226   7
   3  -3   5 3.87106 1.76143   9
   3  -3   5 2.17351 3.75217  16
   3  -3   5 1.13330 1.46691   8
   4  -3   5 -5.5999 5.05291   2
   4  -3   5 4.16704 6.44510   6
   4  -3   5 6.73128 4.32429   3
   4  -3   5 -3.5675 8.48465   7
   4  -3   5 4.30966 2.61148  15
   4  -3   5 0.68930 2.71486  14
   4  -3   5 7.95851 4.49946  16
   4  -3   5 3.97706 2.05254   9
   4  -3   5 3.35097 2.67142  17
   4  -3   5 6.95659 2.46983  10
   5  -3   5 3.28584 1.66445   9
   5  -3   5 0.86658 2.24803  14
   5  -3   5 3.50130 3.35398  16
   5  -3   5 2.34083 2.15410  10
   5  -3   5 4.72331 11.9123   6
   5  -3   5 2.05984 6.26649   2
   5  -3   5 1.58390 4.07043  15
   5  -3   5 5.94983 3.91111  17
   5  -3   5 -0.5299 3.91004   3
   6  -3   5 27.5419 3.51833  10
   6  -3   5 25.9827 5.18670  15
   6  -3   5 22.3640 5.73425  17
   6  -3   5 20.3411 6.47616  16
   7  -3   5 3.19111 4.33194  17
   7  -3   5 8.09216 3.60486  15
   7  -3   5 8.93848 4.00514  16
   8  -3   5 0.79857 4.09787  16
   8  -3   5 0.42369 2.33682  15
   9   2  -5 3.03287 2.20262  18
   8   2  -5 62.8487 7.26687  11
   8   2  -5 65.8669 7.60251  18
   8   2  -5 82.5829 8.46009  17
   7   2  -5 6.35426 3.75251  17
   7   2  -5 -0.5764 2.39945  18
   7   2  -5 -0.3007 2.61249  11
   6   2  -5 5.40495 3.85071  11
   6   2  -5 6.34971 3.62202  18
   6   2  -5 8.72312 1.50083  10
   6   2  -5 7.92411 2.85156  17
   6   2  -5 13.9547 8.55940   7
   6   2  -5 -9.6628 10.2376   4
   5   2  -5 1.82489 2.23370  18
   5   2  -5 3.40497 2.25694  11
   5   2  -5 1.10173 0.62847   9
   5   2  -5 1.86137 4.59132   4
   5   2  -5 -1.7315 7.46564   7
   5   2  -5 1.05666 1.31478  10
   5   2  -5 0.02303 1.97436   3
   5   2  -5 0.57989 2.31965  16
   5   2  -5 -0.1811 1.97933  17
   4   2  -5 3.59630 2.99225  16
   4   2  -5 3.43574 2.47536  11
   4   2  -5 2.24884 1.43986  10
   4   2  -5 -4.3546 3.75788   7
   4   2  -5 2.43399 2.72984   3
   4   2  -5 0.66500 5.12351   4
   4   2  -5 1.07230 1.52006   9
   4   2  -5 2.42599 2.01569  18
   4   2  -5 1.12753 1.86268  17
   4   2  -5 5.89165 3.81736   2
   3   2  -5 131.891 13.4378   7
   3   2  -5 135.098 12.7877   3
   3   2  -5 107.651 12.0831   4
   3   2  -5 123.599 12.2286   2
   2   2  -5 1621.83 114.598   3
   2   2  -5 1291.34 95.2623   1
   2   2  -5 1642.82 105.891   2
   2   2  -5 1625.10 104.416   4
   2   2  -5 1481.91 95.2711   1
  -2  -2   5 1479.77 95.4729   1
   1   2  -5 5.79130 2.48932   1
   1   2  -5 0.46183 2.77789   2
   1   2  -5 1.12277 3.32156   3
   1   2  -5 0.78815 2.82829   4
   1   2  -5 5.63777 3.22656   1
  -1  -2   5 -1.1252 3.05912   2
  -1  -2   5 2.87175 2.42122   1
  -1  -2   5 -1.7879 3.11016   3
  -1  -2   5 6.29406 3.05099   1
   0   2  -5 12.6855 4.84505   2
   0   2  -5 19.0073 4.11870   1
   0   2  -5 16.2496 3.92365   3
   0   2  -5 13.6970 3.51062   4
   0   2  -5 19.6949 3.87301   1
   0  -2   5 20.3349 5.51861   2
   0  -2   5 10.5479 4.18114   6
   0  -2   5 12.6969 3.01279   1
   0  -2   5 9.36916 3.27067   3
   0  -2   5 9.45416 3.85164   1
  -1   2  -5 233.740 18.3306   1
  -1   2  -5 208.920 20.2021   2
  -1   2  -5 260.654 21.6572   3
  -1   2  -5 241.621 18.1756   1
   1  -2   5 222.555 17.7396   1
   1  -2   5 304.485 22.3069   6
   1  -2   5 288.174 21.7931   2
   1  -2   5 259.095 21.4844   3
   1  -2   5 247.399 18.7834   1
   2  -2   5 159.914 13.9071   1
   2  -2   5 147.531 17.1311   6
   2  -2   5 174.785 15.8665   2
   2  -2   5 169.747 15.4044   3
   3  -2   5 26.9652 5.67927   3
   3  -2   5 31.5577 9.01126   6
   3  -2   5 29.4757 6.61179   2
   3  -2   5 34.7288 7.30435   7
   4  -2   5 12.7137 4.70909   2
   4  -2   5 5.88827 6.62458   7
   4  -2   5 12.3817 8.90455   6
   4  -2   5 10.6635 2.08691   9
   4  -2   5 9.69431 3.40521  16
   4  -2   5 7.70152 4.12265   3
   4  -2   5 13.7942 3.39666  14
   4  -2   5 9.76398 2.23715  10
   4  -2   5 8.95395 2.99336  15
   5  -2   5 268.424 22.9073  17
   5  -2   5 289.633 20.9989   2
   5  -2   5 296.296 31.8394   6
   5  -2   5 280.131 23.7630  15
   5  -2   5 264.291 18.3282   9
   5  -2   5 312.442 24.2625  16
   5  -2   5 287.961 18.7681  10
   5  -2   5 272.336 22.1149   3
   5  -2   5 331.833 23.1056  14
   6  -2   5 3.18590 1.50453  10
   6  -2   5 7.12571 4.62256  15
   6  -2   5 -1.3106 13.7961   6
   6  -2   5 -1.6109 3.60586  17
   6  -2   5 3.68163 3.52012  14
   6  -2   5 -1.9821 3.13162  16
   7  -2   5 -0.0414 4.71879  15
   7  -2   5 3.35178 2.87822  17
   7  -2   5 6.42116 4.91340  16
   8  -2   5 22.6031 4.29638  15
   8  -2   5 20.6415 4.81497  16
   8   1  -5 69.9302 7.74545  17
   8   1  -5 82.0195 8.34724  18
   7   1  -5 84.2398 9.82381  18
   7   1  -5 86.8823 9.41067  11
   7   1  -5 80.3803 9.51741  17
   6   1  -5 258.007 21.9401  18
   6   1  -5 263.019 17.1755  10
   6   1  -5 293.163 22.3685  16
   6   1  -5 266.688 21.5967  17
   6   1  -5 230.742 30.0824   7
   6   1  -5 259.440 21.0669  11
   5   1  -5 5.43939 2.45198  17
   5   1  -5 9.02624 2.98806  16
   5   1  -5 6.69161 7.85382   7
   5   1  -5 7.29946 3.35001  18
   5   1  -5 7.71622 7.24496   4
   5   1  -5 5.20485 1.55193  10
   5   1  -5 9.28946 3.30634  11
   4   1  -5 24.9469 6.91533   4
   4   1  -5 27.9654 5.18686   3
   4   1  -5 22.7070 7.53062   7
   4   1  -5 16.2629 4.10487  18
   4   1  -5 20.1398 2.82121   9
   4   1  -5 20.0387 3.97887  11
   4   1  -5 24.0992 4.16980  16
   4   1  -5 25.6162 2.88568  10
   4   1  -5 18.9278 5.03643   2
   3   1  -5 120.488 13.5259   7
   3   1  -5 125.246 12.7038   4
   3   1  -5 116.298 11.7926   2
   3   1  -5 115.694 11.6587   3
   2   1  -5 53.8974 7.45626   2
   2   1  -5 44.3869 6.92179   4
   2   1  -5 47.1938 6.09047   1
   2   1  -5 48.3782 7.04998   3
   2   1  -5 44.3465 7.59477   7
  -2  -1   5 38.4163 5.61803   1
  -2  -1   5 42.1096 5.58372   1
   1   1  -5 112.652 9.33307   1
   1   1  -5 120.524 11.4369   3
   1   1  -5 125.168 11.1774   7
   1   1  -5 104.592 9.43069   1
   1   1  -5 119.310 10.6920   2
  -1  -1   5 109.447 11.1230   3
  -1  -1   5 109.354 9.53384   1
  -1  -1   5 100.912 9.42347   1
  -1  -1   5 90.6351 10.4642   2
   0   1  -5 12.8274 3.95005   1
   0   1  -5 11.9441 3.55960   1
   0   1  -5 7.66845 3.80972   3
   0   1  -5 8.58878 4.41751   2
   0  -1   5 4.00915 4.29338   2
   0  -1   5 8.55892 3.17300   1
   0  -1   5 12.1192 3.72899   1
   0  -1   5 10.6519 3.59363   3
  -1   1  -5 -0.3785 2.28951   3
  -1   1  -5 -0.4869 2.06189   1
  -1   1  -5 -0.8252 1.92780   1
  -1   1  -5 -0.6135 2.49892   2
   1  -1   5 -1.9591 2.16078   2
   1  -1   5 -4.9830 3.77707   6
   1  -1   5 2.81511 2.09987   3
   1  -1   5 2.40151 2.20533   1
   1  -1   5 1.19360 1.65715   1
  -2   1  -5 35.5062 5.22183   1
  -2   1  -5 44.0472 6.22032   1
   2  -1   5 44.8896 7.40999   6
   2  -1   5 39.0858 5.20819   1
   2  -1   5 44.6881 6.14149   3
   2  -1   5 36.3761 6.98933   2
   2  -1   5 50.1331 6.06277   1
   3  -1   5 13.4045 4.24939   2
   3  -1   5 8.43232 2.98707   3
   3  -1   5 1.74900 4.25859   6
   3  -1   5 8.08698 3.79688   7
   4  -1   5 118.482 10.8890   2
   4  -1   5 79.4093 11.4899   7
   4  -1   5 119.259 10.3419   3
   4  -1   5 99.1561 14.0685   6
   5  -1   5 -0.7318 8.75685   6
   5  -1   5 0.82628 3.50530  16
   5  -1   5 -0.0735 2.59400  17
   5  -1   5 1.13775 2.05803  14
   5  -1   5 1.77758 1.39060  10
   5  -1   5 -1.0295 2.72549  13
   5  -1   5 0.97846 3.28528  15
   6  -1   5 436.546 35.1064  15
   6  -1   5 429.031 27.0809  10
   6  -1   5 443.562 34.4045  16
   6  -1   5 379.462 33.1772  17
   6  -1   5 413.368 42.2197   6
   6  -1   5 474.169 33.5974  14
   7  -1   5 17.9964 4.81804  14
   7  -1   5 19.4515 4.72488  15
   7  -1   5 11.0733 4.18012  17
   7  -1   5 17.6968 4.55003  16
   8  -1   5 93.5738 10.4639  16
   8  -1   5 95.8670 10.8517  15
   9  -1   5 6.80295 3.94667  16
   9  -1   5 2.62934 2.35294  15
   8   0  -5 1.70792 3.69381  17
   8   0  -5 -0.8959 2.88004  18
   7   0  -5 -1.1589 3.48642  17
   7   0  -5 3.20354 4.28465  16
   7   0  -5 1.30238 2.62676  18
   6   0  -5 76.4349 7.67729  16
   6   0  -5 56.1807 13.4882   7
   6   0  -5 51.0265 7.34794  11
   6   0  -5 55.3409 7.04474  17
   6   0  -5 62.9718 5.10362  10
   6   0  -5 64.0931 8.32752  18
   5   0  -5 366.064 33.7463   7
   5   0  -5 362.932 26.9106  11
   5   0  -5 346.207 28.5620  18
   5   0  -5 344.492 22.9717   9
   5   0  -5 336.818 30.9487   4
   5   0  -5 358.886 23.0586  10
   5   0  -5 342.311 28.1645  17
   5   0  -5 396.784 28.4029  16
   5   0  -5 373.483 25.6247   2
   4   0  -5 2.84999 2.90210  16
   4   0  -5 2.45221 5.25683   4
   4   0  -5 6.19067 2.33430  18
   4   0  -5 3.93675 4.61635   7
   4   0  -5 4.67467 1.60348  10
   4   0  -5 10.6485 4.44296   2
   4   0  -5 8.32346 3.42813   3
   4   0  -5 5.12135 1.48729   9
   3   0  -5 151.977 16.9347   7
   3   0  -5 184.986 15.5065   2
   3   0  -5 162.981 15.2929   3
   3   0  -5 178.139 15.8462   4
   2   0  -5 5.49700 3.05802   7
   2   0  -5 1.55409 2.67955   1
   2   0  -5 0.23855 2.27883   1
   2   0  -5 6.72273 3.78555   2
   2   0  -5 2.94014 3.03118   3
  -2   0   5 1.96517 2.91313   1
  -2   0   5 4.65425 2.71047   1
   1   0  -5 22.8107 4.15087   7
   1   0  -5 18.8680 4.60151   3
   1   0  -5 20.3140 5.01228   2
   1   0  -5 25.4308 4.31409   1
   1   0  -5 12.2254 3.44926   1
  -1   0   5 14.0497 4.02441   3
  -1   0   5 13.6933 4.57241   2
  -1   0   5 15.9697 3.72409   1
  -1   0   5 20.1807 3.84187   1
   0   0  -5 75.4750 7.00948   1
   0   0  -5 79.7007 8.88028   3
   0   0  -5 84.3307 8.45681   2
   0   0  -5 91.9486 8.26880   1
   0   0   5 66.7324 6.90898   1
   0   0   5 73.4091 8.16492   2
   0   0   5 91.7427 7.60366   1
   0   0   5 73.4644 8.43368   3
  -1   0  -5 395.290 25.1046   1
  -1   0  -5 333.211 27.4274   2
  -1   0  -5 336.482 29.2788   3
  -1   0  -5 366.285 24.6121   1
   1   0   5 379.538 27.6739   2
   1   0   5 392.454 27.7933   5
   1   0   5 374.698 24.7743   1
   1   0   5 380.447 29.1596   3
   1   0   5 355.747 24.4235   1
  -2   0  -5 4.18198 2.66555   1
  -2   0  -5 -1.5709 2.05246   1
   2   0   5 -1.7067 2.43378   3
   2   0   5 1.53355 2.18727   3
   2   0   5 -0.0409 4.37785   6
   2   0   5 -2.3148 2.28542   1
   2   0   5 3.91252 3.68454   5
   2   0   5 -0.7655 1.44073   7
   2   0   5 -0.8530 2.87430   2
   2   0   5 -1.6501 1.68854   1
   2   0   5 3.17190 2.67945   2
  -3   0  -5 3.06991 2.35927   1
   3   0   5 6.93268 2.82835   1
   3   0   5 3.21091 1.97366   1
   3   0   5 2.16744 3.37757   2
   3   0   5 1.88196 2.05640   7
   3   0   5 6.22737 2.59381   2
   3   0   5 3.47400 2.97594   3
   3   0   5 1.75536 4.34681   5
   3   0   5 6.25630 2.45369   3
   3   0   5 0.69752 3.86912   6
   4   0   5 52.5558 10.6168   6
   4   0   5 53.8584 5.46211   3
   4   0   5 35.0745 5.33923   2
   4   0   5 54.3339 5.87759   3
   4   0   5 48.4754 5.93185   2
   5   0   5 149.189 13.0171  14
   5   0   5 139.648 13.2629  15
   5   0   5 139.833 19.1967   6
   5   0   5 146.736 9.76551  10
   5   0   5 128.994 13.3544  16
   5   0   5 150.696 12.5362  12
   5   0   5 165.295 12.9033  13
   6   0   5 28.1864 10.1846   6
   6   0   5 24.2004 4.68534  14
   6   0   5 22.3101 1.93379  10
   6   0   5 26.5838 5.53224  15
   6   0   5 18.5190 4.18228  17
   6   0   5 21.2044 4.32450  16
   6   0   5 30.4543 4.57371  13
   7   0   5 -0.5047 4.08465  15
   7   0   5 -3.3793 3.10234  17
   7   0   5 2.61342 2.51552  14
   7   0   5 -0.3286 2.82714  16
   8   0   5 274.339 23.0869  16
   8   0   5 301.373 22.3947  14
   8   0   5 253.842 23.6370  15
   9   0   5 132.761 12.1618  16
   9   0   5 135.811 12.0941  15
   8  -1  -5 2.79963 2.89256  18
   8  -1  -5 3.21648 3.56801  17
   7  -1  -5 3.57240 3.70669  17
   7  -1  -5 2.10075 2.95391  18
   7  -1  -5 -1.0860 2.77059  16
   6  -1  -5 0.70640 2.86265  18
   6  -1  -5 1.01962 1.36582  10
   6  -1  -5 2.82269 2.74270  17
   6  -1  -5 -2.6091 12.8032   7
   6  -1  -5 2.90636 2.88853  16
   5  -1  -5 7.91937 2.00248  10
   5  -1  -5 2.04032 3.24289  17
   5  -1  -5 9.12502 7.22965   7
   5  -1  -5 4.73850 3.78885  18
   5  -1  -5 7.31680 1.40977   9
   5  -1  -5 2.10989 3.51918   3
   5  -1  -5 0.17835 4.13134   2
   5  -1  -5 3.65617 2.97837  11
   5  -1  -5 5.67526 3.53556  16
   4  -1  -5 3.88691 1.71818  10
   4  -1  -5 -1.5669 6.12295   7
   4  -1  -5 0.61298 1.42011   9
   4  -1  -5 0.63419 1.93989  17
   4  -1  -5 4.07207 4.34866   2
   4  -1  -5 5.70989 3.36340   3
   4  -1  -5 8.15573 5.60704   4
   4  -1  -5 5.26156 2.40722  18
   4  -1  -5 1.05996 2.88058  16
   3  -1  -5 35.0794 6.65230   2
   3  -1  -5 27.9264 5.58370   3
   3  -1  -5 24.5712 6.13570   7
   3  -1  -5 32.4681 6.01778   4
   2  -1  -5 260.578 21.2980   3
   2  -1  -5 254.549 21.9639   7
   2  -1  -5 282.419 20.7743   2
   2  -1  -5 243.528 18.3376   1
  -2   1   5 236.123 18.2066   1
  -2   1   5 232.778 18.3853   1
   1  -1  -5 21.3235 4.17550   1
   1  -1  -5 29.0920 5.61891   7
   1  -1  -5 28.6033 5.67491   3
   1  -1  -5 28.9030 5.20549   2
   1  -1  -5 30.9299 4.42588   1
  -1   1   5 20.7441 4.51733   2
  -1   1   5 30.7608 4.31267   1
  -1   1   5 33.3848 4.87690   1
  -1   1   5 29.5683 5.28981   3
   0  -1  -5 162.048 12.2300   1
   0  -1  -5 150.611 13.2085   7
   0  -1  -5 171.021 14.3260   3
   0  -1  -5 162.530 14.0000   2
   0  -1  -5 166.090 12.4824   1
   0   1   5 152.377 11.8754   1
   0   1   5 182.285 14.1455   2
   0   1   5 158.474 14.0024   3
   0   1   5 166.200 12.3635   1
   0   1   5 156.267 12.7355   5
  -1  -1  -5 159.259 15.3727   2
  -1  -1  -5 201.295 14.0940   1
  -1  -1  -5 198.802 13.9037   1
  -1  -1  -5 204.815 16.5260   3
   1   1   5 185.082 15.4327   2
   1   1   5 202.733 16.1386   3
   1   1   5 177.975 13.5155   1
   1   1   5 190.755 15.4158   5
   1   1   5 182.967 13.7073   1
  -2  -1  -5 24.4996 3.67518   1
  -2  -1  -5 26.9399 4.28550   1
   2   1   5 12.3000 3.58627   2
   2   1   5 19.4335 5.64234   6
   2   1   5 26.9395 4.55657   2
   2   1   5 22.4723 4.22420   3
   2   1   5 22.2642 3.75030   1
   2   1   5 16.3713 2.94866   1
   2   1   5 23.5606 4.06172   3
   2   1   5 22.8101 4.96258   5
  -3  -1  -5 1.24814 1.66817   1
  -3  -1  -5 6.40485 2.41411   1
   3   1   5 4.49570 1.97180   1
   3   1   5 2.27452 2.15730   3
   3   1   5 6.04188 2.17440   1
   3   1   5 6.51516 4.05459   5
   3   1   5 5.42529 2.63168   2
   3   1   5 3.18808 3.89653   6
   3   1   5 8.73126 2.91763   2
   3   1   5 3.43535 2.27292   3
   4   1   5 632.452 48.8462   5
   4   1   5 662.707 47.8848   3
   4   1   5 667.293 44.1451   2
   4   1   5 628.319 44.0857   2
   4   1   5 651.589 47.8056   3
   4   1   5 608.556 50.7550   6
   5   1   5 529.907 41.9547   6
   5   1   5 531.504 37.2926  12
   5   1   5 480.896 30.5584  10
   5   1   5 552.659 40.2783   5
   5   1   5 415.661 37.5350  16
   5   1   5 517.719 37.2496  14
   5   1   5 490.692 37.7889  13
   5   1   5 463.115 38.6059  15
   6   1   5 -1.3866 1.99647  14
   6   1   5 0.77078 3.26612  13
   6   1   5 2.99719 2.84633  15
   6   1   5 7.05420 6.02333   6
   6   1   5 3.08955 2.86241  12
   6   1   5 1.09843 3.39841  16
   7   1   5 117.531 10.8482  14
   7   1   5 104.618 9.91844  12
   7   1   5 113.484 11.1308  13
   7   1   5 115.708 11.3377  15
   7   1   5 94.5310 11.3443  16
   7   1   5 73.7450 19.5251   6
   8   1   5 53.7355 7.71242  16
   8   1   5 75.4457 9.50290  15
   8   1   5 72.9689 7.72914  14
   9   1   5 21.0698 3.93728  16
   9   1   5 17.5001 4.54578  15
   8  -2  -5 10.4968 2.90325  17
   8  -2  -5 13.7868 3.39569  18
   7  -2  -5 5.14437 4.23164  17
   7  -2  -5 4.39607 4.70697  18
   7  -2  -5 13.3602 3.69345  16
   6  -2  -5 2.65552 2.75855  17
   6  -2  -5 3.33363 1.74579  10
   6  -2  -5 0.49155 3.01091  18
   6  -2  -5 1.26938 3.84605  16
   5  -2  -5 3.07389 6.93985   7
   5  -2  -5 -0.0121 2.31550  16
   5  -2  -5 1.92775 2.88356  18
   5  -2  -5 0.66216 1.80559  10
   5  -2  -5 -5.2647 3.03757  17
   5  -2  -5 4.95570 6.15791   2
   5  -2  -5 2.86348 1.50119   9
   5  -2  -5 2.53994 4.09791   3
   4  -2  -5 91.4599 12.1409   2
   4  -2  -5 93.6924 10.7102   3
   4  -2  -5 74.4580 14.9778   7
   4  -2  -5 80.3748 8.06466  16
   4  -2  -5 85.1546 8.63417  18
   4  -2  -5 75.2772 8.63632  17
   4  -2  -5 82.5867 6.61790  10
   4  -2  -5 88.9858 6.90028   9
   3  -2  -5 25.3693 6.40563   4
   3  -2  -5 28.1862 5.97729   3
   3  -2  -5 35.7391 8.38429   7
   3  -2  -5 33.2192 6.76167   2
   2  -2  -5 71.9702 10.4915   7
   2  -2  -5 69.4605 8.67432   1
   2  -2  -5 83.3096 9.47246   3
   2  -2  -5 70.8727 9.62945   2
   1  -2  -5 24.4861 5.66902   2
   1  -2  -5 25.3765 4.57325   1
   1  -2  -5 18.5395 4.04768   1
   1  -2  -5 22.0118 4.73986   3
   1  -2  -5 14.2301 3.73513   7
  -1   2   5 10.4325 2.29521   5
  -1   2   5 11.9539 4.49366   3
  -1   2   5 9.48946 3.67176   1
  -1   2   5 21.8734 4.27307   1
  -1   2   5 11.1135 4.70599   2
   0  -2  -5 60.8113 8.22743   2
   0  -2  -5 53.9341 6.70145   1
   0  -2  -5 50.1492 7.32232   3
   0  -2  -5 58.3675 6.77089   1
   0  -2  -5 46.9195 6.18538   7
   0   2   5 50.5138 5.74082   5
   0   2   5 72.3409 6.78744   1
   0   2   5 59.7708 7.34055   3
   0   2   5 58.9771 6.30984   1
   0   2   5 54.1869 7.54396   2
  -1  -2  -5 9.22054 3.38395   1
  -1  -2  -5 4.57806 1.55966   7
  -1  -2  -5 10.3058 3.66337   3
  -1  -2  -5 2.39172 3.77230   2
  -1  -2  -5 5.35481 2.88949   1
   1   2   5 8.37451 3.18181   3
   1   2   5 8.79016 3.24313   5
   1   2   5 8.88702 2.78218   1
   1   2   5 7.61735 2.93791   1
   1   2   5 10.3406 3.71048   2
  -2  -2  -5 8.42886 2.73345   1
  -2  -2  -5 5.44972 2.58567   1
   2   2   5 11.1997 4.39819   5
   2   2   5 7.44216 2.39297   1
   2   2   5 11.8521 3.09768   3
   2   2   5 15.2861 3.69354   2
   2   2   5 4.76432 2.97772   2
   2   2   5 13.9100 3.17008   3
   2   2   5 10.3009 2.80065   1
  -3  -2  -5 19.3147 3.24686   1
  -3  -2  -5 15.2308 2.99174   1
   3   2   5 17.4301 3.72578   2
   3   2   5 19.1311 3.32805   1
   3   2   5 22.2434 3.56807   3
   3   2   5 23.9728 4.05687   2
   3   2   5 25.1513 3.39128   1
   3   2   5 26.0751 5.42938   5
   3   2   5 27.2053 3.75545   3
   3   2   5 30.0876 6.37072   6
   4   2   5 95.0810 12.2910   6
   4   2   5 89.4369 11.9444   5
   5   2   5 16.6406 4.03581  15
   5   2   5 13.9179 7.23015   6
   5   2   5 17.5122 3.83798  14
   5   2   5 21.7218 3.70067  12
   5   2   5 13.0493 1.59514  10
   5   2   5 16.1231 3.32147  13
   5   2   5 20.7955 5.86713   5
   6   2   5 13.7459 3.65645  14
   6   2   5 14.7048 3.12526  11
   6   2   5 15.7974 4.21311  13
   6   2   5 16.0762 3.85145  16
   6   2   5 4.67438 8.20357   5
   6   2   5 18.8895 4.56118  15
   6   2   5 15.8187 3.94520  12
   6   2   5 20.6570 9.24589   6
   7   2   5 1.95625 3.10344  16
   7   2   5 0.28819 2.52786  14
   7   2   5 3.74660 3.78222  15
   7   2   5 -1.2640 2.42683  11
   7   2   5 -0.2019 2.09824  12
   7   2   5 5.81744 3.82008  13
   8   2   5 6.98194 3.76490  15
   8   2   5 13.8513 4.25578  14
   8   2   5 15.6091 3.51940  16
   8   2   5 17.5510 4.65325  13
   9   2   5 30.2625 4.91835  15
   9   2   5 16.0209 3.52135  16
   9   2   5 33.0924 5.67348  14
   7  -3  -5 4.24399 3.08597  17
   7  -3  -5 3.90434 3.13815  18
   7  -3  -5 4.16788 2.79446  16
   6  -3  -5 0.38897 4.43163  18
   6  -3  -5 2.93467 1.87380  10
   6  -3  -5 2.90723 3.15183  17
   6  -3  -5 -1.0090 2.68416  16
   5  -3  -5 4.09259 8.65123   7
   5  -3  -5 3.87302 2.67381  16
   5  -3  -5 -0.3530 3.58599  17
   5  -3  -5 2.66067 1.89485   9
   5  -3  -5 0.53316 1.36662  10
   5  -3  -5 2.87678 3.17498  18
   4  -3  -5 -4.7668 3.53118  18
   4  -3  -5 2.70008 5.63153   2
   4  -3  -5 -0.1136 4.37903   3
   4  -3  -5 1.73420 9.06175   7
   4  -3  -5 5.50485 2.07499   9
   4  -3  -5 2.04363 1.55545  10
   4  -3  -5 -0.0275 2.96547  16
   4  -3  -5 -3.0900 3.14280  17
   3  -3  -5 9.42472 4.89843   3
   3  -3  -5 16.8011 7.83049   7
   3  -3  -5 5.61277 2.21904  10
   3  -3  -5 13.9801 5.94941   2
   3  -3  -5 9.07464 1.71716   8
   3  -3  -5 3.30240 2.31628   9
   2  -3  -5 59.2379 9.34615   2
   2  -3  -5 54.5155 8.85187   7
   2  -3  -5 57.7628 8.48983   3
   1  -3  -5 540.488 39.1952   2
   1  -3  -5 538.240 41.4459   3
   1  -3  -5 531.818 35.2059   1
   1  -3  -5 546.774 40.7499   7
   1  -3  -5 463.275 34.7269   1
  -1   3   5 494.802 35.1153   1
  -1   3   5 509.443 37.2049   5
   0  -3  -5 136.944 12.0223   1
   0  -3  -5 139.785 12.5051   1
   0  -3  -5 145.274 13.4270   7
   0  -3  -5 161.142 14.6167   2
   0  -3  -5 158.325 14.1959   3
   0   3   5 165.540 14.3232   3
   0   3   5 142.369 12.3771   1
   0   3   5 142.941 12.1181   1
   0   3   5 151.569 12.7587   5
   0   3   5 165.344 14.5038   2
  -1  -3  -5 6.23438 3.60172   2
  -1  -3  -5 8.55431 2.90771   1
  -1  -3  -5 6.50264 2.40128   7
  -1  -3  -5 11.5997 3.49050   3
  -1  -3  -5 9.31250 3.01464   1
   1   3   5 13.9753 4.71587   2
   1   3   5 10.1077 3.70651   5
   1   3   5 10.4135 3.39246   1
   1   3   5 11.7080 2.83619   1
   1   3   5 11.6263 3.28169   3
  -2  -3  -5 832.171 52.8570   1
  -2  -3  -5 802.311 52.8822   1
   2   3   5 785.508 52.6596   1
   2   3   5 859.098 60.1316   5
   2   3   5 873.722 58.5897   2
   2   3   5 777.836 52.6725   1
   2   3   5 873.394 63.1094   3
  -3  -3  -5 43.3235 6.01494   1
   3   3   5 78.2623 7.24108   2
   3   3   5 59.5250 6.20813   1
   3   3   5 48.8530 6.84046   2
   3   3   5 87.7089 9.99879   5
   3   3   5 88.5556 7.66922   3
   3   3   5 63.7856 7.03459   3
   3   3   5 72.7297 6.44892   1
   3   3   5 62.4675 8.55783   6
   4   3   5 20.7646 6.76273   5
   4   3   5 20.8391 5.42464   6
   4   3   5 29.0888 3.54591   3
   4   3   5 29.1834 3.79153   2
   4   3   5 22.5932 3.24736   1
   4   3   5 22.8253 3.65329   2
   4   3   5 21.8755 3.38811   3
   5   3   5 1.30447 0.84291  10
   5   3   5 3.21630 2.10590  12
   5   3   5 0.95332 2.03086  14
   5   3   5 0.09646 2.90128  13
   5   3   5 2.37600 2.13051  11
   5   3   5 -0.0010 5.18186   6
   5   3   5 1.15017 5.77838   5
   6   3   5 2.54374 3.64694  13
   6   3   5 9.14317 8.42907   5
   6   3   5 6.30707 2.69179  11
   6   3   5 3.52244 3.22940  12
   6   3   5 4.21268 2.73204  14
   6   3   5 3.40192 2.33892  18
   6   3   5 -1.7175 2.91948  15
   7   3   5 22.0549 3.89995  18
   7   3   5 26.4953 4.87541  13
   7   3   5 11.4595 3.83487  16
   7   3   5 10.6735 8.89889   5
   7   3   5 28.9903 5.34897  14
   7   3   5 24.3462 4.48963  12
   7   3   5 18.2864 4.73422  15
   7   3   5 17.1537 3.67792  11
   8   3   5 29.9725 5.01976  12
   8   3   5 31.7713 5.54933  15
   8   3   5 29.4172 5.23301  13
   8   3   5 27.1344 4.37137  16
   8   3   5 32.3561 4.86104  11
   8   3   5 27.0780 5.21006  14
   9   3   5 -3.6361 3.09559  14
   9   3   5 5.44781 2.60714  15
   9   3   5 9.12017 4.11420  13
   7  -4  -5 23.6036 4.10348  18
   7  -4  -5 23.6654 4.48189  17
   6  -4  -5 8.09363 3.78091  16
   6  -4  -5 -0.6795 4.26097  17
   6  -4  -5 3.19886 2.00252  10
   6  -4  -5 5.80334 3.68226  18
   5  -4  -5 43.1633 4.35402   9
   5  -4  -5 42.3661 6.70363  16
   5  -4  -5 22.1893 5.69154  18
   5  -4  -5 37.5596 7.34522  17
   5  -4  -5 43.4840 4.88369  10
   4  -4  -5 4.96120 2.88090  17
   4  -4  -5 5.16761 2.39948   9
   4  -4  -5 2.92430 2.43256  10
   4  -4  -5 0.72822 7.23672   2
   4  -4  -5 6.36966 8.16490   7
   4  -4  -5 6.77907 3.58365  18
   4  -4  -5 5.36997 5.83804   3
   3  -4  -5 4.46658 2.59792   9
   3  -4  -5 3.55916 1.66850   8
   3  -4  -5 -1.4186 5.07335   7
   3  -4  -5 2.19615 5.18824   3
   3  -4  -5 0.03488 2.24501  10
   3  -4  -5 0.53478 2.88883  17
   3  -4  -5 -5.2981 6.49161   2
   2  -4  -5 171.180 18.5519   3
   2  -4  -5 204.314 18.9089   2
   2  -4  -5 175.709 19.9112   7
   1  -4  -5 88.8738 12.1393   2
   1  -4  -5 86.6580 11.3329   1
   1  -4  -5 110.728 12.1044   3
   1  -4  -5 87.8473 11.9579   7
  -1   4   5 94.9532 9.50152   5
   0  -4  -5 4.32686 3.95924   1
   0  -4  -5 4.43388 3.78831   7
   0  -4  -5 1.39537 3.63879   1
   0  -4  -5 3.81349 5.33345   2
   0  -4  -5 6.84382 4.22346   3
   0   4   5 8.09558 4.59343   3
   0   4   5 1.05302 3.75424   1
   0   4   5 1.21102 3.54279   1
   0   4   5 4.22119 4.76283   2
   0   4   5 1.73247 2.89635   5
  -1  -4  -5 6.53419 3.70450   1
  -1  -4  -5 4.78734 3.62855   1
   1   4   5 6.84062 3.66598   5
   1   4   5 7.65568 4.11813   3
   1   4   5 5.86420 4.48293   2
   1   4   5 3.84899 3.34760   1
   1   4   5 4.90313 3.39563   1
  -2  -4  -5 7.85372 3.45720   1
   2   4   5 1.05716 3.11050   1
   2   4   5 2.04518 2.84223   1
   2   4   5 6.79426 3.91786   2
   2   4   5 3.03136 3.85717   5
   2   4   5 6.39000 3.54719   3
   3   4   5 483.683 36.4749   2
   3   4   5 510.742 39.0103   5
   3   4   5 443.716 37.6851   6
   3   4   5 557.458 39.4998   3
   4   4   5 10.2669 3.25410   3
   4   4   5 19.0769 5.50341   5
   4   4   5 23.3071 4.30058   3
   4   4   5 19.2240 4.20425   2
   4   4   5 26.6398 4.43417   2
   5   4   5 386.732 30.1162  18
   5   4   5 423.663 34.6405   5
   5   4   5 353.454 30.0863  14
   5   4   5 390.492 30.9303  13
   5   4   5 393.774 24.7623  10
   5   4   5 401.357 30.5729  12
   5   4   5 421.036 28.6044  11
   6   4   5 5.01723 3.51511  14
   6   4   5 6.46176 3.73853  13
   6   4   5 1.42736 2.98811  15
   6   4   5 1.83294 1.70153  18
   6   4   5 -2.3191 2.34869  11
   6   4   5 -1.2866 3.10124  12
   6   4   5 2.33441 8.45136   5
   7   4   5 21.7162 3.70660  18
   7   4   5 23.5876 5.37856  13
   7   4   5 26.1488 5.05724  12
   7   4   5 24.5235 13.1591   5
   7   4   5 21.0811 3.80309  11
   7   4   5 14.4146 4.29605  15
   7   4   5 18.2438 4.98937  14
   8   4   5 3.76053 3.18272  13
   8   4   5 0.94979 1.99981  11
   8   4   5 -1.9612 2.79396  15
   8   4   5 -1.5109 3.23127  14
   8   4   5 1.62065 3.63388  12
   8   4   5 3.03789 2.65807  18
   9   4   5 7.26277 2.62226  14
   9   4   5 2.41543 3.13671  13
   9   4   5 4.74129 2.48121  12
   6  -5  -5 10.0628 3.46336  18
   6  -5  -5 7.27334 3.17781  17
   6  -5  -5 7.24444 1.96845  10
   5  -5  -5 42.1592 5.33760  10
   5  -5  -5 49.2550 4.60126   9
   5  -5  -5 52.4685 8.37833  17
   5  -5  -5 51.9739 8.64880  18
   4  -5  -5 66.9072 18.6844   7
   4  -5  -5 63.2078 6.65803   9
   4  -5  -5 53.1008 8.56313  17
   4  -5  -5 81.2265 10.0655  18
   4  -5  -5 68.6621 6.69466  10
   3  -5  -5 37.5199 11.2423   2
   3  -5  -5 48.5459 4.54031   8
   3  -5  -5 37.1618 5.78024  17
   3  -5  -5 39.0089 10.8733   7
   3  -5  -5 42.6410 4.77436  10
   3  -5  -5 53.1992 6.02266   9
   2  -5  -5 40.2822 10.0024   2
   2  -5  -5 34.5816 5.24474  10
   2  -5  -5 37.8383 5.68865   9
   2  -5  -5 40.8817 4.76473   8
   2  -5  -5 39.0096 5.26113  17
   2  -5  -5 25.2833 9.55093   7
   2  -5  -5 33.5775 8.42749   3
   1  -5  -5 12.1136 7.83831   2
   1  -5  -5 11.6975 6.81831   7
   1  -5  -5 10.2295 5.97078   3
  -1   5   5 9.71633 4.25435   5
   0  -5  -5 98.9713 13.4320   3
   0  -5  -5 78.3851 11.9263   2
   0  -5  -5 121.361 13.0978   7
   0   5   5 98.9542 12.8604   3
   0   5   5 119.379 11.2059   5
   0   5   5 107.940 12.4689   2
   1   5   5 3.98944 3.60489   5
   1   5   5 1.65468 2.87929   3
   1   5   5 -0.0727 4.35113   1
   1   5   5 5.57166 4.48623   2
   2   5   5 45.1315 8.03154   2
   2   5   5 52.1935 8.29055   5
   2   5   5 50.5334 8.07572   3
   3   5   5 54.5956 7.77264   3
   3   5   5 44.7213 7.56605   2
   3   5   5 61.3508 9.75673   5
   4   5   5 1.36713 1.24662  10
   4   5   5 1.73725 3.35694   2
   4   5   5 -0.2642 1.41759   9
   4   5   5 4.57717 5.73595   5
   4   5   5 0.46038 3.02387   3
   4   5   5 -0.1716 2.13830  11
   4   5   5 -1.6956 2.64701  13
   5   5   5 294.651 24.5336  13
   5   5   5 341.646 23.7715  18
   5   5   5 263.401 23.8564  14
   5   5   5 320.655 22.4275  11
   5   5   5 295.196 23.7997  12
   5   5   5 298.230 28.1734   5
   5   5   5 290.025 19.3031  10
   6   5   5 236.011 27.4255   5
   6   5   5 219.691 20.2817  14
   6   5   5 282.115 20.0500  18
   6   5   5 243.252 20.4482  12
   6   5   5 241.565 20.7107  13
   6   5   5 240.567 15.5934  10
   6   5   5 251.694 18.7668  11
   7   5   5 9.71358 13.2479   5
   7   5   5 21.2952 3.80726  11
   7   5   5 30.3828 4.11603  18
   7   5   5 24.5098 4.94881  13
   7   5   5 23.8096 5.30791  14
   7   5   5 21.1882 5.13721  12
   8   5   5 7.33644 3.03486  14
   8   5   5 2.23768 2.11364  11
   8   5   5 4.83391 4.66278  13
   8   5   5 4.90740 3.70729  12
   9   5   5 0.37938 2.80685  13
   9   5   5 1.72634 3.48119  12
   6  -6  -5 8.38627 2.93094  17
   6  -6  -5 10.1449 1.79803  10
   5  -6  -5 128.287 12.4601  18
   5  -6  -5 128.009 12.3236  17
   5  -6  -5 145.997 10.2701  10
   4  -6  -5 1.33600 4.40001  18
   4  -6  -5 -0.8430 1.71599  10
   4  -6  -5 -2.5120 2.65750   9
   4  -6  -5 -2.6314 2.79942  17
   3  -6  -5 25.6892 3.75398   8
   3  -6  -5 24.8171 4.09837  10
   3  -6  -5 8.40161 9.45282   7
   3  -6  -5 21.2708 4.39271  17
   3  -6  -5 -8.9686 11.4112   2
   3  -6  -5 32.8481 5.57134   9
   2  -6  -5 0.58599 7.73162   3
   2  -6  -5 4.12660 10.0713   7
   2  -6  -5 2.32232 2.43907   8
   2  -6  -5 2.79656 2.66150  17
   2  -6  -5 6.73980 10.7186   2
   2  -6  -5 -3.2883 2.93788   9
   1  -6  -5 12.3155 7.48544   3
   1  -6  -5 44.3301 9.84609   7
   1  -6  -5 38.1994 4.28443   8
   1  -6  -5 39.4462 11.5589   2
  -1   6   5 40.2829 8.23679   5
   0  -6  -5 27.4251 8.30986   7
   0   6   5 33.9524 6.71825   5
   1   6   5 38.4389 7.77120   5
   1   6   5 32.9411 7.32525   2
   1   6   5 28.7228 7.51526   3
   2   6   5 67.0257 11.0351   2
   2   6   5 90.0937 11.0329   5
   2   6   5 94.4104 12.1263   3
   3   6   5 66.6954 10.1433   5
   3   6   5 71.5729 9.77399   3
   3   6   5 68.0589 5.82679   9
   3   6   5 63.7152 4.96160   8
   3   6   5 59.0494 7.13373  13
   3   6   5 71.4115 9.79585   2
   4   6   5 24.2970 8.14046   5
   4   6   5 24.3419 5.76353   3
   4   6   5 23.0181 4.30623  14
   4   6   5 20.2570 3.06887  10
   4   6   5 19.2169 3.07725   9
   4   6   5 23.3584 4.50405  13
   4   6   5 11.2209 4.75959   2
   4   6   5 23.2355 3.96960  11
   4   6   5 19.7235 3.81361  12
   5   6   5 4.69387 2.55608  14
   5   6   5 3.62844 3.55722  13
   5   6   5 2.42275 7.54283   5
   5   6   5 -3.4146 2.91427   2
   5   6   5 -1.7050 0.92730   9
   5   6   5 5.74628 3.10623  12
   5   6   5 -4.5005 2.73552   3
   5   6   5 1.10852 1.58815  11
   5   6   5 0.56365 1.25529  10
   6   6   5 21.8054 2.65608  10
   6   6   5 23.6885 3.89155  11
   6   6   5 22.0324 5.31068  13
   6   6   5 23.9827 4.89894  12
   6   6   5 8.92421 8.77765   5
   6   6   5 18.3227 4.14147  14
   7   6   5 50.9456 8.40446  13
   7   6   5 52.5189 7.70391  14
   7   6   5 35.2451 7.18377  12
   7   6   5 53.9413 5.71585  11
   8   6   5 514.023 36.2551  11
   8   6   5 505.620 38.8911  12
   8   6   5 479.924 39.6139  13
   9   6   5 -2.9236 2.26396  12
   9   6   5 -0.2462 2.84268  13
   5  -7  -5 1.25188 1.66341  10
   5  -7  -5 3.52653 3.94792  17
   4  -7  -5 4.32987 3.01152  18
   4  -7  -5 2.59432 1.92794   9
   4  -7  -5 4.00331 3.10370  17
   4  -7  -5 3.45436 2.74100  10
   3  -7  -5 102.694 10.8125  17
   3  -7  -5 104.045 9.28033   9
   3  -7  -5 84.7768 8.69027  10
   3  -7  -5 101.868 7.60868   8
   2  -7  -5 7.60835 2.11948   8
   2  -7  -5 2.17212 10.5063   2
   2  -7  -5 8.06674 13.2505   7
   2  -7  -5 1.46258 2.44587   9
   2  -7  -5 5.36849 4.08818  17
   1  -7  -5 -4.2914 10.2305   7
   1  -7  -5 10.8603 2.49503   8
   0  -7  -5 -0.7616 8.03091   7
   0   7   5 2.47126 4.63010   5
   1   7   5 43.9649 4.89412   8
   1   7   5 66.7177 11.3738   5
   2   7   5 23.8093 8.49872   2
   2   7   5 18.7796 3.47704   9
   2   7   5 30.9038 8.43886   5
   2   7   5 17.7033 6.39000   3
   2   7   5 20.6802 2.87738   8
   3   7   5 -1.4013 1.93889   9
   3   7   5 7.76567 5.91311   2
   3   7   5 1.38832 1.40720   8
   3   7   5 1.01867 2.13864  13
   3   7   5 -2.5724 4.23388   5
   3   7   5 6.42369 5.70128   3
   3   7   5 -0.0797 1.99891  10
   4   7   5 42.1146 6.33722  13
   4   7   5 38.5505 10.4384   5
   4   7   5 36.9793 3.80351  10
   4   7   5 37.0749 8.26674   2
   4   7   5 36.3727 4.24037   9
   4   7   5 36.7785 5.53930  12
   4   7   5 22.2564 6.87247   3
   4   7   5 37.9659 7.00897  14
   4   7   5 33.0820 4.16049  11
   5   7   5 94.4419 9.73392  12
   5   7   5 82.1142 11.2543   3
   5   7   5 91.7219 9.86473  13
   5   7   5 88.5222 11.3083   2
   5   7   5 99.8096 7.35663  10
   5   7   5 96.5545 8.35069  11
   5   7   5 94.4130 7.04945   9
   5   7   5 98.8419 10.4502  14
   5   7   5 106.092 16.3380   5
   6   7   5 4.13306 3.72337  12
   6   7   5 0.67524 1.31491  10
   6   7   5 9.63565 3.71189  13
   6   7   5 5.48250 2.25442  11
   6   7   5 13.0068 10.6833   5
   6   7   5 5.06299 4.01761  14
   7   7   5 26.4031 5.15686  12
   7   7   5 22.0819 4.37905  11
   7   7   5 33.7641 6.15492  13
   8   7   5 7.33187 5.25574  13
   8   7   5 7.97107 3.04351  12
   8   7   5 3.95510 2.92671  11
   9   7   5 40.3535 6.14399  13
   4  -8  -5 23.1612 3.54780  10
   4  -8  -5 16.1837 2.74572   9
   4  -8  -5 10.7913 4.34515  17
   3  -8  -5 18.3000 3.26503   9
   3  -8  -5 13.5541 2.95059  10
   3  -8  -5 16.1221 3.89487  17
   3  -8  -5 12.9382 3.73307  18
   2  -8  -5 50.5856 4.96289   8
   2  -8  -5 38.5751 6.54773   9
   2  -8  -5 51.1353 6.90772  17
   1  -8  -5 6.78032 3.16364   8
   1  -8  -5 5.45584 10.1147   7
   0  -8  -5 20.8150 10.0800   7
   0  -8  -5 41.4926 6.12322   8
   0   8   5 40.0505 10.7675   5
  -1  -8  -5 4.97903 6.94177   7
   1   8   5 7.09657 8.30251   5
   1   8   5 6.35509 2.40439   8
   2   8   5 21.2575 3.75538   9
   2   8   5 21.3835 7.69475   5
   2   8   5 2.47175 8.21132   3
   2   8   5 17.5893 2.93601   8
   2   8   5 16.6020 9.60548   2
   3   8   5 73.9849 8.06501  13
   3   8   5 72.9164 13.1998   2
   3   8   5 36.8921 10.3831   3
   3   8   5 69.2829 6.04713   9
   3   8   5 60.2124 6.25818  10
   3   8   5 54.5313 11.8370   5
   3   8   5 63.5427 5.35219   8
   4   8   5 33.8413 4.56463   9
   4   8   5 40.1480 4.60592  10
   4   8   5 34.4939 11.9591   5
   4   8   5 18.4296 7.60010   3
   4   8   5 34.9732 6.85776  14
   4   8   5 21.6551 8.85423   2
   4   8   5 42.2837 5.80961  13
   5   8   5 520.289 41.7179  12
   5   8   5 552.275 39.0479  11
   5   8   5 536.404 41.7209  14
   5   8   5 566.760 35.5179   9
   5   8   5 552.696 42.9969  13
   5   8   5 506.040 47.8371   5
   5   8   5 547.927 34.9229  10
   6   8   5 29.0336 3.47206  10
   6   8   5 27.8428 4.04651  11
   6   8   5 20.7900 5.18932  13
   6   8   5 23.9145 4.84822  12
   7   8   5 31.3215 5.88517  12
   7   8   5 48.0226 5.85856  11
   7   8   5 42.6359 7.46015  13
   8   8   5 3.31509 2.51291  12
   8   8   5 0.45074 5.05796  13
   9   8   5 5.40613 3.26723  12
   9   8   5 8.66072 4.32448  13
   4  -9  -5 2.06812 1.80224  10
   3  -9  -5 4.38582 2.06997   9
   3  -9  -5 5.04533 3.79030  17
   3  -9  -5 3.00188 2.27141  10
   2  -9  -5 0.84736 2.69439  17
   2  -9  -5 -0.9596 1.98544   8
   2  -9  -5 5.93903 3.45624   9
   1  -9  -5 26.6013 4.34964   8
   1  -9  -5 31.0813 5.56376  17
   0  -9  -5 -0.1515 2.14706   8
   0   9   5 0.24729 1.77327   8
   1   9   5 377.299 36.3788   5
   1   9   5 372.891 24.3933   8
   2   9   5 62.2471 12.5980   5
   2   9   5 64.6717 6.96120   9
   2   9   5 59.4984 5.82951   8
   3   9   5 7.91282 2.36902   9
   3   9   5 5.96529 3.94103  13
   3   9   5 3.46099 11.2181   5
   3   9   5 2.65739 1.75269   8
   3   9   5 6.22575 2.13620  10
   4   9   5 29.7380 3.92967  10
   4   9   5 34.2273 5.71908  13
   4   9   5 33.6417 5.37480  14
   4   9   5 27.1372 3.90260   9
   4   9   5 23.2966 10.4454   5
   5   9   5 10.9039 2.35945   9
   5   9   5 19.5507 3.53434  12
   5   9   5 17.2229 4.57077  13
   5   9   5 19.4220 2.98986  10
   6   9   5 12.6032 5.14785  13
   6   9   5 7.79433 2.22614  10
   6   9   5 6.26269 3.66753  12
   7   9   5 3.24166 3.57794  12
   7   9   5 0.90252 4.56545  13
   8   9   5 176.108 15.6214  13
   8   9   5 173.086 14.4285  12
   3 -10  -5 1.78113 1.17204   9
   2 -10  -5 2.18190 3.60829  17
   2 -10  -5 8.67322 3.32632   9
   1 -10  -5 34.2887 5.06657   8
   1 -10  -5 26.6658 5.24552  17
   0 -10  -5 -0.2465 2.12206   8
   0  10   5 2.02946 2.46591   8
   1  10   5 11.0809 2.89781   8
   2  10   5 14.5686 2.67512   8
   2  10   5 14.8784 4.24031  13
   2  10   5 3.99265 3.22800   9
   3  10   5 0.78905 1.44986   8
   3  10   5 4.81490 3.15957   9
   3  10   5 2.58664 2.60929  10
   3  10   5 2.93758 2.55888  13
   4  10   5 9.71104 3.06326  10
   4  10   5 14.3549 3.79577  13
   4  10   5 11.6732 2.91671   9
   5  10   5 12.5737 2.85250  10
   5  10   5 11.2720 3.63378  13
   5  10   5 5.56932 1.66847   9
   6  10   5 16.2369 2.29239  10
   6  10   5 14.0317 4.05203  13
   6  10   5 6.19990 2.50199  12
   7  10   5 -0.4864 2.94442  13
   7  10   5 -0.5235 1.87613  12
   8  10   5 21.8923 4.16265  13
   8  10   5 15.7648 2.81961  12
   1 -11  -5 9.33816 1.73914   8
   1 -11  -5 4.41434 2.48021   9
  -1  11   5 4.19248 1.70525   8
   0 -11  -5 53.0233 6.17112   8
   0  11   5 53.4379 4.77358   8
  -1 -11  -5 -0.9732 2.19115   8
   1  11   5 2.60007 1.53361   8
   1  11   5 0.86972 1.96957  13
   2  11   5 10.6767 2.88559  13
   2  11   5 11.1590 3.59408   9
   2  11   5 11.3829 2.15288   8
   3  11   5 1.36689 2.42741  13
   3  11   5 5.84027 2.98079   9
   3  11   5 4.01832 0.87669   8
   4  11   5 26.5669 4.89494  13
   4  11   5 25.1194 3.83112  10
   4  11   5 30.0403 4.18483   9
   5  11   5 93.4417 9.29706  13
   5  11   5 89.8722 7.15963  10
   6  11   5 15.0354 2.34689  10
   6  11   5 17.1473 3.95063  13
   7  11   5 0.57579 2.36739  13
  -1 -12  -5 8.81016 2.10056   8
   1  12   5 8.94616 1.31076   8
   2  12   5 1.09602 1.75369  13
   2  12   5 0.40457 1.67382   9
   3  12   5 0.56752 1.54699   9
   3  12   5 2.35629 2.04485  13
   4  12   5 -0.7195 1.58804  10
   4  12   5 3.10068 2.31555  13
   5  12   5 1.17445 1.97058  13
   5  12   5 1.23634 1.24767  10
   3  11  -6 57.3499 4.70690   9
   2  11  -6 27.5736 3.50514   9
   1  11  -6 4.22587 0.89886   8
  -1 -11   6 8.09634 2.39269   8
   5  10  -6 3.34767 2.22468  12
   5  10  -6 -0.9413 1.26030  10
   4  10  -6 -3.2311 1.56619   9
   4  10  -6 2.26801 1.73296  10
   4  10  -6 0.68255 2.21932  12
   3  10  -6 8.48311 2.06546   9
   3  10  -6 3.37000 3.19408  12
   3  10  -6 -0.2416 2.51378  13
   2  10  -6 7.65237 2.38363   9
   2  10  -6 8.12236 1.79883   8
   1  10  -6 43.0639 3.82366   8
  -1 -10   6 29.2851 4.50179   8
   0  10  -6 77.4377 6.14408   8
   0 -10   6 66.0353 6.03445   8
  -1  10  -6 0.43056 2.04321   8
   1 -10   6 -2.0984 1.40219   8
   1 -10   6 0.10322 2.25113   9
   6   9  -6 -5.0381 3.29476  12
   6   9  -6 1.33365 1.44401  10
   5   9  -6 5.34580 2.75798  12
   5   9  -6 7.12530 1.23378   9
   5   9  -6 5.07475 1.79698  10
   4   9  -6 275.287 19.4313  10
   4   9  -6 311.455 23.4618  12
   4   9  -6 285.548 19.5872   9
   3   9  -6 68.8584 7.46031  12
   3   9  -6 75.1172 8.35423  13
   3   9  -6 69.1864 6.83032   9
   3   9  -6 62.7426 4.99073   8
   2   9  -6 29.8990 4.79053  12
   2   9  -6 34.2654 5.48172   9
   2   9  -6 30.6867 4.19035   8
   1   9  -6 28.9907 4.31825   8
   0   9  -6 0.10507 2.20791   8
   0  -9   6 1.74716 2.10793   8
   1  -9   6 11.7271 2.93097   8
   2  -9   6 5.32906 3.25237   9
   2  -9   6 3.43879 2.92608  17
   2  -9   6 1.39914 1.30313   8
   3  -9   6 6.31681 2.41665  17
   3  -9   6 2.04236 1.47685   9
   7   8  -6 3.53177 2.83324  12
   7   8  -6 -2.5716 1.62935  11
   6   8  -6 23.1044 4.48998  11
   6   8  -6 29.4690 3.46186  10
   6   8  -6 25.6734 5.44426  12
   5   8  -6 6.57807 1.83812   9
   5   8  -6 2.18792 2.90290  12
   5   8  -6 2.17491 2.01882  10
   4   8  -6 60.7637 6.56239  10
   4   8  -6 67.5302 6.25240   9
   4   8  -6 74.9905 7.90541  12
   3   8  -6 43.7658 4.71630   9
   3   8  -6 32.2663 5.27404  10
   3   8  -6 40.6131 5.82361  12
   3   8  -6 36.1227 3.95093   8
   2   8  -6 72.5884 8.17900  12
   2   8  -6 55.9125 6.25059   9
   2   8  -6 63.9933 5.87698   8
   1   8  -6 6.53383 2.06756   8
   0   8  -6 1.98443 2.10145   8
   0  -8   6 6.00225 3.53234   8
   1  -8   6 20.2351 3.97658   8
   2  -8   6 2.16719 2.13366   8
   2  -8   6 -3.4571 2.29065   9
   3  -8   6 5.16658 2.65683  10
   3  -8   6 15.6495 4.69698  17
   3  -8   6 9.72979 2.61980   9
   4  -8   6 154.798 10.1067  10
   4  -8   6 127.424 11.6016  17
   4  -8   6 135.469 9.36468   9
   8   7  -6 24.4139 3.24785  11
   7   7  -6 131.442 11.0655  11
   7   7  -6 146.297 12.9320  12
   6   7  -6 9.79757 1.97279  10
   6   7  -6 7.26689 3.71524  12
   6   7  -6 7.69530 2.48982  11
   5   7  -6 16.3069 3.22074  11
   5   7  -6 22.7822 2.92157   9
   5   7  -6 18.5522 3.13008  10
   5   7  -6 25.1157 5.57658  12
   4   7  -6 0.30474 1.95075   9
   4   7  -6 3.55806 2.70966  12
   4   7  -6 5.68963 2.45598  10
   3   7  -6 7.69876 1.90654   8
   3   7  -6 8.47915 3.66152  12
   3   7  -6 7.48672 2.82503   9
   3   7  -6 4.21502 2.05192  10
   3   7  -6 9.11992 10.0017   2
   2   7  -6 1.93849 7.07473   2
   2   7  -6 -9.5672 8.40377   3
   2   7  -6 7.86226 2.17709   8
   2   7  -6 2.43166 2.01310   9
   1   7  -6 1.91366 2.03260   8
   0  -7   6 190.311 13.8818   8
   1  -7   6 1.50562 3.02627   8
   2  -7   6 6.66197 4.70302  16
   2  -7   6 -0.2774 2.50890   9
   2  -7   6 3.53212 2.68010   8
   3  -7   6 1.90018 3.24041  16
   3  -7   6 -5.7543 2.00848  10
   3  -7   6 2.21479 3.30204   9
   3  -7   6 -0.5119 1.30602   8
   3  -7   6 1.18712 3.11277  17
   4  -7   6 21.2286 4.44836  16
   4  -7   6 29.0644 4.11052  10
   4  -7   6 18.7924 4.29727  17
   4  -7   6 24.9771 3.34362   9
   5  -7   6 10.1800 3.26715  16
   5  -7   6 10.2523 3.16789  17
   5  -7   6 16.0045 2.88268  10
   8   6  -6 10.6320 2.74245  11
   8   6  -6 11.9272 2.76503  18
   7   6  -6 -1.5583 2.14293  18
   7   6  -6 -3.7468 2.85082  11
   7   6  -6 2.47740 3.43662  12
   6   6  -6 0.97029 1.50782  10
   6   6  -6 2.69914 2.16603  18
   6   6  -6 -0.1414 4.75349  12
   6   6  -6 2.53141 2.37317  11
   5   6  -6 55.7385 8.62552  12
   5   6  -6 43.3877 6.02470  11
   5   6  -6 48.8172 4.88054  10
   5   6  -6 42.3438 5.22530  18
   5   6  -6 44.3696 4.15281   9
   4   6  -6 129.829 11.9941  11
   4   6  -6 142.249 17.3097   2
   4   6  -6 149.235 10.9660  10
   4   6  -6 133.523 16.8223   4
   4   6  -6 183.822 14.7482  12
   4   6  -6 156.040 11.0709   9
   3   6  -6 1.01850 2.26254  10
   3   6  -6 3.83256 6.82550   2
   3   6  -6 3.72999 2.28680   9
   3   6  -6 6.57800 6.94646   4
   3   6  -6 -4.1145 5.98438   3
   3   6  -6 3.28598 1.55223   8
   2   6  -6 10.5712 1.86385   8
   2   6  -6 5.26262 6.86820   3
   2   6  -6 12.7199 3.12763   9
   2   6  -6 7.69038 6.14464   4
   2   6  -6 20.1674 8.42333   2
   1   6  -6 2.69436 1.99118   8
   1  -6   6 169.202 12.2929   8
   2  -6   6 -10.852 8.87662   3
   2  -6   6 23.2638 3.80874   8
   2  -6   6 14.2721 13.6698   2
   2  -6   6 24.8538 4.13184   9
   2  -6   6 22.9846 4.83193  16
   3  -6   6 429.679 28.7162   9
   3  -6   6 402.569 26.2778   8
   3  -6   6 419.637 28.1102  10
   3  -6   6 416.183 33.7301  16
   4  -6   6 46.3641 5.58154  10
   4  -6   6 54.5916 9.07356  16
   4  -6   6 54.5304 5.96927   9
   4  -6   6 50.3164 7.34872  17
   5  -6   6 56.4002 5.08912  10
   5  -6   6 50.3705 7.17621  16
   5  -6   6 37.4295 7.69818  17
   6  -6   6 15.5703 2.14233  10
   6  -6   6 14.6968 4.10339  16
   8   5  -6 69.7484 6.98273  18
   8   5  -6 75.3314 7.31330  11
   7   5  -6 2.04745 2.47870  18
   7   5  -6 0.29523 2.44030  11
   7   5  -6 1.10205 4.63250  12
   6   5  -6 0.35765 1.47610  10
   6   5  -6 -1.1737 3.35846  12
   6   5  -6 -1.2347 2.84140  18
   6   5  -6 -3.4222 2.88847  11
   5   5  -6 8.86535 2.30446  10
   5   5  -6 10.1712 3.91790  12
   5   5  -6 -0.4858 6.36447   4
   5   5  -6 9.56708 2.69997  18
   5   5  -6 10.6601 2.07053   9
   5   5  -6 7.15811 3.42430  11
   5   5  -6 13.5407 6.95077   2
   4   5  -6 463.548 31.1744  12
   4   5  -6 385.493 25.3608   9
   4   5  -6 369.640 33.2972   3
   4   5  -6 348.396 29.3840  18
   4   5  -6 395.426 24.9149  10
   4   5  -6 364.068 32.9779   4
   4   5  -6 353.944 31.0330   2
   4   5  -6 360.349 27.8923  11
   3   5  -6 15.0322 2.85736  10
   3   5  -6 16.4482 5.87101   4
   3   5  -6 14.1570 2.36329   8
   3   5  -6 18.0084 6.78950   3
   3   5  -6 19.3304 6.71807   2
   3   5  -6 9.85714 2.41910  11
   3   5  -6 11.6159 2.67475   9
   2   5  -6 47.6209 8.73110   4
   2   5  -6 46.6305 4.38505   8
   2   5  -6 41.8162 9.21271   3
   1   5  -6 5.11401 6.15038   2
   1   5  -6 3.61022 5.64357   3
   1   5  -6 0.26466 1.53414   8
   1   5  -6 -1.3515 4.04865   4
   1  -5   6 -1.7391 5.72105   2
   1  -5   6 -1.9197 4.17780   3
   1  -5   6 0.18248 2.72347   8
   2  -5   6 2.53761 10.1553   2
   2  -5   6 2.69131 9.26663   6
   2  -5   6 -0.8029 3.12037   9
   2  -5   6 2.12991 2.42145   8
   2  -5   6 1.49938 4.34213   3
   3  -5   6 663.277 43.5156   9
   3  -5   6 667.738 42.5310  10
   3  -5   6 692.754 58.0496   7
   3  -5   6 652.069 50.8521  16
   3  -5   6 734.973 54.6691   2
   3  -5   6 557.478 55.0588   6
   3  -5   6 605.902 54.5520   3
   3  -5   6 669.462 40.9477   8
   4  -5   6 4.39664 2.77397   9
   4  -5   6 2.05415 3.14172  17
   4  -5   6 1.18703 4.67713  16
   4  -5   6 1.27310 2.06837  10
   5  -5   6 0.88751 4.48889  17
   5  -5   6 6.26742 1.76665   9
   5  -5   6 -3.5078 3.24442  16
   5  -5   6 4.14344 2.65232  10
   6  -5   6 37.4489 3.92242  10
   6  -5   6 34.0239 6.44765  16
   6  -5   6 26.4923 5.27868  17
   7  -5   6 23.9842 4.31507  16
   8   4  -6 4.22787 3.33180  18
   8   4  -6 3.90854 2.72125  11
   7   4  -6 124.705 11.7648  11
   7   4  -6 121.340 11.7003  18
   6   4  -6 23.3406 2.89676  10
   6   4  -6 19.5716 4.87048  12
   6   4  -6 23.0947 4.97730  11
   6   4  -6 22.5525 4.40775  18
   6   4  -6 28.9376 4.89923  17
   5   4  -6 13.6427 5.01688  12
   5   4  -6 18.2753 3.64628  11
   5   4  -6 20.2060 8.97736   4
   5   4  -6 17.7774 2.75329  10
   5   4  -6 21.8386 3.87756  17
   5   4  -6 13.4704 5.90878   2
   5   4  -6 20.5722 2.68017   9
   5   4  -6 18.8417 3.73659  18
   5   4  -6 13.1748 5.55572   3
   4   4  -6 4.21246 4.61954   3
   4   4  -6 1.42504 2.46940  11
   4   4  -6 5.93520 6.05078   4
   4   4  -6 3.35267 3.53737  12
   4   4  -6 -1.0792 1.56123  10
   4   4  -6 -0.9677 1.50714  18
   3   4  -6 -1.1820 0.70537   8
   3   4  -6 1.57206 1.64273  11
   3   4  -6 1.88582 4.01660   4
   3   4  -6 0.19396 1.25880  10
   3   4  -6 -1.9368 4.81098   2
   3   4  -6 0.87478 1.75261   9
   3   4  -6 5.66273 4.79400   3
   2   4  -6 13.7535 5.67165   2
   2   4  -6 -2.9359 4.07479   3
   2   4  -6 -7.0508 3.35949   4
   1   4  -6 788.121 63.7676   3
   1   4  -6 820.103 59.6400   2
   1   4  -6 814.618 57.4337   4
   0   4  -6 252.909 20.5817   4
   0  -4   6 280.428 23.5479   6
   1  -4   6 29.4704 8.00492   6
   1  -4   6 24.4991 8.68087   2
   1  -4   6 20.4884 6.69036   3
   2  -4   6 274.267 25.2062   6
   2  -4   6 243.867 22.9417   3
   2  -4   6 276.618 24.9220   2
   2  -4   6 237.235 16.0298   8
   2  -4   6 217.444 17.1435   9
   3  -4   6 42.2426 10.0878   2
   3  -4   6 46.3127 4.37610   8
   3  -4   6 22.6406 9.19542   7
   3  -4   6 35.7543 6.50687  16
   3  -4   6 43.0874 8.93229   3
   3  -4   6 18.9297 8.78617   6
   3  -4   6 43.2351 4.83817   9
   4  -4   6 10.7877 4.67119  17
   4  -4   6 13.8111 5.37506  16
   4  -4   6 0.94839 5.57494   3
   4  -4   6 8.69219 3.41116  15
   4  -4   6 14.8008 3.29549  10
   4  -4   6 10.6791 2.93699   9
   4  -4   6 -9.7592 8.10545   6
   4  -4   6 7.82987 8.31164   2
   5  -4   6 8.26182 5.01975  16
   5  -4   6 6.03502 4.34724  15
   5  -4   6 3.90924 1.97922  10
   5  -4   6 1.66701 1.92681   9
   5  -4   6 4.54709 3.39999  17
   6  -4   6 126.309 12.8921  17
   6  -4   6 141.535 13.0957  15
   6  -4   6 153.628 10.3507  10
   6  -4   6 149.070 14.0769  16
   7  -4   6 -0.7236 3.05207  16
   7  -4   6 0.84056 3.41562  15
   8   3  -6 11.6337 3.66504  11
   8   3  -6 25.2016 4.09801  18
   7   3  -6 14.7620 4.85271  11
   7   3  -6 18.5113 3.99379  17
   7   3  -6 11.8031 3.64953  18
   6   3  -6 76.0739 7.99222  11
   6   3  -6 38.1720 14.4604   4
   6   3  -6 66.9174 8.27959  18
   6   3  -6 71.4453 8.37589  17
   6   3  -6 74.5516 5.58942  10
   5   3  -6 297.825 23.0202   2
   5   3  -6 299.378 23.3523  17
   5   3  -6 312.115 19.3687   9
   5   3  -6 275.959 23.7379  18
   5   3  -6 301.009 19.3598  10
   5   3  -6 277.125 24.7083   3
   5   3  -6 302.737 22.7751  11
   5   3  -6 274.917 28.0820   4
   5   3  -6 291.532 23.9955  12
   4   3  -6 147.915 15.3924   3
   4   3  -6 144.716 11.9225  11
   4   3  -6 141.867 15.7960   4
   4   3  -6 144.661 10.3701   9
   4   3  -6 175.034 14.9535   2
   4   3  -6 154.969 12.6930  17
   4   3  -6 153.178 13.1861  12
   4   3  -6 121.130 12.4119  18
   4   3  -6 155.759 10.4146  10
   3   3  -6 28.6028 6.87163   4
   3   3  -6 32.8701 6.35356   2
   3   3  -6 29.0392 6.65948   3
   2   3  -6 157.206 15.2029   4
   2   3  -6 157.363 15.9564   2
   2   3  -6 166.774 16.5710   3
   1   3  -6 422.744 30.7676   4
   1   3  -6 383.138 28.5436   1
   1   3  -6 427.945 34.2474   3
   1   3  -6 454.153 32.4389   2
  -1  -3   6 424.767 32.0464   6
  -1  -3   6 339.909 28.4428   1
   0   3  -6 -1.2558 2.99053   1
   0   3  -6 4.67247 3.74227   2
   0   3  -6 2.12256 3.21501   3
   0   3  -6 -0.5225 2.47459   4
   0  -3   6 -0.2900 4.01096   6
   0  -3   6 -3.2702 3.16205   1
   0  -3   6 0.35458 2.42237   3
   0  -3   6 4.16858 4.02184   2
   0  -3   6 0.13066 2.46827   1
   1  -3   6 -0.5163 5.42087   1
   1  -3   6 6.46071 4.07518   3
   1  -3   6 7.03242 5.97213   2
   1  -3   6 9.19871 5.73918   6
   2  -3   6 273.425 25.4176   6
   2  -3   6 250.838 23.4576   3
   2  -3   6 255.177 23.7368   2
   3  -3   6 46.6172 11.3672   6
   3  -3   6 52.7465 4.44073   8
   3  -3   6 53.2544 9.15967   3
   3  -3   6 47.7200 4.96279   9
   3  -3   6 62.1432 10.7327   2
   3  -3   6 43.7866 4.64966  10
   3  -3   6 49.6000 10.4997   7
   4  -3   6 10.7289 4.25540  15
   4  -3   6 24.4327 11.1725   6
   4  -3   6 14.8892 5.33602   3
   4  -3   6 8.34539 4.06671  17
   4  -3   6 13.2393 3.36104  14
   4  -3   6 17.8239 5.37966  16
   4  -3   6 18.5781 2.98628   9
   4  -3   6 10.5963 7.04287   2
   5  -3   6 57.7519 10.2807   2
   5  -3   6 40.1657 7.32072  17
   5  -3   6 48.1151 7.89802  16
   5  -3   6 34.0346 12.0360   6
   5  -3   6 47.7976 7.16082  15
   5  -3   6 56.7972 4.66844   9
   5  -3   6 53.7445 6.17022  14
   5  -3   6 46.6017 5.42976  10
   6  -3   6 2.03265 3.90778  17
   6  -3   6 3.42543 3.45344  15
   6  -3   6 7.38171 2.14137  10
   6  -3   6 5.60598 5.28875  16
   7  -3   6 67.7361 9.22283  16
   7  -3   6 77.0478 8.26812  15
   8  -3   6 22.7011 4.13297  15
   8  -3   6 26.0962 5.01219  16
   8   2  -6 3.10445 4.03183  11
   8   2  -6 5.90361 2.77147  17
   8   2  -6 1.20041 3.50239  18
   7   2  -6 16.2248 3.79914  17
   7   2  -6 11.9168 4.28881  18
   7   2  -6 10.8894 4.86345  11
   6   2  -6 172.437 13.5323  11
   6   2  -6 146.644 10.2530  10
   6   2  -6 149.428 13.1690  17
   6   2  -6 143.508 13.4662  18
   6   2  -6 138.256 22.8527   4
   5   2  -6 59.1084 6.63401  17
   5   2  -6 65.3281 13.2198   4
   5   2  -6 67.0827 7.52681  18
   5   2  -6 49.0059 7.50538   3
   5   2  -6 79.4147 7.90098  11
   5   2  -6 68.2052 12.8934   7
   5   2  -6 63.3879 5.29317  10
   4   2  -6 400.974 30.7211   4
   4   2  -6 345.773 27.0420  17
   4   2  -6 342.276 23.1168   9
   4   2  -6 370.489 29.6020   3
   4   2  -6 320.339 27.3834  18
   4   2  -6 370.500 28.2006   2
   4   2  -6 345.563 22.6901  10
   4   2  -6 372.671 31.9320   7
   4   2  -6 360.052 26.1147  11
   3   2  -6 7.53313 3.59499   2
   3   2  -6 11.2637 4.57816   3
   3   2  -6 17.0595 6.27373   7
   3   2  -6 11.3844 5.00857   4
   2   2  -6 769.374 56.6284   4
   2   2  -6 795.173 57.7402   2
   2   2  -6 822.893 62.1260   3
   1   2  -6 0.10929 3.51018   3
   1   2  -6 3.96237 2.70931   4
   1   2  -6 4.87218 4.59799   2
   1   2  -6 -1.7430 3.30338   1
   1   2  -6 5.16149 3.82803   1
  -1  -2   6 -6.3511 3.38604   1
  -1  -2   6 7.90882 3.76106   1
   0   2  -6 14.6986 5.43522   2
   0   2  -6 11.2792 4.95147   3
   0   2  -6 14.7742 4.51391   1
   0   2  -6 12.1698 3.96520   1
   0  -2   6 23.0768 5.55398   6
   0  -2   6 13.1164 4.48806   3
   0  -2   6 14.7283 4.70559   1
   0  -2   6 18.3770 4.19447   1
   0  -2   6 9.30612 5.52323   2
  -1   2  -6 43.2724 7.11381   1
   1  -2   6 32.9206 7.59660   2
   1  -2   6 36.3069 6.49087   1
   1  -2   6 37.6470 6.75415   3
   1  -2   6 44.8114 8.32497   6
   1  -2   6 27.7806 5.08624   1
   2  -2   6 12.3677 4.46631   3
   2  -2   6 8.18482 4.66034   6
   2  -2   6 7.72404 5.34939   2
   3  -2   6 49.5449 9.26355   7
   3  -2   6 62.1846 9.64143   2
   3  -2   6 76.2248 9.03339   3
   3  -2   6 56.9564 10.8670   6
   4  -2   6 34.8472 3.93783   9
   4  -2   6 39.2070 6.78245  15
   4  -2   6 37.6717 4.20319  10
   4  -2   6 37.6518 6.94747   3
   4  -2   6 35.1833 7.54375   2
   4  -2   6 18.9567 8.49094   6
   4  -2   6 30.8577 5.24154  14
   4  -2   6 45.3750 7.75147  16
   5  -2   6 24.9532 10.4177   6
   5  -2   6 24.1338 4.35695  14
   5  -2   6 20.1432 5.38329   2
   5  -2   6 11.7110 4.12341   3
   5  -2   6 23.7066 5.85185  16
   5  -2   6 30.8716 3.85724  10
   5  -2   6 39.7570 6.93449  15
   5  -2   6 24.7701 2.67400   9
   6  -2   6 24.4824 3.25971  10
   6  -2   6 23.5237 4.94225  14
   6  -2   6 28.0618 5.55100  16
   6  -2   6 19.0198 5.88624  15
   7  -2   6 4.22781 5.20100  16
   7  -2   6 1.35152 4.57423  15
   8  -2   6 -2.9402 4.50480  16
   8  -2   6 -0.8227 2.82219  15
   8   1  -6 24.0862 4.68216  18
   8   1  -6 22.0899 4.37471  17
   7   1  -6 40.5408 6.85134  17
   7   1  -6 32.4285 5.74431  18
   7   1  -6 35.7439 6.15546  11
   6   1  -6 -0.0751 3.42622  17
   6   1  -6 1.25557 2.54722  18
   6   1  -6 -1.8183 1.17620  10
   6   1  -6 -1.6071 2.42574  11
   6   1  -6 -3.4120 8.92905   7
   5   1  -6 10.5081 4.00256   3
   5   1  -6 13.1214 3.24921  17
   5   1  -6 25.2571 4.22152  16
   5   1  -6 14.3231 7.30257   7
   5   1  -6 16.1406 2.12090   9
   5   1  -6 28.9461 10.6064   4
   5   1  -6 18.7801 2.96192  10
   5   1  -6 24.8472 4.65118  11
   5   1  -6 17.2797 4.53740   2
   5   1  -6 19.6768 3.95762  18
   4   1  -6 7.15068 2.44463  18
   4   1  -6 10.5166 5.55733   7
   4   1  -6 2.55698 4.63875   2
   4   1  -6 6.18277 1.58414  10
   4   1  -6 -0.5011 2.31380  17
   4   1  -6 9.29395 3.08759  11
   4   1  -6 9.08732 2.75762  16
   4   1  -6 1.96209 4.16912   4
   4   1  -6 10.2716 4.68807   3
   4   1  -6 3.49510 1.58236   9
   3   1  -6 5.07028 4.94474   7
   3   1  -6 9.36879 4.83693   4
   3   1  -6 4.17053 3.59940   3
   3   1  -6 6.92372 4.37557   2
   2   1  -6 133.053 13.5441   4
   2   1  -6 154.663 14.3332   2
   2   1  -6 134.764 12.4583   1
   2   1  -6 159.817 14.7363   3
   2   1  -6 144.941 14.7113   7
   1   1  -6 401.203 28.6877   1
   1   1  -6 415.146 34.0695   3
   1   1  -6 435.052 29.1699   1
   1   1  -6 469.898 32.4433   2
  -1  -1   6 404.915 33.9697   3
  -1  -1   6 437.224 28.8585   1
  -1  -1   6 432.740 29.1819   1
  -1  -1   6 366.316 32.1113   2
   0   1  -6 82.1317 8.85649   1
   0   1  -6 77.7367 8.34829   1
   0   1  -6 75.4850 9.82797   3
   0   1  -6 85.1341 9.99432   2
   0  -1   6 80.3886 9.87552   2
   0  -1   6 81.2655 8.48007   1
   0  -1   6 88.3578 9.45474   3
   0  -1   6 73.1024 7.94313   1
  -1   1  -6 10.0839 5.00294   2
  -1   1  -6 8.46189 3.25445   1
  -1   1  -6 11.0341 3.61470   3
  -1   1  -6 12.2879 3.65559   1
   1  -1   6 17.5609 5.26377   2
   1  -1   6 10.1488 3.73359   3
   1  -1   6 14.6799 5.34550   6
   1  -1   6 11.1620 2.97122   1
   1  -1   6 10.5018 3.82652   1
   2  -1   6 8.77981 3.14584   1
   2  -1   6 19.6918 4.83274   2
   2  -1   6 -0.0473 2.27453   1
   2  -1   6 9.99748 3.63886   3
   2  -1   6 18.0430 6.42583   6
   3  -1   6 13.8805 3.79856   3
   3  -1   6 4.38366 4.70389   2
   3  -1   6 21.1315 7.62803   6
   4  -1   6 -1.1663 1.31865   9
   4  -1   6 1.04889 3.21334  15
   4  -1   6 -1.3299 2.32707   3
   4  -1   6 0.93972 1.92587  14
   4  -1   6 -0.3646 0.96503  10
   4  -1   6 1.49210 4.17770   2
   4  -1   6 1.09359 6.99380   6
   4  -1   6 -0.6728 2.51729  13
   4  -1   6 -1.6172 3.27582  16
   5  -1   6 59.5605 13.9890   6
   5  -1   6 52.2586 4.46310  10
   5  -1   6 51.6766 6.77653  14
   5  -1   6 38.4711 6.90107  16
   5  -1   6 52.8934 6.80826  13
   5  -1   6 43.1657 7.69767  15
   6  -1   6 171.787 14.1794  14
   6  -1   6 136.851 22.5422   6
   6  -1   6 149.538 10.7152  10
   6  -1   6 164.833 15.1399  15
   6  -1   6 170.532 15.1262  16
   7  -1   6 121.053 11.2035  14
   7  -1   6 128.091 12.5707  16
   7  -1   6 105.615 11.9389  15
   8  -1   6 77.6483 9.48669  16
   8  -1   6 81.7315 9.81614  15
   8   0  -6 2.62564 3.50543  17
   8   0  -6 -1.2861 2.66427  18
   7   0  -6 35.4664 5.49059  17
   7   0  -6 24.0393 5.91280  18
   6   0  -6 14.8447 3.79616  18
   6   0  -6 7.09341 4.00000  11
   6   0  -6 8.61588 4.50151  16
   6   0  -6 11.3168 3.39043  17
   6   0  -6 7.03616 1.79406  10
   5   0  -6 187.902 15.3546   2
   5   0  -6 197.086 15.4893  16
   5   0  -6 182.931 22.7815   7
   5   0  -6 152.572 15.7108   3
   5   0  -6 160.160 15.1952  17
   5   0  -6 175.118 15.5039  18
   5   0  -6 185.197 15.2029  11
   5   0  -6 175.945 21.3898   4
   5   0  -6 181.740 11.9934   9
   5   0  -6 191.329 12.3645  10
   4   0  -6 0.59101 1.94243  17
   4   0  -6 2.32552 1.49103   9
   4   0  -6 -0.1785 1.55936  10
   4   0  -6 -0.4836 2.72706  11
   4   0  -6 -3.6712 3.97748   7
   4   0  -6 2.68137 2.83643  18
   4   0  -6 5.95494 6.48416   4
   4   0  -6 -1.5915 3.04665   3
   4   0  -6 1.26738 3.01582  16
   4   0  -6 3.66840 4.21724   2
   3   0  -6 112.317 12.0373   2
   3   0  -6 103.627 11.3621   3
   3   0  -6 109.866 12.2831   4
   3   0  -6 87.8294 11.7397   7
   2   0  -6 9.73935 4.17064   1
   2   0  -6 8.45400 3.96140   3
   2   0  -6 10.4944 4.67927   7
   2   0  -6 18.1719 5.68299   2
   1   0  -6 36.1701 5.29988   7
   1   0  -6 26.3594 4.59054   1
   1   0  -6 26.0313 5.43107   2
   1   0  -6 29.5872 4.97981   1
   1   0  -6 35.3216 6.63056   3
  -1   0   6 33.0643 4.59469   1
  -1   0   6 25.3830 5.52999   3
  -1   0   6 24.0079 5.45600   2
  -1   0   6 31.6862 4.81804   1
   0   0  -6 57.6627 6.64568   1
   0   0  -6 55.7715 8.44763   2
   0   0  -6 62.2196 7.66043   3
   0   0  -6 63.9825 7.05601   1
   0   0   6 55.2524 6.20594   1
   0   0   6 68.8963 8.60075   2
   0   0   6 58.6253 6.82595   1
   0   0   6 61.9631 7.14996   3
  -1   0  -6 43.3856 7.30197   3
  -1   0  -6 39.5196 7.38810   2
  -1   0  -6 44.0042 6.07065   1
  -1   0  -6 41.3664 6.50238   1
   1   0   6 38.1645 5.85815   1
   1   0   6 56.8416 6.89726   5
   1   0   6 32.5981 5.18202   1
   1   0   6 52.4437 7.63005   2
   1   0   6 47.8163 6.61520   3
  -2   0  -6 33.8353 5.43646   1
  -2   0  -6 32.8943 5.33639   1
   2   0   6 29.0049 4.93796   1
   2   0   6 40.9231 6.04177   5
   2   0   6 41.6690 6.78244   2
   2   0   6 29.5109 4.63536   1
   2   0   6 34.6737 5.67012   3
   2   0   6 33.3109 6.73124   6
   3   0   6 66.7700 7.44255   3
   3   0   6 64.8855 8.19240   2
   3   0   6 66.7204 9.45776   5
   3   0   6 60.7341 9.73053   6
   4   0   6 9.93266 7.40432   6
   4   0   6 5.09935 3.68847   2
   4   0   6 5.62494 2.58338   3
   5   0   6 21.3891 3.97824  14
   5   0   6 19.0352 2.36799  10
   5   0   6 20.3267 4.78578  15
   5   0   6 15.5070 3.93751  13
   5   0   6 12.1141 4.22329  16
   5   0   6 5.65820 9.05156   6
   6   0   6 12.0342 4.48052  16
   6   0   6 13.2394 3.89115  15
   6   0   6 -6.5913 10.5540   6
   6   0   6 8.76641 3.12544  14
   6   0   6 10.1941 1.59223  10
   6   0   6 6.94847 3.55111  13
   7   0   6 37.3686 7.01892  14
   7   0   6 33.1475 6.64146  16
   7   0   6 31.3557 6.50611  15
   8   0   6 35.4226 6.60528  16
   8   0   6 38.5821 6.44373  14
   8   0   6 23.3552 6.06842  15
   9   0   6 3.80277 2.79246  16
   9   0   6 7.44936 2.85494  15
   8  -1  -6 3.75948 3.30516  17
   8  -1  -6 8.66639 3.33073  18
   7  -1  -6 1.85717 3.00652  18
   7  -1  -6 2.92640 3.76819  17
   6  -1  -6 -3.8533 2.34255  18
   6  -1  -6 -2.4498 3.87958  16
   6  -1  -6 3.37988 1.59659  10
   6  -1  -6 -5.2038 3.24995  17
   5  -1  -6 2.25166 1.76639  10
   5  -1  -6 -3.2292 4.84562   2
   5  -1  -6 1.09362 3.36189  18
   5  -1  -6 0.08018 2.07812  11
   5  -1  -6 -0.1462 6.45944   7
   5  -1  -6 0.51883 1.30818   9
   5  -1  -6 -2.2552 3.27443  16
   5  -1  -6 -1.5281 3.04365  17
   4  -1  -6 188.583 12.8571  10
   4  -1  -6 171.436 21.5848   7
   4  -1  -6 178.602 12.9743   9
   4  -1  -6 185.246 16.1200  18
   4  -1  -6 199.980 19.9495   4
   4  -1  -6 219.956 19.0837   2
   4  -1  -6 175.696 15.1211  11
   4  -1  -6 205.895 18.0298   3
   4  -1  -6 215.242 16.1189  16
   4  -1  -6 167.799 15.5328  17
   3  -1  -6 116.431 13.8575   4
   3  -1  -6 124.207 13.3462   3
   3  -1  -6 140.770 14.1102   2
   3  -1  -6 132.152 15.3316   7
   2  -1  -6 38.5511 6.48494   2
   2  -1  -6 24.5959 5.64039   3
   2  -1  -6 27.6322 6.38427   7
   2  -1  -6 24.9815 4.68145   1
   1  -1  -6 11.4970 3.98393   7
   1  -1  -6 18.9597 5.25187   2
   1  -1  -6 9.42146 3.81598   1
   1  -1  -6 7.77318 3.62188   1
   1  -1  -6 15.0196 4.83861   3
  -1   1   6 7.24579 2.83013   1
  -1   1   6 6.69794 4.29420   2
  -1   1   6 10.9040 3.42508   1
  -1   1   6 6.91695 3.97366   3
   0  -1  -6 235.559 19.6478   2
   0  -1  -6 241.143 17.4944   1
   0  -1  -6 224.671 18.6824   7
   0  -1  -6 239.939 17.3854   1
   0  -1  -6 249.852 20.4370   3
   0   1   6 242.752 17.4207   1
   0   1   6 231.697 17.0329   1
   0   1   6 239.943 18.2196   5
   0   1   6 226.148 19.8971   3
   0   1   6 258.761 19.7261   2
  -1  -1  -6 501.381 39.5146   3
  -1  -1  -6 517.544 33.1007   1
  -1  -1  -6 493.292 33.2371   1
  -1  -1  -6 455.732 36.6878   2
   1   1   6 493.982 36.6661   5
   1   1   6 510.744 36.7242   2
   1   1   6 503.357 32.9892   1
   1   1   6 533.048 39.1391   3
   1   1   6 483.330 32.7197   1
  -2  -1  -6 50.7117 5.98974   1
  -2  -1  -6 47.0675 6.23562   1
   2   1   6 50.6499 7.82923   6
   2   1   6 44.6206 6.86571   2
   2   1   6 43.5788 5.80498   1
   2   1   6 46.0970 5.22376   1
   2   1   6 45.1029 7.41553   5
   2   1   6 54.5219 6.42174   3
   3   1   6 359.427 30.7908   2
   3   1   6 470.298 31.5615   2
   3   1   6 446.400 33.0627   5
   3   1   6 455.590 34.8412   6
   3   1   6 372.177 27.7125   1
   3   1   6 449.200 33.1192   3
   4   1   6 330.381 22.6046   2
   4   1   6 289.900 23.9524   3
   4   1   6 272.455 22.0456   2
   4   1   6 315.913 23.6860   3
   4   1   6 327.781 26.0644   5
   4   1   6 274.681 27.6321   6
   5   1   6 146.654 9.91963  10
   5   1   6 165.125 13.3600  14
   5   1   6 151.026 12.9579  13
   5   1   6 145.219 17.4883   5
   5   1   6 159.609 12.9632  12
   5   1   6 134.835 13.1754  16
   5   1   6 143.782 13.9646  15
   5   1   6 144.738 17.8295   6
   6   1   6 10.5338 4.41795  15
   6   1   6 7.78250 7.36965   6
   6   1   6 -0.9828 2.68409  12
   6   1   6 11.5646 3.18186  13
   6   1   6 6.54311 3.52683  16
   6   1   6 14.2260 4.04300  14
   6   1   6 6.41638 0.94053  10
   7   1   6 19.2515 4.76026  14
   7   1   6 12.4175 3.76777  13
   7   1   6 13.7464 5.31144  15
   7   1   6 17.3147 4.04490  16
   7   1   6 13.7662 12.0464   6
   8   1   6 2.32953 3.86374  16
   8   1   6 3.51668 3.49195  14
   8   1   6 0.01390 2.91610  15
   9   1   6 22.1649 4.31188  15
   9   1   6 13.1653 4.20015  16
   8  -2  -6 8.35495 2.45074  17
   7  -2  -6 3.29407 4.46631  18
   7  -2  -6 3.59991 3.78168  17
   6  -2  -6 1.08765 3.29872  18
   6  -2  -6 1.55175 3.80855  16
   6  -2  -6 1.42382 1.63372  10
   6  -2  -6 0.27005 2.77032  17
   5  -2  -6 13.7614 3.44810  16
   5  -2  -6 20.9493 3.48373  10
   5  -2  -6 -6.3589 11.0641   7
   5  -2  -6 15.1678 2.32979   9
   5  -2  -6 10.6778 6.88818   2
   5  -2  -6 14.8574 4.14261  18
   5  -2  -6 9.97283 3.90111  17
   4  -2  -6 68.8386 8.29153  17
   4  -2  -6 70.4666 10.6978   3
   4  -2  -6 115.253 16.4792   7
   4  -2  -6 77.8933 6.59376   9
   4  -2  -6 82.9968 11.9762   2
   4  -2  -6 86.7568 8.61844  16
   4  -2  -6 76.9011 6.64514  10
   4  -2  -6 88.9157 9.21686  18
   3  -2  -6 3.77018 3.04399  18
   3  -2  -6 1.19483 4.36553   7
   3  -2  -6 6.90669 2.17868   9
   3  -2  -6 3.83694 4.87837   2
   3  -2  -6 3.18340 4.08739   3
   3  -2  -6 2.55535 1.46819   8
   3  -2  -6 2.66163 5.09428   4
   2  -2  -6 45.3562 8.38687   2
   2  -2  -6 42.2239 8.33449   7
   2  -2  -6 60.3778 8.29321   3
   1  -2  -6 482.065 35.0842   1
   1  -2  -6 549.117 40.8854   7
   1  -2  -6 565.489 39.4293   2
   1  -2  -6 500.933 35.3103   1
   1  -2  -6 596.284 42.2330   3
  -1   2   6 488.302 35.2267   1
  -1   2   6 504.278 35.2646   1
   0  -2  -6 145.348 12.7617   7
   0  -2  -6 142.338 13.7700   3
   0  -2  -6 172.943 12.4975   1
   0  -2  -6 149.300 12.0610   1
   0  -2  -6 139.345 13.3303   2
   0   2   6 149.658 13.7478   3
   0   2   6 148.966 11.9944   1
   0   2   6 143.318 12.1483   5
   0   2   6 142.829 11.7505   1
   0   2   6 153.535 13.5515   2
  -1  -2  -6 52.8910 6.32606   1
  -1  -2  -6 67.2048 6.62727   1
  -1  -2  -6 57.9705 7.20069   3
  -1  -2  -6 50.9570 6.98539   2
   1   2   6 63.8549 6.33255   1
   1   2   6 46.9198 5.66950   1
   1   2   6 56.6107 7.33654   3
   1   2   6 61.6274 7.19757   2
   1   2   6 58.4081 7.00861   5
  -2  -2  -6 -1.5991 2.57698   1
  -2  -2  -6 -3.8609 2.49433   1
   2   2   6 -2.0191 2.81665   2
   2   2   6 0.29994 2.37254   1
   2   2   6 1.58357 2.20155   1
   2   2   6 -1.2393 3.46669   5
   2   2   6 0.08837 2.38314   3
   3   2   6 71.1422 7.64363   2
   3   2   6 65.1813 8.63878   5
   3   2   6 80.3283 10.7608   6
   3   2   6 86.9075 7.76907   3
   3   2   6 46.7321 7.11906   2
   3   2   6 63.4684 6.41777   1
   4   2   6 20.7169 3.89045   3
   4   2   6 19.5661 3.75795   2
   4   2   6 22.1138 6.59393   5
   4   2   6 31.8063 7.14432   6
   4   2   6 18.4698 3.76975   3
   4   2   6 25.4971 4.29510   2
   5   2   6 35.5834 9.22133   6
   5   2   6 32.0804 6.23859  15
   5   2   6 34.0093 5.61021  14
   5   2   6 34.3410 3.98265  11
   5   2   6 39.0649 5.47587  12
   5   2   6 35.5230 9.15137   5
   5   2   6 34.3101 3.05019  10
   5   2   6 37.1532 5.81509  13
   6   2   6 86.8609 8.33084  12
   6   2   6 81.1075 9.71689  15
   6   2   6 87.0829 8.51485  13
   6   2   6 84.1901 7.17689  11
   6   2   6 60.3012 13.8158   6
   6   2   6 84.3101 13.5708   5
   6   2   6 86.6281 8.63337  14
   6   2   6 63.8724 7.91232  16
   7   2   6 1.70325 2.52116  12
   7   2   6 -1.9667 3.42372  14
   7   2   6 -1.4200 2.58127  15
   7   2   6 -3.3120 2.28465  13
   7   2   6 4.13126 3.38438  16
   8   2   6 0.90321 2.74846  13
   8   2   6 -2.2358 3.16077  14
   8   2   6 2.77778 3.39610  16
   8   2   6 5.07849 4.33386  15
   9   2   6 14.5518 3.50622  16
   9   2   6 15.0500 3.38582  14
   9   2   6 8.49466 4.34728  15
   7  -3  -6 -2.6309 2.28760  17
   7  -3  -6 7.59483 3.43676  18
   6  -3  -6 4.85761 1.54762  10
   6  -3  -6 2.65807 3.62473  18
   6  -3  -6 3.16512 2.92145  16
   6  -3  -6 4.97184 3.21964  17
   5  -3  -6 39.1609 4.19362  10
   5  -3  -6 37.4084 5.58740  16
   5  -3  -6 39.3434 4.03057   9
   5  -3  -6 39.4430 7.03692  17
   5  -3  -6 51.5619 8.41783  18
   5  -3  -6 33.1933 11.7624   7
   4  -3  -6 -0.9565 2.92256  18
   4  -3  -6 0.75057 6.55075   2
   4  -3  -6 5.26438 2.71730  17
   4  -3  -6 0.99022 2.03337  10
   4  -3  -6 3.52872 2.21562  16
   4  -3  -6 1.30292 2.14562   9
   4  -3  -6 0.34300 4.75954   3
   4  -3  -6 -7.8212 9.83847   7
   3  -3  -6 24.4431 3.29106  10
   3  -3  -6 23.9312 4.21330   9
   3  -3  -6 24.7704 4.25601  17
   3  -3  -6 30.2136 8.04344   7
   3  -3  -6 23.6993 3.14900   8
   3  -3  -6 21.9212 7.00676   3
   3  -3  -6 13.8675 6.55624   2
   2  -3  -6 64.3474 9.66022   7
   2  -3  -6 61.9678 9.67166   3
   2  -3  -6 56.8266 8.99167   2
   1  -3  -6 229.763 19.4818   1
   1  -3  -6 272.306 22.2129   7
   1  -3  -6 255.358 22.0351   2
   1  -3  -6 255.127 22.4863   3
  -1   3   6 233.248 19.3251   1
   0  -3  -6 218.339 16.7399   1
   0  -3  -6 220.433 19.3982   3
   0  -3  -6 231.980 17.0130   1
   0  -3  -6 210.698 18.7190   2
   0  -3  -6 202.476 18.1683   7
   0   3   6 241.358 19.4276   2
   0   3   6 199.156 16.4268   1
   0   3   6 204.233 17.2970   5
   0   3   6 230.325 19.4606   3
   0   3   6 231.398 17.1469   1
  -1  -3  -6 126.352 10.6238   1
  -1  -3  -6 99.0336 10.0427   1
  -1  -3  -6 102.639 11.5828   3
  -1  -3  -6 80.4248 8.98522   7
  -1  -3  -6 96.8877 11.7488   2
   1   3   6 119.507 11.3013   3
   1   3   6 100.992 9.51649   1
   1   3   6 122.082 10.9491   5
   1   3   6 113.615 10.0688   1
   1   3   6 121.648 11.7255   2
  -2  -3  -6 0.22305 3.04015   1
  -2  -3  -6 2.31252 3.05680   1
   2   3   6 -0.4553 2.05261   1
   2   3   6 -1.1421 3.45741   5
   2   3   6 3.00087 2.82207   1
   2   3   6 0.83431 2.76774   3
   2   3   6 1.28067 3.02262   2
   3   3   6 1.23438 2.72731   2
   3   3   6 2.27094 2.47274   3
   3   3   6 -2.1601 4.15228   6
   3   3   6 2.36193 4.46955   5
   4   3   6 656.366 43.4576   2
   4   3   6 589.611 47.9052   6
   4   3   6 565.798 43.0816   2
   4   3   6 650.001 46.5995   3
   4   3   6 589.604 46.5325   3
   4   3   6 612.226 47.6364   5
   5   3   6 5.96219 2.59557  13
   5   3   6 1.18300 2.85288  12
   5   3   6 7.02706 5.24375   6
   5   3   6 6.06066 3.27194  15
   5   3   6 8.91375 7.38607   5
   5   3   6 6.48413 1.92569  11
   5   3   6 8.21269 3.30817  14
   5   3   6 5.15250 1.17922  10
   6   3   6 110.965 9.87445  12
   6   3   6 101.646 10.0008  14
   6   3   6 103.801 15.0028   5
   6   3   6 90.5079 9.85703  13
   6   3   6 94.7729 10.6788  15
   6   3   6 111.098 9.18234  11
   7   3   6 124.242 11.8929  12
   7   3   6 144.585 13.1340  14
   7   3   6 135.536 11.1113  11
   7   3   6 100.844 19.0024   5
   7   3   6 115.270 12.2883  15
   7   3   6 149.108 13.0511  13
   8   3   6 50.8568 8.30710  15
   8   3   6 54.2796 6.57595  12
   8   3   6 51.5056 8.18840  14
   8   3   6 63.3934 8.26073  13
   9   3   6 18.9448 3.70193  15
   9   3   6 18.3899 4.34087  14
   7  -4  -6 9.26098 3.14623  18
   7  -4  -6 11.2666 2.91301  17
   6  -4  -6 8.47395 4.35508  17
   6  -4  -6 6.54582 1.70420  10
   6  -4  -6 10.7874 4.11430  18
   5  -4  -6 5.83989 3.18674  17
   5  -4  -6 7.10986 4.13353  18
   5  -4  -6 6.46594 2.78534  10
   5  -4  -6 9.72940 2.30090   9
   4  -4  -6 293.545 22.7889  18
   4  -4  -6 256.492 17.4808  10
   4  -4  -6 235.495 21.0429  17
   4  -4  -6 223.195 27.6666   7
   4  -4  -6 240.587 25.1045   2
   4  -4  -6 258.106 17.6382   9
   3  -4  -6 17.2142 4.06975  17
   3  -4  -6 14.9270 8.02388   2
   3  -4  -6 22.6458 3.67923   9
   3  -4  -6 16.3491 10.0904   7
   3  -4  -6 11.7955 6.55483   3
   3  -4  -6 15.6903 2.38325   8
   3  -4  -6 16.8102 3.22940  10
   2  -4  -6 100.826 12.9661   3
   2  -4  -6 77.4797 6.62312   8
   2  -4  -6 92.9970 13.9090   7
   2  -4  -6 76.9128 13.1233   2
   1  -4  -6 31.3765 8.22662   2
   1  -4  -6 30.8763 7.02178   7
   1  -4  -6 32.1672 7.36617   3
   0  -4  -6 28.4417 6.60998   3
   0  -4  -6 23.7822 5.40849   7
   0  -4  -6 12.7602 5.27420   2
   0  -4  -6 18.4901 5.31615   1
   0   4   6 17.0179 4.47921   1
   0   4   6 30.1213 6.66543   2
   0   4   6 29.6499 5.47998   5
   0   4   6 19.5430 6.07098   3
  -1  -4  -6 12.1464 3.75554   7
  -1  -4  -6 19.6833 5.04221   1
   1   4   6 20.9430 6.01989   2
   1   4   6 30.6609 6.15864   3
   1   4   6 24.4604 5.35744   5
   1   4   6 18.8925 5.39267   1
   2   4   6 -0.9584 2.37544   5
   2   4   6 2.36323 3.26267   3
   2   4   6 0.98384 3.82458   2
   2   4   6 1.71669 3.62094   1
   3   4   6 772.411 58.2597   5
   3   4   6 786.240 60.1126   3
   3   4   6 742.643 58.3252   6
   3   4   6 807.492 55.8274   2
   4   4   6 180.216 15.0441   3
   4   4   6 135.009 16.1231   6
   4   4   6 181.525 14.5456   2
   4   4   6 165.123 17.8909   5
   5   4   6 11.2288 1.89137  10
   5   4   6 7.16403 2.51214  18
   5   4   6 15.0212 3.95201  14
   5   4   6 7.60907 7.00444   5
   5   4   6 9.33298 2.71603  15
   5   4   6 8.77872 2.69478  11
   5   4   6 10.5952 3.90150  13
   5   4   6 9.19197 3.39610  12
   6   4   6 38.7573 4.88008  18
   6   4   6 32.5984 6.52881  14
   6   4   6 39.8347 6.22122  12
   6   4   6 12.6089 9.51309   5
   6   4   6 34.5939 6.46133  13
   6   4   6 26.8603 4.93963  15
   6   4   6 37.6475 4.44202  11
   7   4   6 10.0184 4.36046  14
   7   4   6 11.6807 3.22928  11
   7   4   6 13.2512 12.7124   5
   7   4   6 8.03430 4.02420  12
   7   4   6 17.2651 4.88463  13
   7   4   6 12.7576 4.08563  15
   8   4   6 34.0678 6.42696  15
   8   4   6 50.2657 7.74817  14
   8   4   6 61.7727 6.31852  11
   8   4   6 49.9165 8.24769  13
   8   4   6 64.4041 6.73599  12
   9   4   6 52.4404 6.34481  14
   9   4   6 60.9805 7.81688  13
   6  -5  -6 0.49863 2.87064  18
   6  -5  -6 1.59826 1.67458  10
   6  -5  -6 -2.0428 2.50369  17
   5  -5  -6 -0.1712 3.89939  17
   5  -5  -6 0.03204 2.38853  10
   5  -5  -6 -0.0072 1.64183   9
   5  -5  -6 0.10473 4.65739  18
   4  -5  -6 -7.0134 4.29871  18
   4  -5  -6 -0.2546 2.65464  17
   4  -5  -6 -0.0416 1.82816   9
   4  -5  -6 -0.9155 2.46869  10
   3  -5  -6 3.62440 3.55688  17
   3  -5  -6 1.67220 1.85949  10
   3  -5  -6 -14.518 8.72364   2
   3  -5  -6 -4.1218 2.59386   9
   3  -5  -6 0.92506 1.88059   8
   3  -5  -6 -10.010 10.2034   7
   2  -5  -6 327.319 30.4230   2
   2  -5  -6 289.287 25.2308  17
   2  -5  -6 311.866 30.5221   3
   2  -5  -6 370.249 32.2673   7
   2  -5  -6 323.591 22.5521   9
   2  -5  -6 355.323 21.1771   8
   1  -5  -6 -2.0369 7.20830   2
   1  -5  -6 0.38915 5.55435   3
   1  -5  -6 5.33737 6.02755   7
   0  -5  -6 14.5934 5.78106   7
   0   5   6 4.47675 4.10673   5
  -1  -5  -6 27.8559 6.03547   7
   1   5   6 49.1349 9.00749   2
   1   5   6 45.4385 7.82834   5
   1   5   6 40.6410 7.29526   3
   2   5   6 3.58152 3.14935   5
   2   5   6 -2.7831 3.83594   3
   2   5   6 1.92111 4.30824   2
   3   5   6 2.20503 3.61221   2
   3   5   6 8.08982 4.14113   5
   3   5   6 3.18259 3.02903   3
   4   5   6 -0.3305 1.94366  12
   4   5   6 -2.3764 2.78357  14
   4   5   6 -0.1369 5.70730   5
   4   5   6 2.39447 2.10750  11
   4   5   6 4.36609 2.98709  13
   4   5   6 1.93170 3.45741   3
   4   5   6 2.01062 1.44521  10
   4   5   6 1.91518 1.32341   9
   4   5   6 -1.9495 2.93365   2
   5   5   6 90.2248 9.46062  14
   5   5   6 117.236 16.4236   5
   5   5   6 89.9066 9.39623  13
   5   5   6 96.8867 6.88556  10
   5   5   6 89.1397 8.95032  12
   5   5   6 102.165 8.60098  11
   6   5   6 373.637 30.7622  14
   6   5   6 376.701 36.9157   5
   6   5   6 414.218 28.6661  11
   6   5   6 410.648 30.5707  12
   6   5   6 365.619 24.4314  10
   6   5   6 389.525 31.1410  13
   7   5   6 42.2452 5.56593  11
   7   5   6 31.9698 6.06303  14
   7   5   6 32.5117 6.24238  13
   7   5   6 32.0006 5.80128  12
   7   5   6 9.08419 14.6919   5
   8   5   6 3.24801 2.85118  14
   8   5   6 2.57660 3.08107  13
   8   5   6 -3.8863 3.46690  12
   8   5   6 1.38278 2.24540  11
   9   5   6 0.77406 2.89372  13
   9   5   6 3.91255 2.56383  12
   9   5   6 2.25678 2.37017  14
   6  -6  -6 29.8728 5.17665  17
   6  -6  -6 52.9526 3.58640  10
   5  -6  -6 197.935 13.5177  10
   5  -6  -6 180.979 16.3152  17
   5  -6  -6 209.663 17.1209  18
   4  -6  -6 10.0672 5.47771  18
   4  -6  -6 18.9910 3.62150   9
   4  -6  -6 20.0611 4.20675  17
   4  -6  -6 20.1316 3.70592  10
   3  -6  -6 67.1623 5.71962   8
   3  -6  -6 39.6489 16.7526   7
   3  -6  -6 63.7815 6.23767  10
   3  -6  -6 73.6122 7.48739   9
   3  -6  -6 54.9251 8.07110  17
   2  -6  -6 10.5882 8.26372   7
   2  -6  -6 13.1280 11.1314   2
   2  -6  -6 11.7619 2.25311   8
   2  -6  -6 3.45836 2.49370   9
   2  -6  -6 5.32004 3.67136  17
   1  -6  -6 35.3946 9.96253   7
   1  -6  -6 52.3799 5.13553   8
   0  -6  -6 13.5867 6.15972   7
   0   6   6 32.0966 7.07241   5
  -1  -6  -6 6.85427 5.23950   7
   1   6   6 10.2155 5.89213   3
   1   6   6 11.4362 5.59334   5
   1   6   6 12.8468 6.74637   2
   2   6   6 3.37732 4.05667   2
   2   6   6 5.31949 1.44703   8
   2   6   6 2.94170 4.59802   3
   2   6   6 10.7489 5.71572   5
   3   6   6 6.95339 2.28098   9
   3   6   6 6.72793 5.01995   2
   3   6   6 3.29703 4.33412   3
   3   6   6 4.24038 2.26900  13
   3   6   6 6.66730 2.13109  10
   3   6   6 11.0728 5.08414   5
   3   6   6 5.67169 1.52517   8
   4   6   6 134.389 17.2496   5
   4   6   6 118.449 13.3824   2
   4   6   6 124.120 14.0158   3
   4   6   6 133.425 9.50517  10
   4   6   6 142.804 12.4366  14
   4   6   6 151.489 10.7185  11
   4   6   6 122.914 12.0941  13
   4   6   6 125.013 9.53966   9
   4   6   6 124.885 11.5582  12
   5   6   6 -4.8847 5.06249   5
   5   6   6 -0.3400 3.49785   3
   5   6   6 0.40007 1.37576  10
   5   6   6 0.44829 2.07873  12
   5   6   6 3.54914 2.45946  11
   5   6   6 1.10611 1.02195   9
   5   6   6 -0.9104 4.12688   2
   5   6   6 2.50519 3.37401  14
   5   6   6 2.99730 2.53109  13
   6   6   6 565.108 43.3329  12
   6   6   6 550.899 35.5203  10
   6   6   6 606.785 40.8211  11
   6   6   6 528.325 48.5524   5
   6   6   6 566.301 44.4599  13
   6   6   6 550.826 43.3250  14
   7   6   6 46.5460 8.04473  14
   7   6   6 48.4900 8.12653  13
   7   6   6 45.1385 5.50992  11
   7   6   6 51.1295 7.58689  12
   8   6   6 35.9923 5.86573  14
   8   6   6 53.2484 6.98250  13
   8   6   6 40.3207 5.01955  11
   8   6   6 34.6779 5.65593  12
   9   6   6 14.9453 4.07828  12
   9   6   6 12.8523 3.96215  13
   5  -7  -6 20.3835 4.15509  18
   5  -7  -6 26.6415 3.23372  10
   5  -7  -6 21.3058 4.24613  17
   4  -7  -6 6.33583 2.21835  10
   4  -7  -6 1.52661 2.51789   9
   4  -7  -6 3.48971 4.17341  18
   4  -7  -6 1.88810 2.90626  17
   3  -7  -6 20.0790 3.45349  10
   3  -7  -6 29.7965 3.62672   8
   3  -7  -6 19.4375 4.17780  17
   3  -7  -6 20.9402 3.67754   9
   2  -7  -6 3.25306 3.38798   9
   2  -7  -6 22.9681 15.0169   7
   2  -7  -6 5.01602 2.70321   8
   2  -7  -6 0.49925 2.54032  17
   1  -7  -6 -0.1418 2.73145   8
   1  -7  -6 5.12965 10.8517   7
   0  -7  -6 42.2781 11.5210   7
   0   7   6 32.7732 7.67654   5
   1   7   6 15.0277 2.95117   8
   1   7   6 18.2752 7.68587   5
   2   7   6 148.670 11.8853   9
   2   7   6 162.298 13.3978  13
   2   7   6 173.129 18.8089   2
   2   7   6 149.621 10.8604   8
   2   7   6 159.715 17.3303   5
   2   7   6 156.580 18.4822   3
   3   7   6 19.7069 3.20301  10
   3   7   6 23.4156 7.60329   2
   3   7   6 17.5240 7.01000   3
   3   7   6 23.6374 3.51040   9
   3   7   6 24.2989 3.02675   8
   3   7   6 18.3209 3.87067  13
   3   7   6 19.2931 7.06156   5
   4   7   6 3.05294 2.04439  10
   4   7   6 1.10923 4.96873   3
   4   7   6 2.81330 1.51246   9
   4   7   6 2.73059 2.67327  12
   4   7   6 1.44300 6.55428   2
   4   7   6 5.58862 6.20067   5
   4   7   6 4.37470 2.61348  13
   4   7   6 1.46286 3.72006  14
   5   7   6 11.2545 2.15341   9
   5   7   6 7.45642 5.22809   3
   5   7   6 10.9229 4.23697  13
   5   7   6 10.5094 4.48884  14
   5   7   6 13.0886 6.24620   2
   5   7   6 9.15403 3.73850  12
   5   7   6 9.22830 2.36382  10
   5   7   6 13.8264 3.28925  11
   5   7   6 13.2943 10.3449   5
   6   7   6 4.68306 3.11357  13
   6   7   6 -0.6177 2.64521  14
   6   7   6 0.63511 1.98748  11
   6   7   6 -3.7734 8.86970   5
   6   7   6 -1.0824 2.35723  12
   6   7   6 0.40741 1.40784  10
   7   7   6 -1.0371 2.95536  13
   7   7   6 0.81715 2.98022  11
   7   7   6 3.09515 2.64765  12
   7   7   6 -0.0432 3.74116  14
   8   7   6 2.37736 3.46474  13
   8   7   6 6.95406 3.56271  12
   9   7   6 379.470 30.6380  12
   9   7   6 423.836 31.8702  13
   4  -8  -6 -1.4306 1.86269  10
   4  -8  -6 2.65037 2.47111  17
   4  -8  -6 -0.7946 1.74853   9
   4  -8  -6 0.25138 3.10030  18
   3  -8  -6 4.96550 3.21960   9
   3  -8  -6 1.06628 2.89513  10
   3  -8  -6 6.79021 3.95007  17
   3  -8  -6 3.04322 2.97895  18
   2  -8  -6 64.3913 6.24321   8
   2  -8  -6 58.0961 8.22953  17
   2  -8  -6 59.4120 6.59488   9
   1  -8  -6 -0.1618 2.80257   8
   0  -8  -6 5.71511 2.58712   8
   1   8   6 5.04914 8.19977   5
   1   8   6 10.1854 2.77600   8
   2   8   6 7.06468 2.42544   9
   2   8   6 0.85097 6.09416   3
   2   8   6 1.57816 8.84814   5
   2   8   6 8.15007 6.69150   2
   2   8   6 6.54637 2.34386   8
   2   8   6 8.17965 3.48469  13
   3   8   6 14.6667 3.24620   9
   3   8   6 1.84276 7.18055   3
   3   8   6 12.2791 3.87146  13
   3   8   6 10.2320 2.81817  10
   3   8   6 14.8925 7.26782   5
   3   8   6 -4.8284 8.31711   2
   3   8   6 15.7958 2.36718   8
   4   8   6 -9.2826 6.74561   2
   4   8   6 3.89408 3.56592  13
   4   8   6 6.52408 3.99713  14
   4   8   6 3.67994 2.24564   9
   4   8   6 1.45485 2.13897  10
   4   8   6 6.38646 10.5376   5
   5   8   6 32.4558 5.96371  14
   5   8   6 30.7538 5.97455  13
   5   8   6 23.3680 4.63354  12
   5   8   6 15.6621 13.6724   5
   5   8   6 35.0168 4.15304  10
   5   8   6 29.7623 3.81064   9
   6   8   6 2.50971 1.70997  10
   6   8   6 6.49890 3.59934  13
   6   8   6 2.50279 3.49369  12
   6   8   6 5.05978 3.06624  14
   7   8   6 12.0721 4.26723  13
   7   8   6 3.09205 3.84051  12
   8   8   6 6.85417 3.80783  13
   8   8   6 0.09860 2.34433  12
   9   8   6 18.5829 3.49260  12
   9   8   6 6.55265 3.10311  13
   3  -9  -6 11.5912 2.43427   9
   3  -9  -6 5.61827 2.47639  18
   2  -9  -6 2.40305 2.09079   8
   2  -9  -6 5.30697 2.56647   9
   1  -9  -6 25.7122 4.29390   8
   0  -9  -6 13.0138 3.61799   8
   0   9   6 2.35511 1.90491   8
   1   9   6 165.291 12.0570   8
   2   9   6 9.95179 8.67913   5
   2   9   6 2.95809 3.28669  13
   2   9   6 5.36970 2.34145   8
   2   9   6 2.95580 2.31001   9
   3   9   6 67.4036 7.16457  13
   3   9   6 37.2172 14.5161   5
   3   9   6 64.3084 6.66313   9
   3   9   6 57.2847 5.10251   8
   3   9   6 54.8198 6.22097  10
   4   9   6 100.048 11.0930  14
   4   9   6 96.3913 8.58972   9
   4   9   6 106.517 11.0675  13
   4   9   6 109.008 8.59355  10
   5   9   6 27.9351 4.14277  10
   5   9   6 20.3722 4.97142  14
   5   9   6 23.8084 3.19695   9
   5   9   6 22.2002 5.35379  13
   6   9   6 2.95860 3.49683  12
   6   9   6 7.94484 4.69265  13
   6   9   6 6.18957 2.06221  10
   7   9   6 -6.2208 3.99461  13
   7   9   6 4.49327 2.56968  12
   8   9   6 2.42598 2.28283  12
   8   9   6 4.90303 3.24357  13
   2 -10  -6 2.84087 2.31405  18
   2 -10  -6 2.01686 2.13508   9
   1 -10  -6 -2.6593 1.64351   8
   0 -10  -6 6.71370 2.46108   8
   0  10   6 7.89205 2.82294   8
   1  10   6 24.1288 3.39345   8
   1  10   6 15.8365 3.44099  13
   2  10   6 12.0636 3.04644   9
   2  10   6 15.9118 3.56069  13
   2  10   6 13.7631 2.30909   8
   3  10   6 15.0037 3.08983   9
   3  10   6 12.3934 2.27869   8
   3  10   6 17.2317 4.39681  13
   3  10   6 10.2048 3.34178  10
   4  10   6 18.3947 4.83423  13
   4  10   6 21.9586 3.32548  10
   4  10   6 15.9170 4.42062  14
   4  10   6 15.9566 2.78904   9
   5  10   6 10.3836 2.07062   9
   5  10   6 8.68091 3.47308  13
   5  10   6 9.07901 2.22503  10
   6  10   6 10.1778 3.63656  13
   6  10   6 8.85245 2.20381  10
   7  10   6 -0.0502 2.71035  13
   7  10   6 0.18767 1.95940  12
   8  10   6 0.74680 1.84011  12
   8  10   6 3.74375 2.61495  13
   1 -11  -6 5.56099 2.62410   9
   1 -11  -6 0.98486 1.18090   8
  -1  11   6 5.14395 1.70552   8
   0 -11  -6 35.2476 5.14273   8
   0  11   6 39.3751 3.91454   8
  -1 -11  -6 26.8329 4.65286   8
   1  11   6 35.9272 4.29204   8
   2  11   6 -1.0417 1.93795  13
   2  11   6 0.13849 1.62876   8
   2  11   6 4.09269 3.05215   9
   3  11   6 -0.4382 3.12265  13
   3  11   6 0.14524 2.54477   9
   4  11   6 10.6275 3.16914  13
   4  11   6 10.9649 3.05899  10
   4  11   6 12.6728 2.59372   9
   5  11   6 5.21789 2.38187  10
   5  11   6 2.89428 3.31838  13
   6  11   6 5.62288 1.38840  10
   6  11   6 6.54162 2.91781  13
   7  11   6 37.9248 4.86497  13
  -1 -12  -6 0.46062 1.59625   8
   1  12   6 2.47828 1.15769   8
   2  12   6 1.01661 1.68529   9
   3  12   6 0.55201 1.78025  13
   3  12   6 2.41691 1.62731   9
   4  12   6 8.31116 2.05397  10
   4  12   6 10.1547 1.79741   9
   4  12   6 16.1471 3.12144  13
   5  12   6 3.25036 1.31815  10
   5  12   6 1.78306 1.99866  13
   5  10  -7 -1.0684 1.96688  12
   5  10  -7 0.60563 1.10216  10
   4  10  -7 4.14548 2.36092  12
   4  10  -7 3.41831 1.47561   9
   4  10  -7 3.89194 1.78209  10
   3  10  -7 1.60160 1.64915   9
   3  10  -7 2.07298 1.96658  12
   2  10  -7 25.1830 3.72331   9
   2  10  -7 27.5133 2.79293   8
   1  10  -7 8.36916 2.01039   8
  -1 -10   7 6.76064 2.90079   8
   0  10  -7 -0.5066 1.21188   8
   0 -10   7 3.25676 2.21584   8
  -1  10  -7 18.4955 2.71847   8
   1 -10   7 12.8776 3.14996  17
   1 -10   7 19.1368 1.90161   8
   6   9  -7 95.6262 8.87950  12
   6   9  -7 95.8672 6.68746  10
   5   9  -7 31.2949 3.42468  10
   5   9  -7 19.8194 4.64299  12
   4   9  -7 5.49769 2.13437  10
   4   9  -7 5.20388 2.80046  12
   4   9  -7 5.92078 1.72215   9
   3   9  -7 10.3228 1.69627   8
   3   9  -7 15.8503 3.49916  12
   3   9  -7 7.71119 2.32525   9
   2   9  -7 -1.5013 2.09781  12
   2   9  -7 -0.4246 1.81460   8
   2   9  -7 -1.5773 1.96748   9
   1   9  -7 7.99257 2.44960   8
   1   9  -7 2.54175 2.18528  12
   0   9  -7 2.30434 1.70464   8
   0  -9   7 -0.4689 1.89850   8
   2  -9   7 -0.9687 2.38124  17
   2  -9   7 2.16911 2.76182   9
   3  -9   7 -0.1058 1.20486   9
   7   8  -7 -2.3292 2.18778  12
   6   8  -7 43.3178 6.23216  12
   6   8  -7 43.8440 3.78544  10
   5   8  -7 2.53124 2.00474  10
   5   8  -7 0.94793 1.13834   9
   5   8  -7 4.62500 3.03941  12
   4   8  -7 46.0042 6.24841  12
   4   8  -7 39.2374 5.36260  10
   4   8  -7 44.1455 4.88974   9
   3   8  -7 3.82218 2.65623  12
   3   8  -7 2.45356 2.69069   9
   3   8  -7 -1.1708 1.76799  10
   3   8  -7 -0.3327 1.39544   8
   2   8  -7 38.9880 6.13659   9
   2   8  -7 47.5928 4.85237   8
   2   8  -7 48.1071 6.10666  12
   1   8  -7 5.63843 2.46756   8
   0   8  -7 24.4836 3.79689   8
   0  -8   7 22.9655 3.75158   8
   1  -8   7 7.21974 4.64358  16
   1  -8   7 5.87270 3.07950   8
   2  -8   7 42.8725 6.64807   9
   2  -8   7 39.7723 7.74499  16
   2  -8   7 51.6398 4.81988   8
   3  -8   7 16.9660 2.79165   9
   3  -8   7 19.4687 3.29823  10
   3  -8   7 9.22558 3.45363  16
   3  -8   7 15.3142 3.43680  17
   7   7  -7 60.3128 5.89045  11
   7   7  -7 62.6255 8.20292  12
   6   7  -7 3.47207 2.15419  11
   6   7  -7 0.96358 1.11668  10
   6   7  -7 6.91114 4.72785  12
   5   7  -7 36.9089 4.90690  11
   5   7  -7 50.4269 8.28780  12
   5   7  -7 44.1919 4.95129  10
   5   7  -7 47.6218 4.14137   9
   4   7  -7 23.5826 3.58456  10
   4   7  -7 19.5320 3.10641   9
   4   7  -7 34.5150 5.67493  12
   3   7  -7 77.9898 6.15092   8
   3   7  -7 83.7045 8.67980  12
   3   7  -7 86.1533 7.54274   9
   3   7  -7 70.5543 7.35879  10
   2   7  -7 33.6359 3.55667   8
   2   7  -7 28.8519 4.69717   9
   1   7  -7 39.0187 4.29667   8
   0  -7   7 2.55156 3.50812   8
   1  -7   7 17.7646 3.81874   8
   2  -7   7 4.34695 2.56626   8
   2  -7   7 5.20781 2.76133   9
   2  -7   7 6.19122 3.57422  16
   3  -7   7 13.7203 3.05579   9
   3  -7   7 11.3783 1.58189   8
   3  -7   7 11.0622 3.70532  17
   3  -7   7 11.5505 2.92636  10
   3  -7   7 10.9245 4.94166  16
   4  -7   7 185.513 12.4504   9
   4  -7   7 191.848 13.0400  10
   4  -7   7 177.237 15.0789  17
   4  -7   7 145.552 14.9889  16
   5  -7   7 3.83802 2.56850  16
   5  -7   7 5.15807 1.71537  10
   8   6  -7 6.35783 2.21752  11
   7   6  -7 -1.1579 2.96740  18
   7   6  -7 5.32078 4.43913  12
   7   6  -7 0.73395 2.06313  11
   6   6  -7 145.901 16.0102  12
   6   6  -7 191.781 12.2977  10
   6   6  -7 184.723 14.8112  18
   6   6  -7 181.914 14.4476  11
   5   6  -7 8.39970 3.47197  11
   5   6  -7 3.20514 2.21715  10
   5   6  -7 4.53255 4.65198  12
   5   6  -7 9.67549 2.07007   9
   4   6  -7 11.8791 7.36501   4
   4   6  -7 15.0012 3.06370  10
   4   6  -7 26.1454 3.85016   9
   4   6  -7 14.1630 3.69835  11
   4   6  -7 18.5159 5.12404  12
   3   6  -7 -8.7590 7.05735   4
   3   6  -7 2.88985 1.87091   9
   3   6  -7 3.16356 1.61343   8
   3   6  -7 6.03136 7.63105   3
   3   6  -7 4.42534 1.80377  10
   3   6  -7 2.29167 5.79448   2
   2   6  -7 3.26417 7.62806   3
   2   6  -7 -5.8311 5.74692   2
   2   6  -7 1.30993 1.64861   8
   2   6  -7 1.48516 1.79312   9
   1   6  -7 4.48418 2.19334   8
   1  -6   7 233.277 16.1351   8
   2  -6   7 52.4520 6.44032   9
   2  -6   7 56.5931 9.42053  16
   2  -6   7 55.5995 5.49125   8
   3  -6   7 18.5152 4.27317   9
   3  -6   7 10.7999 3.92020  10
   3  -6   7 7.11500 2.00580   8
   3  -6   7 6.23997 3.95097  16
   4  -6   7 -2.0182 3.81544  17
   4  -6   7 5.01350 2.73205   9
   4  -6   7 0.76711 4.74087  16
   4  -6   7 2.74669 2.27734  10
   5  -6   7 32.0054 6.21336  16
   5  -6   7 44.0007 4.31618  10
   6  -6   7 6.84564 2.75690  16
   8   5  -7 8.13495 2.75868  11
   8   5  -7 0.96029 2.21395  18
   7   5  -7 0.94724 2.12926  18
   7   5  -7 0.29139 3.10852  12
   7   5  -7 0.48983 2.49048  11
   6   5  -7 6.31118 1.78919  10
   6   5  -7 3.91974 3.37173  11
   6   5  -7 8.00005 4.08112  12
   6   5  -7 6.74509 3.04197  18
   5   5  -7 30.6519 4.57959  11
   5   5  -7 19.1016 4.96277  12
   5   5  -7 30.2599 3.49678   9
   5   5  -7 25.5975 4.78453  18
   5   5  -7 26.9595 3.81118  10
   5   5  -7 25.6038 8.81070   4
   4   5  -7 23.0455 7.68286   3
   4   5  -7 25.5914 4.48946  11
   4   5  -7 28.3302 4.28349  10
   4   5  -7 23.1779 8.04339   2
   4   5  -7 36.3650 6.04850  12
   4   5  -7 30.8509 4.01593   9
   4   5  -7 26.3013 9.52450   4
   3   5  -7 185.940 19.7770   4
   3   5  -7 161.062 14.4674  11
   3   5  -7 194.938 12.2847   8
   3   5  -7 180.399 20.4219   3
   3   5  -7 198.842 13.5413   9
   3   5  -7 211.197 20.2861   2
   3   5  -7 183.624 13.0426  10
   2   5  -7 -8.2716 4.87646   4
   2   5  -7 3.13539 1.38473   8
   2   5  -7 -2.0545 5.37498   3
   1   5  -7 10.0773 1.99637   8
   1  -5   7 -2.2159 2.63773   8
   2  -5   7 0.43061 3.30662   9
   2  -5   7 2.73385 2.52314   8
   2  -5   7 11.5017 10.7996   2
   2  -5   7 0.65404 6.46901   3
   3  -5   7 379.353 26.4520   9
   3  -5   7 379.852 24.3683   8
   3  -5   7 391.774 37.3518   2
   3  -5   7 388.195 31.4790  16
   3  -5   7 375.332 25.8145  10
   4  -5   7 62.3614 6.85761  10
   4  -5   7 54.2830 6.51124   9
   4  -5   7 45.3487 7.08344  17
   4  -5   7 67.0073 8.35475  16
   5  -5   7 77.7092 7.70526  10
   5  -5   7 90.8069 6.40721   9
   5  -5   7 88.9720 11.2587  16
   6  -5   7 4.27704 4.89549  16
   6  -5   7 14.2016 2.33902  10
   8   4  -7 9.55923 2.51878  18
   8   4  -7 10.6406 3.08527  11
   7   4  -7 85.1901 8.69654  11
   7   4  -7 67.9727 7.50630  18
   6   4  -7 2.37560 1.61304  10
   6   4  -7 0.99754 3.33284  12
   6   4  -7 4.89053 2.53297  18
   6   4  -7 4.81709 2.88657  11
   5   4  -7 210.478 17.1107  12
   5   4  -7 189.643 12.4414  10
   5   4  -7 151.895 14.9077  18
   5   4  -7 155.203 21.6817   4
   5   4  -7 179.280 14.7561  11
   5   4  -7 172.133 12.1707   9
   4   4  -7 50.3557 10.2933   4
   4   4  -7 49.9973 6.56624  18
   4   4  -7 80.7328 6.08543  10
   4   4  -7 54.8801 10.6580   3
   4   4  -7 76.9586 6.80959  11
   4   4  -7 59.0349 7.78439  12
   3   4  -7 113.891 8.68185  10
   3   4  -7 118.159 9.16536   9
   3   4  -7 119.999 10.1428  11
   3   4  -7 120.660 15.0131   2
   3   4  -7 117.358 8.00716   8
   3   4  -7 119.318 14.5368   4
   3   4  -7 126.442 14.2263   3
   2   4  -7 20.8558 7.17380   2
   2   4  -7 17.8975 6.04360   3
   2   4  -7 17.0031 2.50711   8
   2   4  -7 7.06555 5.43063   4
   1   4  -7 174.020 20.3117   3
   1   4  -7 231.450 18.6554   4
   1   4  -7 212.718 19.8359   2
   0  -4   7 49.6045 9.61493   6
   1  -4   7 3.23303 6.64359   6
   1  -4   7 8.55412 7.78949   2
   1  -4   7 4.59025 2.04698   8
   1  -4   7 -5.0615 5.27398   3
   2  -4   7 59.1738 10.0898   3
   2  -4   7 60.7007 7.15021  10
   2  -4   7 73.5267 6.39488   8
   2  -4   7 64.2189 13.0690   2
   2  -4   7 73.6615 7.30479   9
   2  -4   7 54.3297 12.4963   6
   3  -4   7 60.4092 7.74112  16
   3  -4   7 44.1754 5.29357  10
   3  -4   7 60.7473 5.04773   8
   3  -4   7 56.1090 6.44323   9
   3  -4   7 30.0107 9.33895   3
   3  -4   7 35.0585 10.4864   6
   3  -4   7 42.9800 11.7084   2
   4  -4   7 181.607 13.9007  10
   4  -4   7 208.989 17.6609  16
   4  -4   7 197.888 14.1224   9
   4  -4   7 177.214 16.6284  17
   4  -4   7 177.272 22.0574   2
   4  -4   7 188.713 25.2911   6
   5  -4   7 60.5807 10.2184  16
   5  -4   7 65.6990 5.46880   9
   5  -4   7 38.4793 8.45891  15
   5  -4   7 67.5744 6.40130  10
   6  -4   7 27.2344 5.62531  16
   6  -4   7 31.6000 3.89746  10
   6  -4   7 26.3641 5.42835  15
   7  -4   7 1.83861 4.54450  16
   8   3  -7 0.28288 2.67543  11
   8   3  -7 2.50578 2.16203  18
   7   3  -7 0.64269 2.44964  18
   7   3  -7 -0.1714 2.49567  17
   7   3  -7 -0.2462 3.73945  11
   6   3  -7 153.700 14.3001  11
   6   3  -7 157.433 11.0384  10
   6   3  -7 175.847 14.4852  17
   6   3  -7 156.498 14.0965  18
   5   3  -7 46.0762 6.75912  11
   5   3  -7 44.4634 5.52113  18
   5   3  -7 33.7755 7.20621   2
   5   3  -7 29.8809 7.30301   3
   5   3  -7 49.5792 4.65656  10
   5   3  -7 40.0179 7.57736  12
   5   3  -7 35.3514 12.3477   4
   5   3  -7 51.1213 6.52202  17
   5   3  -7 46.7348 4.00672   9
   4   3  -7 10.7047 1.93182   9
   4   3  -7 5.08583 6.57668   4
   4   3  -7 4.70043 3.00289  11
   4   3  -7 7.13511 2.39160  18
   4   3  -7 10.4405 6.50088   2
   4   3  -7 9.82866 4.01054  12
   4   3  -7 9.91826 1.99343  10
   4   3  -7 1.86737 4.87969   3
   4   3  -7 14.8133 3.60416  17
   3   3  -7 6.39812 5.66909   2
   3   3  -7 1.97546 2.45978  11
   3   3  -7 -2.2591 3.23950   4
   3   3  -7 -0.0225 1.21852   8
   3   3  -7 -0.5688 1.79601  10
   3   3  -7 -2.2005 3.99457   3
   3   3  -7 2.35940 2.14570   9
   2   3  -7 61.5644 10.1262   3
   2   3  -7 57.5128 10.7702   2
   2   3  -7 72.9347 9.01053   4
   1   3  -7 92.0952 11.8717   2
   1   3  -7 73.0365 8.68594   4
   1   3  -7 85.0786 11.1346   3
  -1  -3   7 63.9441 9.78006   6
   0   3  -7 247.236 18.7838   4
   0   3  -7 203.598 22.0588   2
   0   3  -7 222.903 23.2905   3
   0  -3   7 246.457 21.4432   6
   0  -3   7 223.901 21.8938   3
   0  -3   7 234.800 22.8029   2
   1  -3   7 50.9207 8.06371   3
   1  -3   7 48.8633 9.88460   6
   1  -3   7 58.4618 10.9291   2
   2  -3   7 5.44002 4.45941   3
   2  -3   7 10.7961 6.93954   2
   2  -3   7 8.69684 7.53821   6
   2  -3   7 4.16923 1.74544   8
   3  -3   7 1.79513 1.68408  10
   3  -3   7 4.21084 2.73815  15
   3  -3   7 11.6909 9.19602   6
   3  -3   7 -0.0508 6.00255   2
   3  -3   7 0.17991 1.55653   8
   3  -3   7 1.52839 2.41112   9
   3  -3   7 -2.7808 4.22159   3
   4  -3   7 7.33720 3.02027  14
   4  -3   7 6.01258 1.98221   9
   4  -3   7 5.84433 3.16674  15
   4  -3   7 7.67161 2.20413  10
   4  -3   7 7.48960 7.28178   2
   4  -3   7 6.73313 11.5966   6
   4  -3   7 9.85183 5.05378  16
   4  -3   7 8.09338 5.33741   3
   5  -3   7 32.5672 4.94604  10
   5  -3   7 30.7853 3.83691   9
   5  -3   7 36.4186 13.0876   6
   5  -3   7 39.8490 7.58022  16
   5  -3   7 35.1909 4.97182  14
   5  -3   7 32.7051 5.76278  15
   6  -3   7 10.7641 2.36430  10
   6  -3   7 6.14271 3.72358  15
   6  -3   7 12.4072 4.86354  16
   7  -3   7 143.926 14.5208  16
   7  -3   7 124.395 12.6187  15
   8  -3   7 11.5687 3.03349  16
   8   2  -7 9.55184 3.04637  11
   8   2  -7 10.1516 3.07523  18
   7   2  -7 46.9896 6.52575  18
   7   2  -7 60.6653 6.65627  17
   7   2  -7 50.6486 7.01602  11
   6   2  -7 19.7130 5.24452  11
   6   2  -7 10.6909 3.33195  17
   6   2  -7 14.8946 2.25371  10
   6   2  -7 9.68899 4.05181  18
   5   2  -7 14.2903 9.64860   4
   5   2  -7 6.84923 1.76884  10
   5   2  -7 3.89363 3.41686  11
   5   2  -7 4.92798 1.60721   9
   5   2  -7 -1.6007 4.74348   3
   5   2  -7 2.79566 2.21647  17
   5   2  -7 12.7344 5.14828   2
   5   2  -7 4.20895 2.48402  18
   4   2  -7 303.663 27.1461  18
   4   2  -7 348.843 23.2106   9
   4   2  -7 361.299 27.0239  17
   4   2  -7 365.334 26.0935  11
   4   2  -7 370.068 30.5785   4
   4   2  -7 329.467 27.6650  12
   4   2  -7 365.129 22.8136  10
   4   2  -7 378.798 30.4623   3
   3   2  -7 15.1441 2.69042   9
   3   2  -7 18.0914 6.20732   2
   3   2  -7 15.1784 4.78282   3
   3   2  -7 17.5712 2.43153   8
   3   2  -7 18.7124 3.33345  11
   3   2  -7 9.61120 4.88712   4
   2   2  -7 -2.3014 4.37224   2
   2   2  -7 1.82536 2.78097   4
   2   2  -7 -0.5943 3.70067   3
   1   2  -7 175.565 14.1643   4
   1   2  -7 163.207 15.5107   3
   1   2  -7 128.637 13.1506   1
   1   2  -7 139.821 14.9261   2
  -1  -2   7 113.701 12.6686   1
   0   2  -7 13.9412 5.61260   2
   0   2  -7 10.3645 4.98995   1
   0   2  -7 11.8319 4.71677   1
   0   2  -7 11.0723 5.49746   3
   0  -2   7 11.6299 4.83333   3
   0  -2   7 13.8734 4.32668   1
   0  -2   7 6.86591 4.89646   1
   0  -2   7 7.46535 5.97001   2
   0  -2   7 13.8439 5.45259   6
  -1   2  -7 65.9370 9.85099   1
   1  -2   7 97.9768 12.3308   2
   1  -2   7 93.6101 10.8596   3
   1  -2   7 67.1341 9.91642   1
   1  -2   7 109.610 12.4950   6
   2  -2   7 18.9756 6.63271   2
   2  -2   7 0.46723 6.25532   6
   2  -2   7 10.7680 4.71717   3
   3  -2   7 13.9151 2.16108   8
   3  -2   7 17.2806 6.31424   2
   3  -2   7 9.68417 2.67181   9
   3  -2   7 15.2692 5.29453   3
   3  -2   7 13.8726 8.73929   6
   4  -2   7 23.1747 3.77913   9
   4  -2   7 36.6680 10.2223   6
   4  -2   7 27.9936 3.36005  10
   4  -2   7 27.5101 6.44982   3
   4  -2   7 22.7567 4.05198  14
   4  -2   7 24.0098 5.11405  15
   4  -2   7 40.7791 7.80300  16
   4  -2   7 24.2488 8.34756   2
   5  -2   7 1.65858 2.13414  14
   5  -2   7 -0.7191 4.57243  16
   5  -2   7 2.79054 9.37448   6
   5  -2   7 1.03990 4.09696  15
   5  -2   7 -0.2599 6.25949   2
   5  -2   7 -3.5094 3.21846   3
   5  -2   7 2.33296 1.37701   9
   6  -2   7 -2.3190 4.21810  15
   6  -2   7 1.75382 1.73979  10
   6  -2   7 -1.4349 2.14523  14
   6  -2   7 3.27320 3.65962  16
   7  -2   7 -0.8885 5.18316  16
   7  -2   7 2.37782 3.16325  15
   8  -2   7 35.7672 6.26107  16
   8  -2   7 28.9738 4.84977  15
   8   1  -7 66.6125 6.58911  17
   8   1  -7 37.1029 5.65663  18
   7   1  -7 19.7227 5.00320  18
   7   1  -7 30.5849 6.08576  17
   7   1  -7 36.6153 6.68495  11
   6   1  -7 24.9621 5.48901  11
   6   1  -7 24.0211 4.77453  18
   6   1  -7 23.8152 3.14464  10
   6   1  -7 21.4281 4.12305  17
   5   1  -7 34.3815 5.49539  11
   5   1  -7 32.8561 6.04839  18
   5   1  -7 20.5703 5.94656   3
   5   1  -7 16.3417 11.2625   4
   5   1  -7 33.4335 9.52134   7
   5   1  -7 37.4715 6.91599   2
   5   1  -7 36.8917 5.69927  17
   5   1  -7 33.4729 3.44910   9
   5   1  -7 38.3618 4.12404  10
   4   1  -7 30.8316 3.59196   9
   4   1  -7 29.1458 4.91528  17
   4   1  -7 24.7162 8.55589   4
   4   1  -7 31.5272 8.45758   7
   4   1  -7 43.0311 8.01389   2
   4   1  -7 37.0979 5.63852  11
   4   1  -7 24.8117 4.61184  18
   4   1  -7 26.4072 3.76770  10
   4   1  -7 25.1349 6.70649   3
   3   1  -7 356.512 29.4044   3
   3   1  -7 340.142 28.2183   4
   3   1  -7 323.739 29.6107   7
   3   1  -7 333.147 27.9763   2
   2   1  -7 210.093 19.8530   7
   2   1  -7 210.844 18.9432   4
   2   1  -7 218.154 19.7566   2
   2   1  -7 225.621 20.0960   3
   1   1  -7 130.266 12.8478   1
   1   1  -7 138.570 13.6222   1
   1   1  -7 184.924 16.0488   2
   1   1  -7 177.651 16.1946   3
  -1  -1   7 150.189 12.9656   1
   0   1  -7 21.1563 6.33383   2
   0   1  -7 34.4471 6.80510   3
   0   1  -7 28.0968 5.71165   1
   0   1  -7 24.6926 5.48784   1
   0  -1   7 19.4131 4.64807   1
   0  -1   7 28.5738 5.85827   3
   0  -1   7 43.3071 6.69025   1
   0  -1   7 15.1382 5.93496   2
  -1   1  -7 70.3897 9.22026   1
   1  -1   7 79.7638 9.51199   2
   1  -1   7 90.6669 9.71473   3
   1  -1   7 55.3732 7.59104   1
   1  -1   7 70.9670 8.19902   1
   1  -1   7 78.5626 9.84817   6
   2  -1   7 7.99633 4.83380   2
   2  -1   7 14.7354 4.51958   3
   2  -1   7 7.05897 6.11945   6
   3  -1   7 71.1618 10.0362   2
   3  -1   7 60.7155 8.56426   3
   3  -1   7 60.3518 10.5377   6
   4  -1   7 117.158 12.3388   2
   4  -1   7 123.545 11.7481   3
   4  -1   7 102.289 10.1213  14
   4  -1   7 104.175 10.7070  15
   4  -1   7 111.194 8.33618  10
   4  -1   7 106.957 11.6827  16
   4  -1   7 99.6968 8.22618   9
   4  -1   7 123.022 16.5802   6
   4  -1   7 131.769 10.6079  13
   5  -1   7 54.3283 6.52938  13
   5  -1   7 36.3348 7.50905  15
   5  -1   7 35.6443 13.2811   6
   5  -1   7 43.1167 3.13984   9
   5  -1   7 40.9132 8.12129  16
   5  -1   7 39.5359 4.07228  10
   5  -1   7 39.8851 5.98602   2
   5  -1   7 31.8450 5.18156  14
   5  -1   7 24.3038 5.16076   3
   6  -1   7 3.60317 14.5158   6
   6  -1   7 11.6394 5.26619  15
   6  -1   7 11.3109 3.29844  14
   6  -1   7 7.28215 3.94196  16
   6  -1   7 6.09108 2.01970  10
   7  -1   7 39.5267 7.57875  15
   7  -1   7 54.7987 10.2101  16
   7  -1   7 64.6322 6.87633  14
   8  -1   7 20.2651 4.30808  15
   8  -1   7 20.7400 5.95746  16
   8   0  -7 10.8014 2.62778  17
   8   0  -7 3.25294 2.86242  18
   7   0  -7 29.1039 5.34042  18
   7   0  -7 31.4536 6.19287  17
   6   0  -7 1.46237 1.62891  10
   6   0  -7 3.29171 3.89980  18
   6   0  -7 2.04873 4.07558  11
   6   0  -7 4.80842 2.82537  17
   5   0  -7 4.89664 3.70764  18
   5   0  -7 -1.8713 10.3270   4
   5   0  -7 10.6567 10.7366   7
   5   0  -7 4.78651 3.87336  11
   5   0  -7 2.10924 1.55738   9
   5   0  -7 3.47065 2.04013  10
   5   0  -7 5.75305 5.43526   3
   5   0  -7 3.86222 2.45467  17
   5   0  -7 1.72985 5.28972   2
   4   0  -7 42.5637 8.28801   2
   4   0  -7 37.3245 7.25580   3
   4   0  -7 43.0080 6.55035  16
   4   0  -7 31.8960 8.51436   7
   4   0  -7 34.7391 5.27494  17
   4   0  -7 37.4973 3.65104  10
   4   0  -7 38.9564 5.16775  11
   4   0  -7 35.3131 3.85898   9
   4   0  -7 24.9564 4.60766  18
   4   0  -7 44.0251 10.3913   4
   3   0  -7 0.13956 5.34673   7
   3   0  -7 -3.2990 4.40556   2
   3   0  -7 -3.9281 3.61615   3
   3   0  -7 -0.5352 1.18296   8
   3   0  -7 0.08136 4.72929   4
   2   0  -7 7.63405 5.10326   2
   2   0  -7 5.97654 4.56692   7
   2   0  -7 7.31585 3.55169   3
   1   0  -7 6.99357 4.00230   1
   1   0  -7 -0.8762 3.12560   7
   1   0  -7 1.38067 4.70057   2
   1   0  -7 3.49460 2.96251   3
   1   0  -7 -1.1390 2.16724   1
  -1   0   7 2.15988 2.31291   1
   0   0  -7 124.003 11.9438   1
   0   0  -7 130.709 12.7116   2
   0   0  -7 141.081 11.3600   1
   0   0  -7 125.956 13.5622   3
   0   0   7 130.114 11.1855   1
   0   0   7 113.955 10.9002   1
   0   0   7 124.977 12.9557   3
   0   0   7 129.756 12.6418   2
  -1   0  -7 565.016 38.4426   1
  -1   0  -7 557.334 46.3532   3
  -1   0  -7 599.272 38.0902   1
  -1   0  -7 544.667 42.2724   2
   1   0   7 610.515 45.0444   3
   1   0   7 625.932 42.5375   2
   1   0   7 562.462 37.9698   1
   1   0   7 500.058 37.4638   1
   2   0   7 38.4792 5.87996   3
   2   0   7 41.5706 7.46644   2
   2   0   7 41.5549 6.61608   1
   2   0   7 50.6727 8.28807   6
   2   0   7 47.1621 7.82243   5
   3   0   7 2.87507 3.87024   2
   3   0   7 4.52137 4.32261   5
   3   0   7 2.80660 3.01690   3
   3   0   7 5.44972 6.27559   6
   4   0   7 37.0219 5.10213  13
   4   0   7 27.8132 8.92582   6
   4   0   7 28.4469 5.46285   3
   4   0   7 34.0057 3.59628  10
   4   0   7 33.9779 3.40075   9
   4   0   7 34.3791 6.48885   2
   4   0   7 22.8947 4.88373  15
   5   0   7 15.7480 4.05997  15
   5   0   7 20.2324 2.77415  10
   5   0   7 13.0556 3.98569  14
   5   0   7 6.26324 7.41012   6
   5   0   7 16.6316 3.87124  16
   5   0   7 25.6773 5.11415  13
   6   0   7 -1.5099 8.94981   6
   6   0   7 3.60352 1.20678  10
   6   0   7 2.99464 2.40720  14
   6   0   7 3.77150 4.21223  15
   6   0   7 5.65201 4.29153  16
   6   0   7 2.71288 3.28815  13
   7   0   7 57.6841 8.26924  16
   7   0   7 70.1904 8.34626  14
   7   0   7 46.8240 7.84123  15
   8   0   7 26.5602 6.40673  16
   8   0   7 41.5187 5.60535  14
   8   0   7 46.6463 8.21469  15
   9   0   7 6.13531 2.91784  15
   9   0   7 2.44914 2.43863  16
   8  -1  -7 3.24039 2.23000  17
   8  -1  -7 1.45094 2.53013  18
   7  -1  -7 3.92819 2.71946  17
   7  -1  -7 6.35829 3.23122  18
   6  -1  -7 0.06707 2.69227  18
   6  -1  -7 1.90108 1.73411  10
   6  -1  -7 5.88329 2.75628  17
   5  -1  -7 5.42512 7.02799   2
   5  -1  -7 19.3068 4.60573  16
   5  -1  -7 13.7168 3.45027  17
   5  -1  -7 14.0571 2.26874   9
   5  -1  -7 10.7370 4.30648  18
   5  -1  -7 10.6519 9.06953   7
   5  -1  -7 9.98968 4.15840  11
   5  -1  -7 19.9696 2.98830  10
   4  -1  -7 57.0660 7.08221  16
   4  -1  -7 48.9465 5.99416  11
   4  -1  -7 38.0639 9.81863   2
   4  -1  -7 47.4709 4.87178  10
   4  -1  -7 49.3500 6.05333  18
   4  -1  -7 47.2359 11.7584   4
   4  -1  -7 45.1348 4.70772   9
   4  -1  -7 45.5573 5.40557  17
   4  -1  -7 20.2631 9.87363   7
   4  -1  -7 41.2171 8.75435   3
   3  -1  -7 14.1986 5.05616   3
   3  -1  -7 4.41523 4.37321   4
   3  -1  -7 3.45956 5.33243   2
   3  -1  -7 1.27861 3.98846   7
   3  -1  -7 8.25833 1.69423   8
   3  -1  -7 7.86419 2.26563   9
   3  -1  -7 3.32809 2.21011  18
   2  -1  -7 7.88742 5.27561   2
   2  -1  -7 8.11107 5.14421   7
   2  -1  -7 10.1967 4.72589   3
   1  -1  -7 46.9625 7.04860   1
   1  -1  -7 51.9866 8.46085   3
   1  -1  -7 59.7451 7.84269   7
   1  -1  -7 42.5348 7.16614   1
   1  -1  -7 51.0604 9.01733   2
  -1   1   7 44.2068 6.68458   1
   0  -1  -7 33.7060 6.23226   2
   0  -1  -7 26.7085 4.87246   7
   0  -1  -7 26.3079 4.74352   1
   0  -1  -7 25.7086 6.01168   3
   0  -1  -7 17.4262 4.85376   1
   0   1   7 21.0015 4.27604   1
   0   1   7 21.2974 4.53428   1
   0   1   7 33.5344 6.19067   3
   0   1   7 30.2981 5.71014   2
   0   1   7 28.8561 4.24683   5
  -1  -1  -7 1662.49 103.768   1
  -1  -1  -7 1511.13 114.824   2
  -1  -1  -7 1645.51 104.002   1
  -1  -1  -7 1582.89 124.474   3
   1   1   7 1626.98 103.465   1
   1   1   7 1768.54 115.965   5
   1   1   7 1642.45 103.686   1
   1   1   7 1675.32 123.982   3
   1   1   7 1798.63 115.136   2
  -2  -1  -7 1.68308 3.34087   1
   2   1   7 1.98013 5.01540   6
   2   1   7 2.27801 2.17180   3
   2   1   7 0.97091 3.46658   2
   2   1   7 -2.3913 2.04340   1
   2   1   7 3.44942 2.94021   5
   2   1   7 6.72638 3.42942   1
   3   1   7 297.074 21.8339   2
   3   1   7 257.291 21.9387   3
   3   1   7 252.221 22.5929   5
   3   1   7 245.603 24.4576   6
   4   1   7 18.6988 4.50305   2
   4   1   7 12.7656 6.33189   6
   4   1   7 15.7904 5.28087   5
   4   1   7 16.9327 3.85223   3
   5   1   7 1.57245 3.62095  15
   5   1   7 3.45447 3.23129  14
   5   1   7 11.8827 6.56935   5
   5   1   7 2.36755 2.32584  16
   5   1   7 5.78300 2.51123  13
   5   1   7 7.62087 1.79966  10
   5   1   7 10.0941 9.32226   6
   5   1   7 6.21929 2.88138  12
   6   1   7 3.78430 2.91700  15
   6   1   7 -14.732 10.1810   6
   6   1   7 0.89945 2.53698  13
   6   1   7 3.75349 2.68092  16
   6   1   7 1.98292 2.55000  14
   6   1   7 4.84137 3.09785  12
   7   1   7 41.9717 6.07576  14
   7   1   7 33.5650 6.35778  16
   7   1   7 34.9947 6.97867  15
   7   1   7 40.4164 6.87518  13
   8   1   7 0.81664 3.27736  15
   8   1   7 2.73133 2.97512  16
   8   1   7 0.80051 2.22971  14
   9   1   7 133.197 12.2317  16
   9   1   7 152.448 13.0881  15
   7  -2  -7 13.4854 3.30540  17
   7  -2  -7 14.8126 4.11395  18
   6  -2  -7 1.77834 4.14371  18
   6  -2  -7 5.26037 1.93300  10
   6  -2  -7 -4.2032 3.48598  17
   5  -2  -7 23.3261 4.12840  16
   5  -2  -7 15.4482 2.50629   9
   5  -2  -7 12.5781 4.12971  17
   5  -2  -7 1.30176 12.4860   7
   5  -2  -7 9.98971 3.95320  18
   5  -2  -7 17.5278 2.95617  10
   4  -2  -7 6.96684 6.03230   3
   4  -2  -7 6.55791 3.41499  16
   4  -2  -7 4.47364 2.17441   9
   4  -2  -7 3.58051 9.42596   7
   4  -2  -7 0.51193 3.02627  11
   4  -2  -7 3.80596 2.32012  17
   4  -2  -7 10.6137 7.15277   2
   4  -2  -7 0.40129 2.61157  18
   4  -2  -7 5.59281 2.31369  10
   3  -2  -7 222.157 15.8507   9
   3  -2  -7 216.496 21.4005   2
   3  -2  -7 260.355 23.9502   7
   3  -2  -7 236.902 18.9632  18
   3  -2  -7 218.365 15.4266  10
   3  -2  -7 216.572 21.9031   4
   3  -2  -7 221.612 14.6973   8
   3  -2  -7 247.570 21.6329   3
   2  -2  -7 17.7576 6.49823   2
   2  -2  -7 14.4674 5.25947   7
   2  -2  -7 19.6386 6.14704   3
   1  -2  -7 83.6783 10.5479   2
   1  -2  -7 79.5850 10.2110   3
   1  -2  -7 52.8255 8.95552   1
   1  -2  -7 80.7707 9.52309   7
  -1   2   7 63.6330 8.71245   1
   0  -2  -7 8.78174 3.69208   7
   0  -2  -7 11.0882 5.45859   2
   0  -2  -7 16.6313 4.75206   1
   0  -2  -7 16.8112 5.27883   3
   0  -2  -7 4.00543 3.03816   1
   0   2   7 18.1487 4.44795   1
   0   2   7 10.2632 3.00928   5
   0   2   7 14.8871 5.10237   2
   0   2   7 11.1240 4.44256   3
   0   2   7 13.4733 3.28909   1
  -1  -2  -7 35.6249 5.27952   1
  -1  -2  -7 12.3545 4.82572   2
  -1  -2  -7 19.1364 5.12176   1
   1   2   7 29.8937 5.85458   3
   1   2   7 24.9088 5.14534   2
   1   2   7 25.9069 4.74404   1
   1   2   7 29.6004 5.43321   5
   1   2   7 34.8362 5.05249   1
   2   2   7 179.798 16.8514   5
   2   2   7 206.257 17.0316   3
   2   2   7 176.125 14.6737   1
   2   2   7 188.348 16.4905   2
   3   2   7 110.880 13.8012   6
   3   2   7 92.5600 10.9451   5
   3   2   7 90.3471 10.0095   2
   3   2   7 99.6359 10.0833   3
   4   2   7 1626.04 117.182   5
   4   2   7 1624.82 112.516   2
   4   2   7 1647.83 120.929   6
   4   2   7 1642.29 121.524   3
   5   2   7 201.591 23.3969   6
   5   2   7 214.114 17.7087  13
   5   2   7 232.444 17.4427  12
   5   2   7 196.596 15.7975  11
   5   2   7 203.117 18.0462  15
   5   2   7 207.718 13.6889  10
   5   2   7 233.417 22.4604   5
   5   2   7 201.505 17.3972  14
   6   2   7 123.486 11.6033  14
   6   2   7 118.132 20.2882   6
   6   2   7 112.123 7.41087  10
   6   2   7 123.315 11.6986  15
   6   2   7 122.511 10.9743  13
   6   2   7 91.6507 10.8140  16
   6   2   7 126.614 18.2141   5
   6   2   7 118.129 10.6086  12
   7   2   7 1.60679 2.71460  14
   7   2   7 -0.2435 2.50246  13
   7   2   7 3.36534 4.24783  15
   7   2   7 -1.0493 2.19742  12
   7   2   7 -5.4116 3.12806  16
   8   2   7 -2.8428 2.92558  15
   8   2   7 -1.1503 3.21878  16
   8   2   7 -3.3423 2.08113  14
   8   2   7 2.46411 3.73627  13
   9   2   7 21.2072 5.12788  15
   9   2   7 23.2657 4.00237  14
   7  -3  -7 7.93671 4.30912  18
   7  -3  -7 4.87406 3.41693  17
   6  -3  -7 -0.5783 3.36186  18
   6  -3  -7 4.24647 1.93869  10
   6  -3  -7 2.46589 2.74230  17
   5  -3  -7 18.2890 3.37132  10
   5  -3  -7 22.6041 4.07612  16
   5  -3  -7 19.6372 2.90024   9
   5  -3  -7 30.1584 5.62892  18
   5  -3  -7 15.5647 3.88325  17
   4  -3  -7 3.43329 5.85966   3
   4  -3  -7 0.74072 7.82128   2
   4  -3  -7 11.0774 10.6215   7
   4  -3  -7 7.38197 3.58967  17
   4  -3  -7 9.29997 4.70652  18
   4  -3  -7 8.25020 2.66268   9
   4  -3  -7 11.8255 2.89379  10
   4  -3  -7 10.3281 3.99130  16
   3  -3  -7 -1.4704 4.67155   3
   3  -3  -7 0.31365 2.18666  10
   3  -3  -7 -1.4670 1.50099   8
   3  -3  -7 -2.0757 2.27940   9
   3  -3  -7 2.65524 7.55188   7
   3  -3  -7 -2.0321 2.92655  17
   3  -3  -7 0.72757 7.15953   2
   2  -3  -7 7.38970 6.08585   2
   2  -3  -7 9.55997 6.09732   7
   2  -3  -7 4.01816 4.95745   3
   1  -3  -7 188.443 18.1992   3
   1  -3  -7 185.219 17.5044   7
   1  -3  -7 160.902 16.8328   1
   1  -3  -7 189.751 18.3837   2
   0  -3  -7 289.630 24.6255   3
   0  -3  -7 269.128 20.9825   1
   0  -3  -7 284.298 21.5620   1
   0  -3  -7 248.349 22.2173   7
   0  -3  -7 266.419 23.6804   2
   0   3   7 245.702 20.5372   1
   0   3   7 271.993 21.0066   1
   0   3   7 271.709 21.4551   5
   0   3   7 309.602 24.0019   2
   0   3   7 294.726 24.3641   3
  -1  -3  -7 3.39823 3.94628   1
   1   3   7 12.9795 4.19103   1
   1   3   7 5.62536 3.43712   1
   1   3   7 2.50556 3.17248   5
   1   3   7 1.08264 4.16422   2
   1   3   7 3.41224 3.64749   3
   2   3   7 3.38123 3.12939   3
   2   3   7 2.10501 3.35377   1
   2   3   7 -1.9095 3.19291   2
   2   3   7 0.96061 3.60009   5
   3   3   7 37.2279 6.46279   2
   3   3   7 30.2551 5.81125   3
   3   3   7 35.3302 7.85703   6
   3   3   7 36.1267 7.06904   5
   4   3   7 306.547 23.0357   2
   4   3   7 275.342 26.2540   5
   4   3   7 298.521 27.5485   6
   5   3   7 11.6152 8.22702   6
   5   3   7 26.6122 5.06994  15
   5   3   7 23.5258 3.50088  11
   5   3   7 30.3435 5.23075  12
   5   3   7 29.0153 8.84618   5
   5   3   7 27.3840 5.39937  13
   5   3   7 27.3802 2.75886  10
   5   3   7 24.9993 4.46985  14
   6   3   7 139.996 14.1599  14
   6   3   7 141.919 18.8645   5
   6   3   7 164.480 12.6662  11
   6   3   7 170.302 14.5554  13
   6   3   7 172.960 13.8244  12
   6   3   7 152.699 14.8564  15
   6   3   7 148.853 9.97554  10
   7   3   7 267.039 24.1025  15
   7   3   7 281.827 23.6685  13
   7   3   7 295.886 22.9492  12
   7   3   7 284.153 23.1957  14
   8   3   7 0.37558 3.72606  14
   8   3   7 1.77613 3.39565  12
   8   3   7 4.10064 2.95176  13
   8   3   7 0.77044 2.97331  15
   9   3   7 10.3766 4.10372  15
   9   3   7 8.34493 3.03642  14
   7  -4  -7 8.13487 2.80406  18
   6  -4  -7 1.33111 2.72789  17
   6  -4  -7 1.95111 1.29558  10
   6  -4  -7 5.76300 4.81144  18
   5  -4  -7 158.345 15.1825  17
   5  -4  -7 187.602 12.9961  10
   5  -4  -7 178.923 12.3647   9
   5  -4  -7 204.027 17.5899  18
   4  -4  -7 421.571 38.3739  17
   4  -4  -7 489.576 47.4537   7
   4  -4  -7 520.198 33.4408   9
   4  -4  -7 569.508 40.3283  18
   4  -4  -7 521.897 32.7182  10
   3  -4  -7 8.37607 8.25774   2
   3  -4  -7 14.0881 8.78042   7
   3  -4  -7 2.53484 4.58482   3
   3  -4  -7 15.3440 3.08954  10
   3  -4  -7 9.90828 3.67563  17
   3  -4  -7 16.0373 3.48839   9
   3  -4  -7 16.0494 2.42897   8
   2  -4  -7 85.0298 15.2986   2
   2  -4  -7 101.029 8.71324   9
   2  -4  -7 107.183 15.4640   7
   2  -4  -7 93.8712 13.9126   3
   2  -4  -7 105.200 7.75509   8
   2  -4  -7 95.7338 8.38650  10
   1  -4  -7 5.35725 6.58264   2
   1  -4  -7 4.96104 4.08564   3
   1  -4  -7 3.19078 3.99222   7
   0  -4  -7 47.1458 10.0513   2
   0  -4  -7 54.5674 9.96453   3
   0  -4  -7 55.7307 8.49480   7
   0   4   7 66.7160 10.1147   3
   0   4   7 62.1049 10.3818   2
   0   4   7 54.6941 7.56747   5
   1   4   7 16.3603 4.53145   1
   1   4   7 19.0528 5.69481   3
   1   4   7 16.2243 5.22259   2
   1   4   7 16.4743 5.07827   5
   2   4   7 5.08273 4.13311   5
   2   4   7 6.37494 3.30540   3
   2   4   7 6.93879 4.74954   2
   3   4   7 41.3625 7.10055   2
   3   4   7 36.6154 8.28790   6
   3   4   7 35.4471 8.09709   5
   3   4   7 35.5668 6.76437   3
   4   4   7 44.6526 6.04541  13
   4   4   7 39.9265 8.33167   6
   4   4   7 55.8714 7.66434   3
   4   4   7 49.1298 9.87572   5
   4   4   7 54.9179 4.41047   9
   4   4   7 49.7530 6.64717  14
   4   4   7 53.6611 7.27636   2
   4   4   7 52.4777 4.53112  10
   4   4   7 51.7096 5.05083  11
   5   4   7 38.7463 3.56252  10
   5   4   7 42.0188 5.55817  14
   5   4   7 30.2175 5.29091  15
   5   4   7 32.8975 5.27410  13
   5   4   7 41.1252 6.03348  12
   5   4   7 46.4759 5.09845  11
   5   4   7 37.5622 10.5253   5
   6   4   7 28.4482 5.32785  13
   6   4   7 37.3639 4.42196  11
   6   4   7 26.9960 4.98897  15
   6   4   7 19.6561 10.9131   5
   6   4   7 32.2551 5.19292  12
   6   4   7 33.8410 2.86870  10
   6   4   7 36.2825 5.73699  14
   7   4   7 307.380 23.2687  12
   7   4   7 300.225 23.7751  13
   7   4   7 273.187 21.2320  11
   7   4   7 285.244 23.6221  14
   7   4   7 248.386 23.2332  15
   8   4   7 -2.1862 2.48254  15
   8   4   7 3.50108 4.01974  14
   8   4   7 3.67132 2.55043  12
   8   4   7 -0.4987 2.81872  13
   9   4   7 157.287 13.1324  13
   9   4   7 138.519 12.8601  14
   6  -5  -7 5.88605 2.99290  18
   6  -5  -7 2.95030 3.43323  17
   6  -5  -7 3.64801 1.65944  10
   5  -5  -7 7.07930 1.68745   9
   5  -5  -7 6.90838 2.22645  10
   5  -5  -7 9.87319 4.08950  18
   5  -5  -7 1.77721 2.96515  17
   4  -5  -7 2.71822 2.90000   9
   4  -5  -7 0.27955 1.84970  10
   4  -5  -7 3.36459 3.96895  17
   4  -5  -7 3.22292 3.53089  18
   3  -5  -7 1.02506 1.82684   8
   3  -5  -7 2.38218 7.18052   3
   3  -5  -7 -0.7504 1.73451  10
   3  -5  -7 4.55525 9.21703   7
   3  -5  -7 6.61963 10.4012   2
   3  -5  -7 0.09661 3.56102  17
   3  -5  -7 0.99699 2.83659   9
   2  -5  -7 31.5255 10.5833   7
   2  -5  -7 17.2701 10.3821   2
   2  -5  -7 26.9188 4.39099   9
   2  -5  -7 11.4758 7.94403   3
   2  -5  -7 30.7935 4.33326   8
   1  -5  -7 59.8194 11.0514   2
   1  -5  -7 54.5878 10.1025   3
   1  -5  -7 57.4386 10.0057   7
   1  -5  -7 54.9300 6.02804   8
   0  -5  -7 5.02015 5.42995   7
   0   5   7 18.7267 5.13489   5
   1   5   7 24.9785 6.53843   5
   1   5   7 18.1167 5.53930   3
   1   5   7 29.1029 7.49527   2
   2   5   7 17.3666 6.12817   5
   2   5   7 19.9236 6.08144   3
   2   5   7 6.93629 4.32663   2
   3   5   7 2.35002 1.41856   8
   3   5   7 13.5189 6.33320   5
   3   5   7 2.41188 4.18973   2
   3   5   7 1.03054 3.63837   3
   4   5   7 20.7264 5.21846   2
   4   5   7 16.9276 2.89984   9
   4   5   7 16.3072 4.04549  13
   4   5   7 17.3629 3.57037  12
   4   5   7 25.4066 3.97567  11
   4   5   7 19.7373 7.57678   5
   4   5   7 12.1837 4.74497   3
   4   5   7 19.4060 4.52058  14
   4   5   7 16.5260 2.59721  10
   5   5   7 150.005 14.1908  13
   5   5   7 178.721 12.9324  11
   5   5   7 164.593 13.1216   3
   5   5   7 148.098 10.6095   9
   5   5   7 153.653 14.0342  12
   5   5   7 176.741 12.8266   2
   5   5   7 168.013 14.9489  14
   5   5   7 173.854 11.1852  10
   5   5   7 174.537 20.8062   5
   6   5   7 10.9717 3.82418  14
   6   5   7 8.54980 2.46088  11
   6   5   7 9.28535 10.8007   5
   6   5   7 14.4106 3.95126  12
   6   5   7 8.26900 1.55063  10
   6   5   7 11.8744 3.68474  13
   7   5   7 3.43063 2.62970  12
   7   5   7 -0.9963 2.82628  14
   7   5   7 3.47274 4.09536  13
   7   5   7 1.26476 2.02931  11
   8   5   7 89.6060 9.75245  14
   8   5   7 88.9519 9.22928  12
   8   5   7 101.757 10.8697  13
   9   5   7 7.61833 3.32374  13
   9   5   7 4.24749 2.49605  14
   5  -6  -7 2.50309 2.63365  17
   5  -6  -7 4.79224 2.55285  10
   5  -6  -7 0.28678 4.12809  18
   4  -6  -7 12.5172 3.34294  10
   4  -6  -7 15.7029 4.51883  18
   4  -6  -7 8.44660 2.30574   9
   4  -6  -7 5.32289 4.21139  17
   3  -6  -7 3.18088 2.07155   8
   3  -6  -7 2.75211 2.18713  10
   3  -6  -7 2.54796 2.75319  17
   3  -6  -7 4.26241 2.50589   9
   2  -6  -7 3.70395 8.60397   2
   2  -6  -7 8.74896 9.22034   3
   2  -6  -7 -0.0340 1.63583   8
   2  -6  -7 0.87427 7.56337   7
   2  -6  -7 1.83962 2.35254   9
   1  -6  -7 125.169 18.3396   7
   1  -6  -7 121.359 9.23659   8
   0  -6  -7 10.9445 7.19722   7
   1   6   7 -0.6674 3.69293   5
   1   6   7 5.40029 7.21246   2
   1   6   7 -1.2196 3.94086   3
   1   6   7 -1.3716 1.82814   8
   2   6   7 10.5415 6.48615   2
   2   6   7 11.3611 3.05030   9
   2   6   7 16.3261 6.32345   3
   2   6   7 10.6520 1.91121   8
   2   6   7 7.34740 6.14915   5
   3   6   7 -0.0056 1.31050   8
   3   6   7 -1.1483 4.09624   3
   3   6   7 -0.3548 3.61111   2
   3   6   7 -5.0614 5.40035   5
   3   6   7 0.65096 1.37928   9
   3   6   7 2.04765 2.69761  13
   3   6   7 0.83213 1.84569  10
   4   6   7 16.6650 5.75799   2
   4   6   7 11.8817 3.72390  13
   4   6   7 17.6021 2.74203  10
   4   6   7 16.5813 3.47977  12
   4   6   7 9.95189 5.07326   3
   4   6   7 14.8845 3.87268  14
   4   6   7 14.8209 8.55404   5
   4   6   7 13.3591 2.50288   9
   5   6   7 8.92391 4.06951  13
   5   6   7 14.1240 2.83934  11
   5   6   7 10.2125 8.57331   5
   5   6   7 12.0365 3.74695  14
   5   6   7 10.6402 5.19438   2
   5   6   7 11.7533 2.32504  10
   5   6   7 11.9657 4.57488   3
   5   6   7 14.1508 3.24441  12
   5   6   7 12.0566 1.88578   9
   6   6   7 88.1125 16.7808   5
   6   6   7 102.353 10.0549  12
   6   6   7 86.4953 9.74695  13
   6   6   7 94.1471 6.89577  10
   6   6   7 99.0669 8.51900  11
   6   6   7 87.9315 11.0394  14
   7   6   7 -5.0585 3.85719  14
   7   6   7 -2.4065 3.58794  13
   7   6   7 -3.5642 2.55093  11
   7   6   7 3.22040 2.81487  12
   8   6   7 17.8377 5.23812  13
   8   6   7 8.79526 3.55883  14
   8   6   7 3.91510 2.73217  12
   9   6   7 -1.6102 2.91103  14
   9   6   7 0.50357 4.11181  13
   9   6   7 -0.0328 2.29099  12
   5  -7  -7 2.81979 2.14043  10
   5  -7  -7 -1.0408 2.28041  18
   4  -7  -7 0.70262 2.69250  10
   4  -7  -7 -2.2151 3.74351  17
   4  -7  -7 3.23996 3.00152  18
   4  -7  -7 -2.1760 2.20015   9
   3  -7  -7 -3.6554 3.04880   9
   3  -7  -7 -3.2574 2.63722  10
   3  -7  -7 -0.4464 1.88924   8
   3  -7  -7 2.12631 4.57905  18
   2  -7  -7 1.83985 3.46141   9
   2  -7  -7 7.74932 2.68742   8
   1  -7  -7 47.8732 5.21551   8
   1  -7  -7 21.3200 13.6975   7
   1   7   7 3.21803 2.22844   8
   1   7   7 -0.5733 6.78451   5
   2   7   7 410.268 34.7715   2
   2   7   7 376.050 26.5937   9
   2   7   7 419.847 34.8225   5
   2   7   7 349.094 34.6401   3
   2   7   7 388.463 30.6876  13
   2   7   7 411.226 25.0707   8
   3   7   7 66.5752 6.38172   9
   3   7   7 70.6895 6.99920  13
   3   7   7 58.7136 10.9725   2
   3   7   7 56.0149 5.52170  10
   3   7   7 61.2300 11.4536   3
   3   7   7 59.5419 5.13695   8
   3   7   7 79.7403 13.7703   5
   4   7   7 11.5993 6.58274   5
   4   7   7 12.7451 8.27640   2
   4   7   7 10.8597 5.80056   3
   4   7   7 -1.7199 4.09024  14
   4   7   7 11.7279 2.20095   9
   4   7   7 12.0060 2.71285  10
   4   7   7 8.89327 2.57989  12
   4   7   7 15.6053 3.52258  13
   5   7   7 53.7353 6.35960  12
   5   7   7 46.5234 9.23895   2
   5   7   7 62.9698 5.04691   9
   5   7   7 44.5233 11.5288   5
   5   7   7 56.0438 7.06358  13
   5   7   7 59.0025 5.05419  10
   5   7   7 55.1519 8.81088  14
   5   7   7 46.8610 8.93834   3
   6   7   7 83.3493 20.2682   5
   6   7   7 98.9306 10.6829  12
   6   7   7 106.549 7.86004  10
   6   7   7 124.791 12.4045  14
   6   7   7 107.482 10.9238  13
   7   7   7 9.31791 3.70495  14
   7   7   7 6.13829 3.91280  12
   7   7   7 16.3294 4.37648  13
   8   7   7 39.0732 6.48206  12
   8   7   7 35.5881 6.24093  13
   8   7   7 35.3094 6.92115  14
   9   7   7 24.6417 4.64297  13
   9   7   7 8.88955 2.64321  12
   4  -8  -7 9.71772 1.89005   9
   4  -8  -7 6.16907 2.31830  18
   4  -8  -7 4.90156 2.85084  10
   3  -8  -7 4.97788 2.37265   9
   3  -8  -7 1.85586 2.81372  18
   3  -8  -7 3.91703 2.14091  10
   2  -8  -7 -0.8737 1.63248   8
   2  -8  -7 -0.4592 3.19640   9
   1  -8  -7 -3.2136 2.66790   8
   0  -8  -7 -0.7853 3.11337   8
   0   8   7 2.59792 2.15817   8
   1   8   7 89.9678 7.29359   8
   1   8   7 90.0843 14.2685   5
   2   8   7 -5.3098 8.45929   5
   2   8   7 6.85676 8.93795   3
   2   8   7 7.38842 3.36687   9
   2   8   7 16.4030 11.2262   2
   2   8   7 12.4234 2.63700   8
   2   8   7 15.5844 3.17764  13
   3   8   7 42.8373 10.1345   5
   3   8   7 25.4691 3.38981   8
   3   8   7 28.1198 4.30353   9
   3   8   7 20.2883 3.70093  10
   3   8   7 30.5263 4.74602  13
   3   8   7 35.1443 10.7629   2
   3   8   7 13.5409 8.61385   3
   4   8   7 11.5909 4.24477  13
   4   8   7 12.5875 2.44988   9
   4   8   7 6.40298 7.72785   2
   4   8   7 15.9613 4.81954  14
   4   8   7 12.8143 2.96639  10
   4   8   7 10.7352 7.69940   5
   5   8   7 45.9798 4.72776  10
   5   8   7 27.7424 4.89416  12
   5   8   7 41.9934 4.05888   9
   5   8   7 33.3364 11.0906   5
   5   8   7 41.6033 6.09272  13
   5   8   7 31.4238 6.41682  14
   6   8   7 2.90311 4.36987  14
   6   8   7 5.59672 3.32460  13
   6   8   7 8.47791 2.92815  12
   6   8   7 8.33547 2.12474  10
   7   8   7 -0.9287 2.81335  13
   7   8   7 0.18121 2.77994  14
   7   8   7 3.57503 2.53162  12
   8   8   7 46.9235 6.52739  12
   8   8   7 37.4146 6.37897  13
   9   8   7 1.65602 1.97762  12
   9   8   7 1.94524 2.76359  13
   3  -9  -7 0.63060 1.71849   9
   3  -9  -7 4.52008 2.46554  18
   2  -9  -7 -1.6213 1.80442   8
   2  -9  -7 1.78868 2.41204   9
   1  -9  -7 105.019 8.89414   8
   0  -9  -7 15.2063 3.08624   8
   0   9   7 12.0073 3.24679   8
   1   9   7 3.54388 1.92721   8
   2   9   7 31.2664 4.34307   8
   2   9   7 35.4969 4.90796  13
   2   9   7 28.2338 4.76019   9
   3   9   7 12.1742 3.41651  10
   3   9   7 18.0786 2.60569   8
   3   9   7 19.4433 3.30798   9
   3   9   7 23.7102 4.77005  13
   4   9   7 88.9775 7.69700   9
   4   9   7 86.9476 7.30075  10
   4   9   7 82.6371 9.75805  13
   4   9   7 88.6845 9.45842  14
   5   9   7 39.9082 6.34390  14
   5   9   7 39.5947 4.02439   9
   5   9   7 37.1535 6.05362  13
   5   9   7 41.9623 5.03599  10
   6   9   7 11.5658 2.41090  10
   6   9   7 19.4643 4.23281  13
   6   9   7 12.2992 3.62456  12
   6   9   7 14.7631 3.67083  14
   7   9   7 1.13950 4.24402  13
   7   9   7 1.58784 2.13231  12
   8   9   7 8.51050 3.26401  13
   8   9   7 9.32400 2.45000  12
   2 -10  -7 8.16227 3.33060  18
   2 -10  -7 13.0649 2.53232   9
   1 -10  -7 -0.4315 2.25099   8
  -1  10   7 1.26860 1.80111   8
   0 -10  -7 0.10720 2.96890   8
   0  10   7 0.01732 1.65924   8
   1  10   7 73.8057 6.62427   8
   2  10   7 30.1910 5.74613  13
   2  10   7 41.9102 4.34311   8
   2  10   7 26.3392 4.68037   9
   3  10   7 11.9465 2.92274  10
   3  10   7 24.3413 4.01600   9
   3  10   7 17.1080 4.36891  13
   3  10   7 23.5917 2.99469   8
   4  10   7 38.6870 5.63959  14
   4  10   7 44.8439 4.95967   9
   4  10   7 39.6903 5.40707  10
   4  10   7 31.9810 5.54386  13
   5  10   7 94.2638 7.79520  10
   5  10   7 89.1960 6.67840   9
   5  10   7 92.9067 9.95817  13
   5  10   7 81.1024 9.26925  14
   6  10   7 25.8133 3.36096  10
   6  10   7 14.1837 3.85497  13
   7  10   7 78.8882 8.61718  12
   7  10   7 108.396 9.34910  13
   8  10   7 17.5232 3.50309  13
   1 -11  -7 -0.7638 0.88770   8
  -1  11   7 2.94709 1.37593   8
   0 -11  -7 5.74572 1.95284   8
   0  11   7 7.84399 2.25802   8
  -1 -11  -7 6.42788 2.43453   8
   1  11   7 10.8219 2.39175   8
   2  11   7 2.53494 1.26876   8
   2  11   7 7.17837 3.10119   9
   3  11   7 9.83485 2.82734  14
   3  11   7 16.5213 3.20467   9
   3  11   7 14.8585 3.83168  13
   4  11   7 -1.0859 2.46189  10
   4  11   7 2.78234 2.33893  13
   4  11   7 3.00017 2.15006   9
   5  11   7 6.02862 2.66539  13
   5  11   7 7.20628 2.60704  10
   6  11   7 3.76910 3.37905  13
   6  11   7 3.51416 1.68737  10
   7  11   7 24.5425 3.95945  13
   1  12   7 13.0939 1.68624   8
   2  12   7 2.83311 1.74523   9
   3  12   7 0.19336 1.45575   9
   3  12   7 0.64721 1.89690  13
   4  12   7 1.65286 1.58349  10
   4  12   7 -1.7106 1.72899  13
   4  12   7 1.85811 1.26358   9
   5  12   7 2.25641 1.86425  13
   5  12   7 0.48749 1.30879  10
   4  10  -8 6.20535 1.80498  10
   4  10  -8 6.26282 1.02115   9
   4  10  -8 3.79157 2.05802  12
   3  10  -8 20.7831 3.51656   9
   3  10  -8 17.3725 3.01148  12
   2  10  -8 3.17295 1.81475   9
   1  10  -8 140.713 9.05865   8
  -1 -10   8 126.783 9.45110   8
   0  10  -8 26.0204 3.36295   8
   5   9  -8 2.17960 2.04791  10
   5   9  -8 0.05324 2.36134  12
   4   9  -8 1.74491 2.37689  10
   4   9  -8 2.92353 2.61727  12
   4   9  -8 2.44383 1.81358   9
   3   9  -8 18.4708 4.31928  12
   3   9  -8 30.8162 3.75712   9
   2   9  -8 26.0555 4.22067   9
   2   9  -8 30.0047 3.61667   8
   2   9  -8 34.5479 4.85252  12
   1   9  -8 107.633 9.33701  12
   1   9  -8 113.851 8.08817   8
  -1  -9   8 80.0758 9.05136   8
   0   9  -8 16.8754 2.51333   8
   0  -9   8 13.4909 2.68809   8
  -1   9  -8 1.40186 1.67549   8
   1  -9   8 7.85589 3.58034   9
   1  -9   8 4.42514 1.93687   8
   2  -9   8 6.36123 2.67012   9
   6   8  -8 8.47705 1.78043  10
   6   8  -8 9.66388 3.90671  12
   5   8  -8 52.7619 3.78334   9
   5   8  -8 67.8282 8.19685  12
   5   8  -8 58.5031 5.45807  10
   4   8  -8 53.0874 5.90131  10
   4   8  -8 60.3127 7.91435  12
   4   8  -8 53.7540 5.50986   9
   3   8  -8 -1.9752 2.39397  12
   3   8  -8 7.81218 2.81864   9
   3   8  -8 4.35909 1.43290   8
   2   8  -8 0.88325 2.37999  12
   2   8  -8 2.50183 1.94472   8
   2   8  -8 -2.6346 2.62008   9
   1   8  -8 0.76905 2.23141   8
   0   8  -8 16.0356 2.75298   8
   0  -8   8 19.8260 4.04758   8
   1  -8   8 38.2711 7.64830  16
   1  -8   8 35.9479 5.48226   8
   2  -8   8 88.1182 9.68008  16
   2  -8   8 81.6395 7.59744   9
   2  -8   8 84.6819 6.30853   8
   3  -8   8 7.85310 2.12452   9
   3  -8   8 6.42724 2.85426  16
   7   7  -8 -0.3280 2.39674  12
   7   7  -8 1.68525 1.73010  11
   6   7  -8 12.4023 3.85752  12
   6   7  -8 12.4125 3.27908  11
   6   7  -8 9.87841 2.00401  10
   5   7  -8 7.97164 2.14278  10
   5   7  -8 14.5404 4.83376  12
   5   7  -8 11.3366 2.70858  11
   5   7  -8 13.7763 2.28288   9
   4   7  -8 10.9110 2.78990   9
   4   7  -8 16.0278 2.78996  10
   4   7  -8 11.6492 3.64063  12
   3   7  -8 28.3523 3.36842   8
   3   7  -8 29.9413 5.02550  10
   3   7  -8 29.7996 4.12877   9
   3   7  -8 26.6541 4.89373  12
   2   7  -8 1.93643 2.17941   9
   2   7  -8 6.35167 2.23426   8
   1   7  -8 3.07032 1.76169   8
   0   7  -8 32.5098 5.20298   8
   0  -7   8 31.9004 4.42404   8
   1  -7   8 -2.2396 2.86719   8
   2  -7   8 13.6525 2.85496   8
   2  -7   8 11.1535 3.86799  16
   2  -7   8 14.4591 4.00442   9
   3  -7   8 2.92463 3.75838  17
   3  -7   8 -4.1923 3.06477  10
   3  -7   8 -1.1088 3.01635  16
   3  -7   8 -4.2066 2.80955   9
   4  -7   8 202.917 12.9295   9
   4  -7   8 168.969 15.7299  16
   4  -7   8 184.173 13.1380  10
   7   6  -8 9.92433 2.71930  11
   7   6  -8 7.63776 3.11973  12
   6   6  -8 136.213 9.35942  10
   6   6  -8 128.496 11.4993  11
   6   6  -8 124.305 12.6155  12
   5   6  -8 24.5454 3.31208   9
   5   6  -8 18.5946 5.35938  12
   5   6  -8 17.1861 3.20273  10
   5   6  -8 17.0251 3.84576  11
   4   6  -8 40.0994 5.86494  11
   4   6  -8 44.7709 5.31408  10
   4   6  -8 44.8163 5.10786   9
   4   6  -8 51.0200 8.13408  12
   3   6  -8 19.6492 3.55426   9
   3   6  -8 21.9802 3.50726  10
   3   6  -8 16.6289 9.88368   4
   3   6  -8 17.2175 2.94358   8
   2   6  -8 13.0677 10.8071   2
   2   6  -8 4.82511 9.74366   3
   1   6  -8 0.76904 2.02102   8
   0  -6   8 44.6886 6.54860   8
   1  -6   8 34.7987 4.93434   8
   2  -6   8 9.31585 2.90428   8
   2  -6   8 -0.8285 3.55619   9
   3  -6   8 136.657 13.6234  16
   3  -6   8 99.0542 12.0322  17
   3  -6   8 130.825 8.54913   8
   3  -6   8 138.799 10.3723   9
   3  -6   8 111.261 10.0496  10
   4  -6   8 38.0507 5.71685  10
   4  -6   8 26.3692 5.42648  16
   4  -6   8 37.1638 4.72049   9
   5  -6   8 8.83470 2.64302  10
   5  -6   8 7.19076 3.36608  16
   8   5  -8 5.84062 2.24461  11
   7   5  -8 -3.3573 3.08788  11
   7   5  -8 0.25552 2.90712  18
   6   5  -8 16.5292 2.55749  10
   6   5  -8 11.2429 3.34096  18
   6   5  -8 10.8313 5.31684  12
   6   5  -8 17.5512 4.15867  11
   5   5  -8 100.777 12.0502  12
   5   5  -8 121.954 10.6583  11
   5   5  -8 119.789 9.19052  10
   5   5  -8 128.667 8.76404   9
   4   5  -8 312.859 20.3587  10
   4   5  -8 313.242 25.4657  12
   4   5  -8 305.297 20.4488   9
   4   5  -8 278.942 22.7762  11
   4   5  -8 287.778 28.1313   4
   3   5  -8 28.6432 2.81043   8
   3   5  -8 22.0569 4.08619  11
   3   5  -8 24.4804 3.64407  10
   3   5  -8 25.6364 7.64771   4
   3   5  -8 19.0680 8.29626   3
   2   5  -8 32.7040 3.86243   8
   2   5  -8 16.5421 7.16029   3
   2   5  -8 22.7778 6.67905   4
   1   5  -8 28.4157 3.45832   8
   1  -5   8 112.675 8.88238   8
   2  -5   8 48.6266 13.1342   3
   2  -5   8 104.414 7.61116   8
   2  -5   8 97.2372 8.62657   9
   2  -5   8 83.5995 16.1245   2
   3  -5   8 118.461 10.4002   9
   3  -5   8 133.135 13.1271  16
   3  -5   8 119.310 10.8894  10
   3  -5   8 140.204 9.43339   8
   4  -5   8 1.08808 4.95338  16
   4  -5   8 -0.3885 2.14631  10
   4  -5   8 0.63129 2.71635   9
   5  -5   8 30.6031 3.98418  10
   5  -5   8 37.2207 6.62176  16
   5  -5   8 26.6528 2.40152   9
   6  -5   8 36.5648 6.08810  16
   6  -5   8 33.1031 3.45372  10
   8   4  -8 27.0653 4.12939  11
   8   4  -8 20.7650 3.37684  18
   7   4  -8 12.2188 3.63136  18
   7   4  -8 9.31053 4.01953  11
   6   4  -8 1.22390 1.54839  10
   6   4  -8 -2.6592 4.19946  12
   6   4  -8 -2.8077 1.82192  18
   6   4  -8 3.13409 2.64462  11
   5   4  -8 -0.8069 1.29521   9
   5   4  -8 1.49568 1.39286  10
   5   4  -8 0.65191 2.18770  11
   5   4  -8 2.36569 4.50984  12
   5   4  -8 -2.1762 2.62386  18
   4   4  -8 35.5505 9.37544   3
   4   4  -8 40.9357 5.15710  11
   4   4  -8 39.7987 9.73474   4
   4   4  -8 32.2628 6.25846  12
   4   4  -8 49.1729 4.95176  10
   3   4  -8 224.194 21.7707   4
   3   4  -8 204.203 16.2054  11
   3   4  -8 249.159 22.7650   2
   3   4  -8 205.251 15.0494   9
   3   4  -8 206.374 14.4898  10
   3   4  -8 210.125 13.7492   8
   3   4  -8 217.749 22.2492   3
   2   4  -8 61.5086 11.6600   3
   2   4  -8 58.1872 11.2036   2
   2   4  -8 48.7674 9.75389   4
   2   4  -8 56.4789 4.60934   8
   2   4  -8 47.6918 5.93831   9
   2   4  -8 50.4951 5.73848  11
   1   4  -8 113.981 8.48143   8
   1   4  -8 136.462 13.8187   4
   1   4  -8 114.599 16.0205   3
   1   4  -8 118.583 16.5118   2
   1  -4   8 11.4810 6.68220   3
   1  -4   8 21.6809 3.75695   8
   1  -4   8 22.3482 10.3360   2
   1  -4   8 18.5349 9.10222   6
   2  -4   8 10.5479 9.88372   6
   2  -4   8 17.5455 4.09528   9
   2  -4   8 24.3124 3.55920   8
   2  -4   8 15.3329 6.15255   3
   2  -4   8 7.80448 9.45065   2
   3  -4   8 34.5213 6.02252   9
   3  -4   8 24.5118 12.0883   2
   3  -4   8 31.9273 11.4297   6
   3  -4   8 35.9508 7.28980  16
   3  -4   8 39.6264 4.73735  10
   3  -4   8 41.7837 4.31487   8
   3  -4   8 35.5971 9.11452   3
   4  -4   8 54.0178 10.3494  16
   4  -4   8 23.8728 17.0098   6
   4  -4   8 51.2159 6.45024  10
   4  -4   8 63.6016 6.49965   9
   5  -4   8 -0.9299 3.58968  16
   5  -4   8 4.99434 1.99834   9
   5  -4   8 3.19062 3.19087  15
   5  -4   8 6.11052 2.82550  10
   6  -4   8 9.63312 3.25308  15
   6  -4   8 18.7026 4.76327  16
   6  -4   8 10.5734 2.32235  10
   7  -4   8 -5.6621 2.81066  16
   8   3  -8 5.67152 2.52721  11
   8   3  -8 5.91374 2.31826  18
   7   3  -8 5.62999 2.70205  18
   7   3  -8 4.15147 3.90645  11
   6   3  -8 22.1545 4.67788  17
   6   3  -8 28.1612 5.43517  11
   6   3  -8 14.4549 2.47621  10
   6   3  -8 17.5858 3.90029  18
   5   3  -8 173.668 14.2230  17
   5   3  -8 176.497 11.6234   9
   5   3  -8 141.804 14.0469  18
   5   3  -8 184.965 14.2912  11
   5   3  -8 159.729 19.9532   4
   5   3  -8 148.047 15.2153  12
   5   3  -8 173.966 11.7278  10
   4   3  -8 49.5200 10.5790   4
   4   3  -8 73.6332 8.63504  12
   4   3  -8 59.0091 6.28092  11
   4   3  -8 46.0361 5.82052  18
   4   3  -8 71.4362 11.3444   2
   4   3  -8 54.9468 10.4831   3
   4   3  -8 58.7239 5.51958   9
   4   3  -8 58.2714 5.53691  10
   3   3  -8 67.7937 12.0307   2
   3   3  -8 59.3478 11.6973   4
   3   3  -8 69.2515 5.45310   8
   3   3  -8 69.0131 6.26489  10
   3   3  -8 79.0657 7.44414  11
   3   3  -8 75.0854 12.2393   3
   3   3  -8 67.2911 6.55075   9
   2   3  -8 126.158 12.9385   4
   2   3  -8 104.102 7.94899   8
   2   3  -8 132.199 15.1154   3
   2   3  -8 120.727 14.9262   2
   1   3  -8 414.928 29.2549   4
   1   3  -8 348.711 32.2283   3
   1   3  -8 340.965 30.7119   2
  -1  -3   8 351.113 30.2775   6
   0   3  -8 111.178 11.6499   4
   0  -3   8 116.174 14.0383   6
   1  -3   8 29.9975 8.55621   6
   1  -3   8 21.9473 5.81702   3
   1  -3   8 25.0312 8.53754   2
   2  -3   8 2.43596 4.95982   3
   2  -3   8 4.58502 7.53412   2
   2  -3   8 0.57789 1.58247   8
   2  -3   8 -0.9767 2.46884   9
   2  -3   8 6.53428 7.87859   6
   3  -3   8 3.97239 7.56554   2
   3  -3   8 0.87818 9.98748   6
   3  -3   8 0.78030 1.36442   8
   3  -3   8 -3.6196 2.21992  15
   3  -3   8 1.24065 5.44145   3
   3  -3   8 3.41485 1.90771  10
   3  -3   8 2.20556 2.66794   9
   4  -3   8 86.9087 19.9269   6
   4  -3   8 107.287 11.9724  15
   4  -3   8 96.1906 13.9887   3
   4  -3   8 141.975 12.6093  16
   4  -3   8 113.982 9.45600   9
   4  -3   8 118.090 9.03117  10
   4  -3   8 109.005 10.0622  14
   4  -3   8 132.545 16.7987   2
   5  -3   8 49.5153 8.94533  15
   5  -3   8 70.4912 5.81806   9
   5  -3   8 97.2407 11.7347  16
   5  -3   8 66.3574 6.58081  10
   5  -3   8 58.2713 7.45619  14
   6  -3   8 28.4659 5.92497  16
   6  -3   8 17.0381 5.51122  15
   6  -3   8 26.9005 3.78447  10
   7  -3   8 37.8466 6.71534  16
   7  -3   8 20.8693 4.20550  15
   8   2  -8 7.00050 2.66639  11
   8   2  -8 3.70626 2.22365  18
   7   2  -8 21.5446 4.55462  11
   7   2  -8 23.4871 4.70160  17
   7   2  -8 22.1754 4.52551  18
   6   2  -8 108.251 7.75772  10
   6   2  -8 103.888 11.0983  11
   6   2  -8 95.9578 10.5452  18
   6   2  -8 102.627 9.70625  17
   5   2  -8 88.9326 7.13453  10
   5   2  -8 78.0088 11.2883   2
   5   2  -8 102.961 10.0973  11
   5   2  -8 96.3116 8.85773  17
   5   2  -8 61.9457 15.5226   4
   5   2  -8 94.1836 9.13878  18
   5   2  -8 93.1849 6.88767   9
   4   2  -8 59.7890 5.67061  10
   4   2  -8 62.9147 5.21161   9
   4   2  -8 63.0095 11.0873   4
   4   2  -8 64.6318 6.59682  11
   4   2  -8 59.5841 6.76201  17
   4   2  -8 46.6172 6.17685  18
   4   2  -8 58.1799 10.4807   3
   4   2  -8 52.7340 10.9181   2
   3   2  -8 61.2309 10.4518   2
   3   2  -8 31.2089 4.28212  10
   3   2  -8 35.2327 4.55734   9
   3   2  -8 34.4619 3.51036   8
   3   2  -8 39.1118 5.28890  11
   3   2  -8 33.2990 8.18560   4
   3   2  -8 43.6244 9.01799   3
   2   2  -8 0.57745 3.16152   4
   2   2  -8 1.72139 3.85098   2
   2   2  -8 7.25043 5.40958   3
   1   2  -8 35.1666 8.03597   3
   1   2  -8 41.2423 7.97302   2
   1   2  -8 41.2596 6.68731   4
   0   2  -8 -0.0626 5.59861   2
   0   2  -8 -0.1397 3.76842   3
   0   2  -8 3.16422 3.59212   4
   0  -2   8 0.80967 3.02318   3
   0  -2   8 3.73903 3.63825   6
   0  -2   8 -5.8218 5.47756   2
   1  -2   8 70.6454 11.0809   6
   1  -2   8 90.1243 12.7934   2
   1  -2   8 89.1361 11.1160   3
   2  -2   8 190.173 20.0592   2
   2  -2   8 207.430 20.6414   6
   2  -2   8 192.802 19.3195   3
   3  -2   8 5.77713 1.75953   8
   3  -2   8 -1.5201 3.47158  15
   3  -2   8 2.97277 7.84793   6
   3  -2   8 3.19859 2.27103  10
   3  -2   8 4.28611 2.44930   9
   3  -2   8 -5.8907 4.91910   2
   3  -2   8 1.60737 4.32551   3
   4  -2   8 19.0127 7.38309   2
   4  -2   8 33.9853 10.8788   6
   4  -2   8 17.5489 4.83374  16
   4  -2   8 16.1074 4.80675  15
   4  -2   8 21.0908 3.16865  10
   4  -2   8 14.3333 3.52344  14
   4  -2   8 17.9789 3.13214   9
   4  -2   8 26.3521 6.48894   3
   5  -2   8 6.91377 6.70839   2
   5  -2   8 -0.9921 1.99309  14
   5  -2   8 -0.7436 1.54432   9
   5  -2   8 7.14928 5.48158  16
   5  -2   8 5.94081 4.57069  15
   5  -2   8 -9.2321 9.04782   6
   6  -2   8 4.85726 3.35960  14
   6  -2   8 5.55536 5.55285  16
   6  -2   8 7.33495 5.04566  15
   6  -2   8 8.27880 2.22783  10
   7  -2   8 1.21774 4.20214  16
   7  -2   8 2.49815 3.29476  15
   8  -2   8 12.1862 3.24766  15
   8  -2   8 11.0526 3.59261  16
   8   1  -8 16.8863 3.31242  18
   7   1  -8 39.8061 6.29602  11
   7   1  -8 53.3864 6.01083  17
   7   1  -8 50.1473 7.14830  18
   6   1  -8 12.3486 3.88362  11
   6   1  -8 3.52145 3.89004  18
   6   1  -8 10.3161 2.19682  10
   6   1  -8 11.7479 3.17034  17
   5   1  -8 12.9167 11.7976   4
   5   1  -8 13.9599 2.32003   9
   5   1  -8 14.9901 4.65689  11
   5   1  -8 16.8181 3.89634  17
   5   1  -8 7.60692 2.49297  10
   5   1  -8 20.2774 7.32003   2
   5   1  -8 12.1865 4.07097  18
   5   1  -8 6.07253 11.0016   7
   4   1  -8 21.3512 6.65896   3
   4   1  -8 16.2433 3.69372  17
   4   1  -8 23.6570 4.44106  18
   4   1  -8 38.3086 8.88876   4
   4   1  -8 19.7070 7.44590   7
   4   1  -8 19.5496 2.88188   9
   4   1  -8 17.4532 6.95112   2
   4   1  -8 23.2179 3.10827  10
   4   1  -8 20.9760 4.52388  11
   3   1  -8 110.753 14.7585   7
   3   1  -8 90.8985 9.41764  18
   3   1  -8 110.589 7.18721   8
   3   1  -8 98.2535 8.15291   9
   3   1  -8 114.562 14.1393   2
   3   1  -8 110.799 13.5467   3
   3   1  -8 152.489 15.2560   4
   3   1  -8 96.8952 7.98139  10
   2   1  -8 293.189 26.2543   2
   2   1  -8 304.888 27.5012   3
   2   1  -8 314.688 25.7211   4
   1   1  -8 28.7350 7.19626   1
   1   1  -8 24.1697 5.86920   3
   1   1  -8 28.9115 7.32553   2
   0   1  -8 141.960 15.1048   2
   0   1  -8 150.900 14.7513   3
   0   1  -8 106.133 12.2055   1
   0  -1   8 117.248 11.7972   1
   0  -1   8 147.123 15.0811   2
   0  -1   8 151.964 14.2662   3
   1  -1   8 6.43015 5.26760   1
   1  -1   8 10.2153 4.76440   6
   1  -1   8 8.82777 4.48213   3
   1  -1   8 2.94040 4.81687   2
   2  -1   8 108.666 13.3835   2
   2  -1   8 107.741 14.4803   6
   2  -1   8 109.277 11.8527   3
   3  -1   8 8.71955 1.88382   8
   3  -1   8 18.5788 7.00309   6
   3  -1   8 10.9577 2.52505   9
   3  -1   8 16.7775 6.27804   2
   3  -1   8 10.4362 4.59168   3
   4  -1   8 57.8470 5.38573   9
   4  -1   8 61.7419 8.51932   3
   4  -1   8 67.1464 13.4146   6
   4  -1   8 50.6907 6.11709  14
   4  -1   8 59.6698 5.58024  10
   4  -1   8 55.1292 8.98198  16
   4  -1   8 59.1829 7.32898  15
   4  -1   8 65.5351 6.53246  13
   4  -1   8 64.0019 10.2438   2
   5  -1   8 73.8657 8.83275   3
   5  -1   8 73.7705 10.1830  15
   5  -1   8 72.1853 9.93809   2
   5  -1   8 82.9417 10.9542  16
   5  -1   8 73.2818 8.55063  14
   5  -1   8 89.7907 6.14091   9
   5  -1   8 90.2004 6.86963  10
   5  -1   8 60.5716 17.0663   6
   6  -1   8 6.62673 3.95558  16
   6  -1   8 13.0208 3.30390  14
   6  -1   8 9.56876 2.04234  10
   6  -1   8 10.6344 4.05527  15
   7  -1   8 1.65889 2.49172  14
   7  -1   8 -1.2463 3.81245  16
   7  -1   8 4.51173 3.61899  15
   8  -1   8 21.4407 4.80543  16
   8  -1   8 25.6001 5.08539  15
   8   0  -8 8.55112 2.60075  18
   7   0  -8 0.24141 2.70152  18
   7   0  -8 0.33609 3.54128  11
   7   0  -8 0.68673 2.49184  17
   6   0  -8 34.1897 3.84902  10
   6   0  -8 31.4489 6.14928  17
   6   0  -8 25.5894 5.63616  18
   6   0  -8 33.4317 6.13813  11
   5   0  -8 15.3218 9.76359   4
   5   0  -8 1.40401 3.58715  18
   5   0  -8 7.55095 2.31237  10
   5   0  -8 4.61359 1.69801   9
   5   0  -8 5.95791 3.32176  17
   5   0  -8 1.52950 10.9986   7
   5   0  -8 3.70470 4.28312  11
   4   0  -8 -1.2604 1.96274  10
   4   0  -8 -3.4694 2.28411  17
   4   0  -8 0.48489 1.81046   9
   4   0  -8 1.64343 3.52478  11
   4   0  -8 2.69094 6.12644   2
   4   0  -8 4.98298 6.35209   4
   4   0  -8 0.86177 2.09251  18
   4   0  -8 1.48758 5.66634   7
   4   0  -8 -2.8494 5.80447   3
   3   0  -8 5.40896 1.83346   9
   3   0  -8 2.03601 5.71926   7
   3   0  -8 5.51106 4.87968   3
   3   0  -8 2.20989 2.10139  18
   3   0  -8 5.24082 1.53671   8
   3   0  -8 4.45919 5.89091   4
   3   0  -8 7.20276 2.23018  10
   3   0  -8 1.55640 5.71421   2
   2   0  -8 72.5961 11.6848   2
   2   0  -8 67.6755 10.5378   3
   2   0  -8 69.6771 9.49641   7
   1   0  -8 259.208 23.3164   2
   1   0  -8 280.333 22.5330   7
   1   0  -8 235.474 20.5875   1
   1   0  -8 264.719 24.0992   3
   0   0  -8 301.249 22.6676   1
   0   0  -8 284.783 22.5095   1
   0   0  -8 347.481 26.9350   3
   0   0  -8 287.055 25.4753   2
   0   0   8 272.284 21.7640   1
   0   0   8 322.624 26.1241   3
   0   0   8 273.825 22.3509   1
   0   0   8 316.093 25.6951   2
  -1   0  -8 130.985 13.8459   1
   1   0   8 180.273 15.9268   3
   1   0   8 201.148 16.3714   2
   1   0   8 150.962 13.7682   1
   2   0   8 37.0488 7.60645   2
   2   0   8 46.1565 8.92806   6
   2   0   8 36.7948 6.82087   3
   3   0   8 32.9746 6.51880   3
   3   0   8 38.9607 7.84445   2
   3   0   8 39.7862 10.1967   6
   4   0   8 8.42532 1.90867   9
   4   0   8 6.80332 3.09911  14
   4   0   8 5.45007 3.49889   3
   4   0   8 13.3366 3.38725  13
   4   0   8 3.72940 4.46105   2
   4   0   8 8.77514 3.28118  15
   4   0   8 4.50167 6.26020   6
   4   0   8 3.84709 2.75848  16
   4   0   8 9.03304 2.14432  10
   5   0   8 601.192 41.9046  13
   5   0   8 521.052 34.4553   9
   5   0   8 552.842 41.0230  14
   5   0   8 591.986 37.8775   2
   5   0   8 503.374 42.8349  15
   5   0   8 552.418 48.4361   6
   5   0   8 503.197 40.4753   3
   5   0   8 494.924 42.1859  16
   5   0   8 556.664 34.4182  10
   6   0   8 209.921 18.1798  14
   6   0   8 192.623 30.5786   6
   6   0   8 251.007 19.0270  13
   6   0   8 218.536 20.1032  15
   6   0   8 203.845 19.0557  16
   7   0   8 38.3201 5.66561  14
   7   0   8 34.6312 7.06007  16
   7   0   8 33.9400 6.40860  15
   8   0   8 9.14974 3.03467  14
   8   0   8 11.9168 3.97968  15
   8   0   8 6.66379 3.78238  16
   9   0   8 1.86075 2.32622  15
   7  -1  -8 15.4441 4.90049  18
   7  -1  -8 8.39573 3.55553  17
   6  -1  -8 38.5423 3.74957  10
   6  -1  -8 36.2087 5.55322  11
   6  -1  -8 42.0477 7.19337  18
   6  -1  -8 37.0057 6.52001  17
   5  -1  -8 1.54067 2.71848  11
   5  -1  -8 4.25341 2.19029  10
   5  -1  -8 21.7457 9.89312   7
   5  -1  -8 4.71474 3.19817  17
   5  -1  -8 1.76419 2.87180  18
   5  -1  -8 4.12499 2.10186   9
   4  -1  -8 29.9234 5.32804  17
   4  -1  -8 37.9379 9.84609   2
   4  -1  -8 32.8469 3.79446  10
   4  -1  -8 33.8878 9.21258   7
   4  -1  -8 35.7788 5.13042  18
   4  -1  -8 37.7011 4.35085   9
   4  -1  -8 7.70956 9.93075   4
   4  -1  -8 27.0527 7.27984   3
   4  -1  -8 28.2229 5.38846  11
   3  -1  -8 36.2596 3.74670   8
   3  -1  -8 39.8125 4.05925  10
   3  -1  -8 37.8426 4.92492  18
   3  -1  -8 36.2431 9.37861   7
   3  -1  -8 34.2585 9.27084   2
   3  -1  -8 42.7103 9.19105   4
   3  -1  -8 37.8225 8.27549   3
   3  -1  -8 33.2662 4.73858   9
   2  -1  -8 3.88387 5.08776   3
   2  -1  -8 1.94749 5.41557   2
   2  -1  -8 1.74001 4.80238   7
   1  -1  -8 3.80083 5.23090   1
   1  -1  -8 11.7682 6.28475   2
   1  -1  -8 10.0414 4.76228   7
   1  -1  -8 16.5140 4.79928   3
   0  -1  -8 14.7970 5.21853   1
   0  -1  -8 33.4618 6.39385   1
   0  -1  -8 31.1170 7.21563   3
   0  -1  -8 25.9887 7.23850   2
   0   1   8 27.9766 4.96813   5
   0   1   8 16.7770 6.40215   2
   0   1   8 26.8794 5.55452   1
   0   1   8 27.2266 6.23139   3
   0   1   8 26.9622 5.73080   1
  -1  -1  -8 6.52912 3.50708   1
   1   1   8 4.06965 2.74226   3
   1   1   8 0.11391 3.02873   5
   1   1   8 4.93875 4.40210   2
   1   1   8 1.54890 2.49673   1
   1   1   8 1.71139 3.70670   1
   2   1   8 7.40633 4.60952   2
   2   1   8 5.92868 3.59247   3
   2   1   8 1.67032 5.16325   6
   2   1   8 5.29676 3.98875   5
   3   1   8 86.1426 12.8142   6
   3   1   8 67.8850 10.3165   5
   3   1   8 63.9340 9.27494   2
   3   1   8 75.6562 8.92246   3
   4   1   8 1.71817 3.83183   2
   4   1   8 -1.2396 4.71858   5
   4   1   8 3.44679 1.57943   9
   4   1   8 0.83289 2.56218  12
   4   1   8 3.83882 2.53241  15
   4   1   8 4.95705 1.72086  10
   4   1   8 8.43608 7.60090   6
   4   1   8 0.12566 2.65988  13
   4   1   8 6.31540 3.57915   3
   4   1   8 4.47492 2.83741  14
   5   1   8 4.45426 3.28569  13
   5   1   8 -0.5166 2.99316  14
   5   1   8 -7.7358 8.88300   6
   5   1   8 1.90217 2.92204  15
   5   1   8 -0.4544 2.15583  16
   5   1   8 -0.5000 1.40647  10
   6   1   8 15.8654 4.62804  16
   6   1   8 15.1688 3.68644  13
   6   1   8 16.9467 2.37445  10
   6   1   8 17.8442 13.5019   6
   6   1   8 15.6239 3.82061  14
   6   1   8 15.4098 4.33257  15
   7   1   8 27.7428 5.33315  14
   7   1   8 22.1021 5.46432  16
   7   1   8 27.3476 6.46897  15
   7   1   8 27.5008 5.36970  13
   8   1   8 193.961 16.5775  14
   8   1   8 213.656 18.0686  15
   8   1   8 190.281 17.4619  16
   9   1   8 -0.0176 2.78256  15
   7  -2  -8 0.70006 3.08652  17
   7  -2  -8 3.58667 3.01892  18
   6  -2  -8 2.25839 2.46182  17
   6  -2  -8 -0.6526 1.63071  10
   6  -2  -8 -1.5366 3.92032  18
   5  -2  -8 3.11809 3.44031  17
   5  -2  -8 3.01400 1.96078   9
   5  -2  -8 -3.3118 3.44635  18
   5  -2  -8 -0.4656 2.07126  10
   4  -2  -8 55.6354 6.42574  17
   4  -2  -8 46.9818 11.9632   7
   4  -2  -8 45.0617 9.90172   3
   4  -2  -8 57.9987 5.97867   9
   4  -2  -8 67.2138 6.08506  10
   4  -2  -8 46.0376 11.5192   2
   4  -2  -8 57.6488 7.56984  11
   4  -2  -8 67.8508 7.38617  18
   3  -2  -8 467.497 37.8355   3
   3  -2  -8 437.009 28.9238   9
   3  -2  -8 415.482 27.0775   8
   3  -2  -8 410.307 36.3572   4
   3  -2  -8 429.028 33.8545  18
   3  -2  -8 422.907 28.1148  10
   3  -2  -8 480.855 36.9219   2
   3  -2  -8 437.623 38.4316   7
   2  -2  -8 62.3097 11.6734   2
   2  -2  -8 83.5430 10.5582   3
   2  -2  -8 52.9087 10.8675   7
   1  -2  -8 -4.0755 3.81200   7
   1  -2  -8 1.91101 3.40954   3
   1  -2  -8 2.73482 4.09823   2
   0  -2  -8 70.8068 9.92904   2
   0  -2  -8 73.6079 9.46329   3
   0  -2  -8 67.1147 8.44859   1
   0   2   8 68.0426 9.32012   2
   0   2   8 89.2991 9.79648   3
   0   2   8 53.2944 7.35980   1
  -1  -2  -8 262.893 22.8668   1
   1   2   8 329.256 26.4990   3
   1   2   8 297.943 22.7404   1
   1   2   8 331.740 25.6769   2
   1   2   8 311.135 24.5049   5
   2   2   8 68.5913 9.13091   5
   2   2   8 51.1869 8.04308   3
   2   2   8 63.8589 8.88275   2
   3   2   8 117.198 11.4387   3
   3   2   8 94.6909 14.5946   6
   3   2   8 100.020 11.7604   5
   3   2   8 102.962 11.5821   2
   4   2   8 368.018 30.6986  14
   4   2   8 403.681 25.9296  10
   4   2   8 426.267 31.2277  12
   4   2   8 453.041 31.3968   2
   4   2   8 428.104 36.4098   6
   4   2   8 387.599 32.6240  15
   4   2   8 450.173 32.8517   3
   4   2   8 368.910 26.4571   9
   4   2   8 426.913 34.3749   5
   5   2   8 234.259 18.7775  12
   5   2   8 230.107 19.0671  13
   5   2   8 267.115 23.9833   5
   5   2   8 209.116 24.7551   6
   5   2   8 218.874 20.3337  15
   5   2   8 235.555 19.1745  14
   5   2   8 233.093 15.2523  10
   6   2   8 36.3211 6.25539  13
   6   2   8 29.2569 2.87477  10
   6   2   8 33.7058 6.36809  15
   6   2   8 31.6219 6.35577  14
   6   2   8 14.7540 12.8662   6
   6   2   8 34.6140 6.20563  12
   7   2   8 1.27673 2.42139  16
   7   2   8 -5.3562 4.09457  15
   7   2   8 -0.4054 2.51430  13
   7   2   8 -6.1419 3.17470  14
   8   2   8 48.5542 6.17687  14
   8   2   8 41.8857 6.01130  13
   8   2   8 36.7639 6.91063  15
   9   2   8 9.45058 2.94356  14
   9   2   8 3.65873 2.82385  15
   7  -3  -8 -2.1639 2.57367  18
   6  -3  -8 7.28611 2.80363  17
   6  -3  -8 7.31008 3.72298  18
   6  -3  -8 3.81549 1.99641  10
   5  -3  -8 -2.0501 2.17899  10
   5  -3  -8 2.08744 4.28600  18
   5  -3  -8 -1.0943 2.40325  17
   5  -3  -8 1.85300 1.55269   9
   4  -3  -8 19.4892 9.75324   7
   4  -3  -8 0.22163 8.84853   2
   4  -3  -8 16.5134 3.24791   9
   4  -3  -8 20.0873 5.31007  18
   4  -3  -8 12.0209 3.98598  17
   4  -3  -8 24.0504 3.70060  10
   3  -3  -8 5.60279 8.52475   2
   3  -3  -8 8.21764 4.04425  18
   3  -3  -8 6.73023 2.81190   9
   3  -3  -8 6.99294 2.71125  10
   3  -3  -8 -0.0152 5.85560   3
   3  -3  -8 13.8448 9.37901   7
   3  -3  -8 6.34477 2.00638   8
   2  -3  -8 5.95806 2.31101   9
   2  -3  -8 6.50927 5.12085   2
   2  -3  -8 0.48690 5.24884   3
   2  -3  -8 -0.9520 5.81466   7
   2  -3  -8 4.71003 1.63513   8
   1  -3  -8 267.229 23.1370   2
   1  -3  -8 246.136 23.1561   3
   1  -3  -8 217.806 21.5207   7
   0  -3  -8 406.998 33.0003   2
   0  -3  -8 406.826 34.1743   3
   0   3   8 415.085 33.9511   3
   0   3   8 378.383 32.1089   2
   1   3   8 0.63042 3.23580   1
   1   3   8 0.31359 3.55978   5
   1   3   8 4.32817 3.79162   3
   1   3   8 5.11093 3.58957   2
   2   3   8 20.8009 6.22352   5
   2   3   8 38.0703 6.77349   3
   2   3   8 40.2892 7.32789   2
   3   3   8 76.2422 8.89758   3
   3   3   8 50.3531 9.98153   5
   3   3   8 55.4880 8.79331   2
   3   3   8 82.1900 13.0017   6
   4   3   8 89.8094 8.76529  13
   4   3   8 86.3877 7.03851   9
   4   3   8 103.067 10.9109  15
   4   3   8 113.704 15.9842   6
   4   3   8 98.8621 9.09044  12
   4   3   8 101.273 6.98675  10
   4   3   8 85.9967 8.74351  14
   4   3   8 105.876 14.0551   5
   4   3   8 91.8089 10.5518   3
   4   3   8 99.8668 11.1178   2
   5   3   8 72.9487 7.93524  14
   5   3   8 85.4223 8.73205  13
   5   3   8 80.7670 12.6609   5
   5   3   8 66.5831 8.37661  15
   5   3   8 85.4717 16.0473   6
   5   3   8 75.8059 5.84952  10
   5   3   8 82.2426 7.88080  12
   6   3   8 106.191 16.3894   5
   6   3   8 114.200 10.7013  12
   6   3   8 92.1170 10.6830  15
   6   3   8 116.789 11.0536  13
   6   3   8 103.221 7.21727  10
   6   3   8 103.143 11.0155  14
   7   3   8 154.040 13.0880  12
   7   3   8 145.370 14.1043  15
   7   3   8 146.297 13.9906  13
   7   3   8 133.621 13.9877  14
   8   3   8 10.7589 4.21854  15
   8   3   8 19.9312 4.24233  13
   8   3   8 27.4616 4.99276  14
   9   3   8 46.3192 6.48790  14
   9   3   8 24.4488 5.29894  15
   6  -4  -8 1.65411 2.38754  17
   6  -4  -8 11.2257 1.81108  10
   6  -4  -8 11.4665 3.72294  18
   5  -4  -8 37.5628 7.10721  18
   5  -4  -8 28.7295 5.23099  17
   5  -4  -8 35.3902 5.04465  10
   5  -4  -8 37.4549 3.50144   9
   4  -4  -8 -3.2582 2.44541   9
   4  -4  -8 1.62034 3.14321  18
   4  -4  -8 -2.3847 2.45496  10
   3  -4  -8 33.5941 4.36589  10
   3  -4  -8 12.0172 6.32052   3
   3  -4  -8 28.6415 4.29699   9
   3  -4  -8 20.3306 10.5396   2
   3  -4  -8 31.9857 4.00084   8
   3  -4  -8 19.0738 11.3541   7
   2  -4  -8 2.49692 5.45496   7
   2  -4  -8 6.55235 8.05674   2
   2  -4  -8 1.17036 2.09139   8
   2  -4  -8 1.11076 6.60312   3
   2  -4  -8 3.82620 3.00598   9
   1  -4  -8 -8.0321 6.97992   2
   1  -4  -8 0.62223 3.90210   3
   1  -4  -8 3.63500 4.31493   7
   1   4   8 58.5802 9.70407   3
   1   4   8 73.1098 10.8856   2
   1   4   8 52.3027 8.50592   5
   2   4   8 7.37141 4.70899   3
   2   4   8 6.37876 5.10832   2
   2   4   8 9.83704 5.04121   5
   3   4   8 88.1125 13.3682   6
   3   4   8 86.9738 10.6390   2
   3   4   8 88.1877 10.8455   3
   3   4   8 74.2395 11.8769   5
   4   4   8 46.0624 10.2546   5
   4   4   8 50.5592 4.50197  10
   4   4   8 45.0622 7.60670   2
   4   4   8 48.6441 4.36525   9
   4   4   8 40.0634 9.93826   6
   4   4   8 48.6107 5.93872  14
   4   4   8 46.5760 5.31407  12
   4   4   8 51.3072 7.54715   3
   4   4   8 36.4543 6.93410  15
   4   4   8 39.7098 5.45906  13
   5   4   8 2.05277 2.21155  12
   5   4   8 4.55964 3.46390  13
   5   4   8 1.59546 2.44661  14
   5   4   8 3.30293 7.59502   5
   5   4   8 5.96386 1.73861  10
   5   4   8 4.50656 3.66392  15
   5   4   8 4.84451 2.29289   2
   6   4   8 126.127 11.5532  14
   6   4   8 101.410 7.27194  10
   6   4   8 94.0277 10.9933  15
   6   4   8 110.685 10.7402  12
   6   4   8 94.6553 10.8229  13
   6   4   8 108.199 18.2247   5
   7   4   8 224.457 19.0487  14
   7   4   8 225.034 18.2600  12
   7   4   8 223.352 18.8478  13
   7   4   8 179.979 18.5350  15
   8   4   8 18.8591 4.38358  14
   8   4   8 8.69247 4.38882  15
   8   4   8 17.8603 4.24085  13
   8   4   8 17.8332 3.62650  12
   9   4   8 13.0417 4.28365  13
   9   4   8 13.5222 4.21381  14
   6  -5  -8 3.55273 3.77002  18
   6  -5  -8 5.22167 1.21904  10
   5  -5  -8 7.10893 2.19611  10
   5  -5  -8 11.5189 3.90729  18
   4  -5  -8 22.7861 3.89819   9
   4  -5  -8 25.8953 4.03718  10
   4  -5  -8 33.5977 6.27483  18
   3  -5  -8 0.09983 13.1780   7
   3  -5  -8 16.0747 3.50351  10
   3  -5  -8 17.4338 3.32311   9
   3  -5  -8 24.3357 3.73428   8
   2  -5  -8 127.240 19.4517   3
   2  -5  -8 160.868 12.4111   9
   2  -5  -8 176.877 22.6110   2
   2  -5  -8 153.039 10.7977   8
   2  -5  -8 144.801 20.5743   7
   1  -5  -8 3.72599 5.35011   3
   1  -5  -8 4.05477 6.86960   7
   1  -5  -8 3.08648 2.47280   8
   1   5   8 3.74824 5.58197   3
   1   5   8 4.68712 4.63391   5
   1   5   8 -0.0922 5.84097   2
   2   5   8 7.10621 5.59864   5
   2   5   8 2.13936 1.74041   8
   2   5   8 1.46520 4.55993   3
   2   5   8 5.11098 5.65780   2
   3   5   8 337.946 28.2362   3
   3   5   8 301.287 20.4837  10
   3   5   8 333.433 26.6964   2
   3   5   8 302.070 21.0703   9
   3   5   8 304.768 19.7795   8
   3   5   8 341.036 28.7599   5
   4   5   8 23.3088 4.48714  13
   4   5   8 33.2375 7.74251   2
   4   5   8 34.0017 5.54194  14
   4   5   8 43.3233 10.3473   5
   4   5   8 28.9812 3.30613  10
   4   5   8 16.8646 5.39865   3
   4   5   8 32.7077 5.06111  12
   4   5   8 28.0080 3.64019   9
   5   5   8 4.38029 4.24696   2
   5   5   8 3.51281 3.01896  12
   5   5   8 -3.7477 8.09421   5
   5   5   8 -1.6837 3.40827  14
   5   5   8 4.71336 3.60622   3
   5   5   8 4.75027 1.70903  10
   5   5   8 5.25519 1.44498   9
   5   5   8 2.69010 3.39231  13
   6   5   8 69.3887 5.40524  10
   6   5   8 57.2284 15.0928   5
   6   5   8 66.2105 9.66385  14
   6   5   8 79.3739 7.81287  12
   6   5   8 68.9324 8.84098  13
   7   5   8 91.2380 11.0871  14
   7   5   8 90.8744 9.24756  12
   7   5   8 92.2979 9.72580  13
   8   5   8 45.8034 8.08784  14
   8   5   8 42.5137 5.63589  12
   8   5   8 26.8240 6.01387  13
   9   5   8 99.7335 9.30542  14
   9   5   8 89.0588 9.21949  13
   5  -6  -8 24.7685 4.06971  10
   5  -6  -8 21.0617 4.47549  18
   4  -6  -8 2.23137 3.34160  18
   4  -6  -8 -0.0686 1.83046  10
   4  -6  -8 3.59746 2.61075   9
   3  -6  -8 24.9595 4.15801  10
   3  -6  -8 25.0004 3.88314   8
   3  -6  -8 24.6506 4.43814   9
   2  -6  -8 -0.1014 2.46540   8
   2  -6  -8 -3.4977 12.7396   7
   2  -6  -8 -2.4031 3.22511   9
   2  -6  -8 25.2929 14.9904   2
   1  -6  -8 7.67765 2.29006   8
   1   6   8 10.8169 6.10182   5
   1   6   8 2.52538 6.80513   3
   1   6   8 7.53656 1.94972   8
   2   6   8 55.7370 10.3187   5
   2   6   8 59.1644 9.75299   3
   2   6   8 45.7753 5.95113   9
   2   6   8 51.8905 10.8502   2
   2   6   8 59.9618 4.81755   8
   3   6   8 1.63722 3.36315   3
   3   6   8 -4.9516 4.95373   5
   3   6   8 -0.5789 1.85307  13
   3   6   8 -0.0033 1.47832  10
   3   6   8 0.43106 1.53993   9
   3   6   8 11.2485 5.95164   2
   3   6   8 -1.4394 1.37593   8
   4   6   8 -0.1349 2.43413  14
   4   6   8 -3.6167 1.55799  10
   4   6   8 1.26208 2.97937  13
   4   6   8 -0.4964 1.73467   9
   4   6   8 0.61163 1.78426  12
   4   6   8 -4.3644 4.05294   3
   4   6   8 -2.2730 4.68067   2
   4   6   8 4.28255 6.90709   5
   5   6   8 3.09521 1.56165   9
   5   6   8 2.65526 3.56119  13
   5   6   8 1.97461 1.80377  10
   5   6   8 3.20119 4.01710   3
   5   6   8 5.79289 2.33974  12
   5   6   8 8.62699 7.42756   5
   5   6   8 1.18871 2.92359  14
   5   6   8 -3.9686 5.55970   2
   6   6   8 34.9873 5.31149  12
   6   6   8 44.5025 14.8614   5
   6   6   8 33.5433 3.59444  10
   6   6   8 30.6312 6.14039  13
   6   6   8 40.6510 6.81814  14
   7   6   8 1.88913 4.08941  13
   7   6   8 9.22967 3.90998  14
   7   6   8 -1.6772 2.27100  12
   8   6   8 2.24161 3.95427  13
   8   6   8 0.00169 2.31500  12
   8   6   8 0.07381 3.74948  14
   9   6   8 104.381 10.1896  14
   9   6   8 105.806 10.0393  13
   5  -7  -8 4.06680 2.41361  18
   5  -7  -8 8.28772 1.60344  10
   4  -7  -8 25.9591 3.78298  10
   4  -7  -8 21.0201 5.34282  18
   4  -7  -8 20.5335 3.18160   9
   3  -7  -8 0.89549 2.41846   9
   3  -7  -8 -1.6212 4.36089  18
   3  -7  -8 2.38843 1.49357   8
   3  -7  -8 -2.3252 1.83938  10
   2  -7  -8 1.10003 2.50470   8
   2  -7  -8 -0.0304 2.38960   9
   1  -7  -8 0.47743 2.02067   8
   1   7   8 48.2961 10.8483   5
   1   7   8 45.2116 5.27185   8
   2   7   8 3.53962 7.99690   2
   2   7   8 0.29359 1.28368   8
   2   7   8 -14.573 7.00489   5
   2   7   8 -8.1471 6.80400   3
   2   7   8 -1.3265 2.62049   9
   3   7   8 42.7212 4.16990   8
   3   7   8 51.2834 11.8006   5
   3   7   8 36.2812 6.00853  13
   3   7   8 40.3753 5.12310  10
   3   7   8 46.8979 5.32216   9
   3   7   8 36.9413 10.0712   2
   3   7   8 24.4457 8.82888   3
   4   7   8 -1.8859 3.65634  14
   4   7   8 13.8163 7.37022   2
   4   7   8 1.57769 2.18270  13
   4   7   8 3.69714 1.62324   9
   4   7   8 3.04224 5.70521   3
   4   7   8 2.40241 2.08592  10
   4   7   8 2.51735 6.35660   5
   5   7   8 21.9360 5.99800  14
   5   7   8 21.9204 3.05947   9
   5   7   8 28.6128 5.34023  13
   5   7   8 12.8359 11.7955   5
   5   7   8 22.2915 3.83552  12
   5   7   8 -1.0044 5.93711   2
   5   7   8 24.5888 3.70561  10
   6   7   8 37.3503 6.75776  14
   6   7   8 36.1274 5.70667  13
   6   7   8 27.5072 4.94529  12
   6   7   8 30.3714 3.69804  10
   7   7   8 -0.8246 3.37246  12
   7   7   8 -1.3611 2.54160  13
   7   7   8 -1.1974 4.26062  14
   8   7   8 5.27664 3.51828  12
   8   7   8 5.24663 3.36321  13
   8   7   8 4.63730 2.85972  14
   9   7   8 0.38185 2.57630  13
   4  -8  -8 1.61289 1.12821   9
   4  -8  -8 6.89955 2.63730  18
   4  -8  -8 5.40744 1.91866  10
   3  -8  -8 18.4076 3.64316   9
   3  -8  -8 16.7512 4.88411  18
   3  -8  -8 11.7046 3.71105  10
   2  -8  -8 5.33231 2.60686   9
   2  -8  -8 4.99059 1.86432   8
   1  -8  -8 -0.8602 2.01942   8
   0  -8  -8 17.3056 3.27830   8
   0   8   8 20.5685 3.18394   8
   1   8   8 34.5843 4.84204   8
   2   8   8 249.251 26.7572   5
   2   8   8 233.033 15.7002   8
   2   8   8 235.051 17.3115   9
   3   8   8 -2.3517 3.08225  13
   3   8   8 0.81420 2.48827   9
   3   8   8 1.86000 10.2386   5
   3   8   8 -1.1035 2.40197  10
   3   8   8 4.97030 9.60076   2
   3   8   8 1.00592 1.70507   8
   4   8   8 197.156 15.9062  14
   4   8   8 121.723 19.2227   5
   4   8   8 169.167 12.1299   9
   4   8   8 152.575 11.9358  10
   4   8   8 149.426 14.4959  13
   5   8   8 109.666 12.1590  14
   5   8   8 125.649 9.45117  10
   5   8   8 116.426 10.7376  12
   5   8   8 128.384 11.8084  13
   5   8   8 125.980 8.98790   9
   6   8   8 49.3518 7.67242  14
   6   8   8 59.1049 7.27936  12
   6   8   8 52.7165 7.22831  13
   6   8   8 61.5303 5.38424  10
   7   8   8 -2.2812 2.30530  12
   7   8   8 -5.2235 2.48672  14
   7   8   8 -2.5558 2.60851  13
   8   8   8 54.5764 6.68122  13
   8   8   8 43.7311 5.99987  14
   8   8   8 55.9967 5.98864  12
   9   8   8 23.9502 4.18995  13
   3  -9  -8 18.0033 2.92572   9
   2  -9  -8 -1.4972 1.61200   8
   2  -9  -8 -3.0220 3.02630   9
   1  -9  -8 1.74699 1.92391   8
   0  -9  -8 42.0455 5.91493   8
   0   9   8 26.4482 4.07990   8
   1   9   8 16.3083 3.22750   8
   2   9   8 1.36610 1.42847   8
   2   9   8 2.81331 2.33063   9
   3   9   8 11.8733 2.83597  10
   3   9   8 7.65613 2.05383   8
   3   9   8 9.56235 3.92313  13
   3   9   8 10.5562 3.24818   9
   4   9   8 13.7812 3.02458   9
   4   9   8 5.58543 4.32420  14
   4   9   8 11.4351 4.15536  13
   4   9   8 10.2196 2.52225  10
   5   9   8 44.6269 8.04839  14
   5   9   8 46.2990 5.24626  10
   5   9   8 39.0143 4.49705   9
   5   9   8 43.0596 7.08543  13
   6   9   8 3.24539 3.96174  13
   6   9   8 5.50833 3.95756  14
   6   9   8 5.90745 2.03909  10
   6   9   8 2.49143 2.27671  12
   7   9   8 15.5093 3.49205  14
   7   9   8 19.4698 4.18790  13
   7   9   8 14.8654 3.75886  12
   8   9   8 1.87165 1.93751  12
   8   9   8 0.73733 2.38879  13
   2 -10  -8 5.89272 2.44302  18
   2 -10  -8 6.20569 2.03882   9
   1 -10  -8 5.04977 1.70847   8
   1 -10  -8 3.46750 3.48118   9
  -1  10   8 3.35582 1.80611   8
   0 -10  -8 181.066 13.3375   8
   0  10   8 205.862 13.5188   8
   1  10   8 216.950 14.6059   8
   2  10   8 28.0490 3.34534   8
   2  10   8 22.0645 4.35782   9
   3  10   8 7.29894 2.36211   9
   3  10   8 8.17883 2.79172  13
   3  10   8 8.87631 1.67234   8
   4  10   8 5.64010 1.85217   9
   4  10   8 6.83518 3.03436  13
   4  10   8 6.64329 2.24486  10
   4  10   8 5.99226 2.79282  14
   5  10   8 -0.4792 3.44672  14
   5  10   8 4.00562 1.82255  10
   5  10   8 2.05834 1.32463   9
   5  10   8 3.61051 2.79123  13
   6  10   8 14.6385 3.38731  13
   6  10   8 6.81452 1.67530  10
   7  10   8 447.216 34.7706  13
   0 -11  -8 22.7021 3.17885   8
   0  11   8 23.0818 2.98023   8
  -1 -11  -8 22.5627 3.81193   8
   1  11   8 27.4227 3.17176   8
   2  11   8 5.31438 1.76826   8
   2  11   8 6.05289 2.31296   9
   3  11   8 113.115 8.11264   9
   3  11   8 90.3909 8.96441  13
   3  11   8 96.4091 9.05956  14
   4  11   8 -0.5241 1.91705  14
   4  11   8 -0.5882 2.05877  13
   4  11   8 -2.2146 1.75489   9
   4  11   8 2.08687 1.85993  10
   5  11   8 15.3141 3.33512  13
   5  11   8 28.2841 3.31038  10
   6  11   8 22.2108 4.03685  13
   6  11   8 24.8226 2.57798  10
   2  12   8 10.8405 2.19949   9
   3  12   8 48.7424 4.81180   9
   4  12   8 8.09064 1.99855  10
   4  12   8 7.36854 1.28274   9
   5  12   8 4.01767 1.86451  10
   3  10  -9 100.661 7.16704   9
   2  10  -9 4.10914 1.71626   9
   1  10  -9 -1.0005 0.90155   8
  -1 -10   9 -0.6292 1.42358   8
   5   9  -9 36.7245 3.93372  10
   5   9  -9 40.5875 4.81993  12
   4   9  -9 4.44827 2.58704  12
   4   9  -9 3.59536 1.74748  10
   4   9  -9 4.25466 1.19753   9
   3   9  -9 9.90336 2.66911   9
   3   9  -9 7.64936 2.82105  12
   2   9  -9 5.03363 1.53149   8
   2   9  -9 1.64129 2.22602  12
   2   9  -9 4.17113 2.69437   9
   1   9  -9 1.54587 1.83637   8
   1   9  -9 2.64094 2.87074  12
  -1  -9   9 2.82608 2.19343   8
   0   9  -9 0.29366 1.90215   8
   0  -9   9 4.53126 2.46231   8
  -1   9  -9 -3.7047 1.91596   8
   1  -9   9 2.53942 1.56358   8
   1  -9   9 -0.8088 3.24172   9
   2  -9   9 3.34179 1.68199   9
   6   8  -9 -0.3887 2.02293  12
   6   8  -9 2.72600 0.92572  10
   5   8  -9 130.053 11.6331  12
   5   8  -9 130.762 9.28059  10
   4   8  -9 17.3320 3.95861  12
   4   8  -9 22.0989 3.03573   9
   4   8  -9 23.1446 3.45392  10
   3   8  -9 2.32137 0.90526   8
   3   8  -9 -0.1195 2.51904   9
   3   8  -9 -0.2201 3.39241  12
   2   8  -9 37.2988 6.26115  12
   2   8  -9 26.7626 4.30884   9
   2   8  -9 22.6067 3.03833   8
   1   8  -9 72.7172 6.10602   8
   0   8  -9 11.7898 2.96876   8
   0  -8   9 16.3640 2.93826   8
   1  -8   9 -1.0553 2.41667   8
   1  -8   9 -2.9027 4.03053  16
   2  -8   9 13.9831 4.42540  16
   2  -8   9 19.8465 3.23687   9
   2  -8   9 20.6839 2.21092   8
   3  -8   9 4.96980 1.64488   9
   3  -8   9 -1.3290 2.46014  16
   6   7  -9 3.78905 1.55660  10
   6   7  -9 -0.2849 1.85562  11
   6   7  -9 0.62731 2.70285  12
   5   7  -9 5.13185 1.36691   9
   5   7  -9 4.41279 2.23888  10
   5   7  -9 6.79548 3.18411  12
   4   7  -9 23.3718 5.11590  12
   4   7  -9 25.2675 3.32321   9
   4   7  -9 22.6746 3.62114  10
   3   7  -9 130.716 12.1649  12
   3   7  -9 124.389 9.55670   9
   3   7  -9 120.021 8.25254   8
   3   7  -9 102.967 9.63364  10
   2   7  -9 65.3752 6.60713   9
   2   7  -9 71.2270 5.62646   8
   1   7  -9 21.4673 3.45783   8
   0   7  -9 35.2986 5.24083   8
   0  -7   9 40.0588 5.24587   8
   1  -7   9 7.04925 3.01337   8
   2  -7   9 5.07215 2.27949   8
   2  -7   9 0.93176 3.22862   9
   2  -7   9 -0.9316 3.11770  16
   3  -7   9 50.5286 6.55019  10
   3  -7   9 44.2818 6.76509  16
   3  -7   9 54.2746 6.04226   9
   4  -7   9 202.258 14.2756  10
   4  -7   9 213.021 17.1988  16
   4  -7   9 210.996 13.8836   9
   7   6  -9 49.3019 5.04008  11
   6   6  -9 3.57575 3.14841  12
   6   6  -9 1.28875 1.54524  10
   6   6  -9 -1.6680 2.10590  11
   5   6  -9 9.89270 3.82802  12
   5   6  -9 12.8766 2.77571  10
   5   6  -9 15.3446 2.36738   9
   5   6  -9 8.70445 2.63307  11
   4   6  -9 15.7689 3.18374  10
   4   6  -9 11.0981 2.82460   9
   4   6  -9 11.0058 3.40918  11
   4   6  -9 18.5704 4.36399  12
   3   6  -9 33.7960 4.93502   9
   3   6  -9 28.9552 4.01727  10
   3   6  -9 29.4510 3.40057   8
   2   6  -9 81.2113 6.66782   8
   2   6  -9 79.5387 7.85574   9
   1   6  -9 35.9330 4.66991   8
   0  -6   9 41.0030 6.54043   8
   1  -6   9 1.62403 2.83110   8
   2  -6   9 39.7460 5.11352   8
   2  -6   9 29.8864 5.38020   9
   3  -6   9 0.89522 1.04392   8
   3  -6   9 0.43467 4.58478  16
   3  -6   9 8.22164 3.49116   9
   3  -6   9 -0.7513 2.24195  10
   4  -6   9 13.6415 2.95018  10
   4  -6   9 8.10860 3.65277  16
   4  -6   9 11.4572 2.25583   9
   5  -6   9 4.25747 2.86809  16
   5  -6   9 -1.1393 2.12050  10
   7   5  -9 7.85347 2.60680  11
   6   5  -9 0.44532 1.68986  10
   6   5  -9 -2.7874 3.19631  11
   6   5  -9 3.77333 3.18852  12
   5   5  -9 81.1092 10.7698  12
   5   5  -9 83.8730 6.27761   9
   5   5  -9 69.3952 7.88866  11
   5   5  -9 85.9154 6.70341  10
   4   5  -9 206.304 17.6718  11
   4   5  -9 239.566 19.6103  12
   4   5  -9 237.116 15.9787   9
   4   5  -9 220.274 15.5901  10
   3   5  -9 26.7373 8.65013   4
   3   5  -9 36.2166 5.05436  11
   3   5  -9 28.4349 3.36274   8
   3   5  -9 28.9482 4.88258  10
   2   5  -9 46.0288 9.44451   4
   2   5  -9 22.0896 10.1679   3
   2   5  -9 46.7193 4.72081   8
   1   5  -9 6.11397 2.36297   8
   1  -5   9 11.1515 2.73418   8
   2  -5   9 7.29559 3.83259   9
   2  -5   9 5.60765 2.74402   8
   2  -5   9 15.3138 14.9796   2
   3  -5   9 -2.8128 1.98475  10
   3  -5   9 0.93788 1.80971   8
   3  -5   9 -0.3961 3.10931   9
   3  -5   9 1.46458 4.97938  16
   4  -5   9 32.8305 4.91252   9
   4  -5   9 31.3385 5.83534  16
   4  -5   9 23.4498 4.32069  10
   5  -5   9 31.0776 5.72485  16
   5  -5   9 41.8630 5.10633  10
   6  -5   9 8.29727 3.31344  16
   6  -5   9 7.93720 1.60796  10
   7   4  -9 -0.7408 1.92921  18
   7   4  -9 6.39059 2.72524  11
   6   4  -9 -0.5749 1.49622  10
   6   4  -9 -0.4626 2.33865  11
   6   4  -9 0.21966 2.78815  18
   5   4  -9 53.0746 4.57964   9
   5   4  -9 54.1298 5.53800  10
   5   4  -9 44.3354 7.34395  12
   5   4  -9 51.5814 7.26211  11
   4   4  -9 54.1412 8.47605  12
   4   4  -9 56.6922 5.26889  10
   4   4  -9 51.5046 6.05502  11
   4   4  -9 47.8398 11.6312   4
   3   4  -9 253.277 19.7711  11
   3   4  -9 288.076 26.0594   4
   3   4  -9 215.363 25.9942   3
   3   4  -9 261.841 16.8514   8
   3   4  -9 265.475 26.6996   2
   3   4  -9 289.856 18.5334   9
   3   4  -9 247.602 17.8442  10
   2   4  -9 15.4020 3.33456  11
   2   4  -9 27.1822 10.1489   2
   2   4  -9 17.0503 3.62947   9
   2   4  -9 11.2526 8.09130   3
   2   4  -9 26.2303 2.96807   8
   2   4  -9 15.2649 7.35329   4
   1   4  -9 2.36738 5.54442   4
   1   4  -9 5.33779 1.76408   8
   1  -4   9 6.40977 2.35445   8
   2  -4   9 4.51148 2.52197   9
   2  -4   9 9.88308 7.97113   2
   2  -4   9 -21.454 9.96504   6
   2  -4   9 2.78781 1.87885   8
   2  -4   9 4.52133 7.04193   3
   3  -4   9 23.3569 10.0933   2
   3  -4   9 34.3371 15.6725   6
   3  -4   9 39.6561 5.14279   9
   3  -4   9 28.7215 4.70354  10
   3  -4   9 42.3097 7.48022  16
   3  -4   9 39.4901 4.33073   8
   4  -4   9 13.1565 3.49909   9
   4  -4   9 16.8639 5.11310  16
   4  -4   9 11.3547 2.95411  10
   5  -4   9 11.0046 2.67310  10
   5  -4   9 9.65489 5.57842  16
   5  -4   9 9.89364 1.87173   9
   6  -4   9 17.3134 5.74583  16
   6  -4   9 15.1835 2.49725  10
   7  -4   9 13.6209 3.44077  16
   7   3  -9 24.9266 5.01626  18
   7   3  -9 28.9036 4.96898  11
   6   3  -9 10.7046 4.54721  11
   6   3  -9 19.5164 3.10955  10
   6   3  -9 10.5649 3.80369  18
   5   3  -9 18.8192 4.29282  18
   5   3  -9 23.8715 4.32271  11
   5   3  -9 23.2961 3.42717  10
   5   3  -9 27.5668 3.34949   9
   4   3  -9 33.1813 9.86107   2
   4   3  -9 39.1630 5.34589  11
   4   3  -9 40.3857 4.96084  10
   4   3  -9 40.0758 4.97904   9
   4   3  -9 43.0334 11.3103   4
   4   3  -9 40.3112 6.28377  12
   3   3  -9 1.06525 4.69417   4
   3   3  -9 4.66955 3.04120  11
   3   3  -9 3.70141 1.98778   9
   3   3  -9 0.66849 5.10631   2
   3   3  -9 -1.9300 5.74684   3
   3   3  -9 2.95668 1.22520   8
   3   3  -9 4.14335 2.30268  10
   2   3  -9 148.187 17.7153   2
   2   3  -9 124.588 10.5163   9
   2   3  -9 143.517 14.8741   4
   2   3  -9 135.893 9.53595   8
   2   3  -9 117.870 16.5222   3
   1   3  -9 429.560 35.9805   2
   1   3  -9 405.611 36.1933   3
   1   3  -9 369.957 26.1534   8
   1   3  -9 489.228 33.4212   4
  -1  -3   9 435.938 34.7962   6
   0   3  -9 7.56269 3.76553   4
   0  -3   9 9.27574 6.70029   6
   1  -3   9 18.2075 6.96926   3
   1  -3   9 15.2672 8.18522   6
   1  -3   9 18.4048 9.25582   2
   1  -3   9 24.7590 3.79824   8
   2  -3   9 0.12704 2.25707   8
   2  -3   9 -0.0389 2.55182   9
   2  -3   9 -0.8132 3.60378   3
   2  -3   9 8.32024 9.33882   6
   2  -3   9 -9.1435 7.53850   2
   3  -3   9 32.6771 8.54128   3
   3  -3   9 44.7864 12.2024   6
   3  -3   9 40.6031 4.23796   8
   3  -3   9 42.8659 5.74239   9
   3  -3   9 28.5537 5.85285  15
   3  -3   9 34.4519 5.20547  10
   3  -3   9 20.6179 9.93459   2
   4  -3   9 26.8328 4.22335   9
   4  -3   9 35.6446 7.40205  16
   4  -3   9 17.5509 5.25628  15
   4  -3   9 22.8366 3.88281  10
   4  -3   9 24.7561 12.3344   6
   4  -3   9 22.8034 10.1371   2
   5  -3   9 3.86108 2.68316  10
   5  -3   9 2.18894 1.98114   9
   5  -3   9 6.17977 2.32351  14
   5  -3   9 7.83512 4.73609  15
   5  -3   9 9.33833 4.59963  16
   6  -3   9 46.0526 7.98176  16
   6  -3   9 37.9152 6.29717  15
   6  -3   9 41.9575 4.54789  10
   7  -3   9 0.82238 2.45158  15
   7  -3   9 3.99462 3.77016  16
   7   2  -9 12.5597 3.88373  18
   7   2  -9 15.5461 3.95463  11
   6   2  -9 -8.8904 3.46234  11
   6   2  -9 1.06778 1.57801  10
   6   2  -9 2.38008 3.71759  17
   6   2  -9 -2.6028 2.14781  18
   5   2  -9 31.5804 3.93655   9
   5   2  -9 35.7264 4.44295  10
   5   2  -9 38.5314 6.91148  11
   5   2  -9 16.0393 13.0392   4
   5   2  -9 29.6218 4.89266  18
   5   2  -9 38.8279 6.20355  17
   4   2  -9 28.8553 5.22645  18
   4   2  -9 33.3658 4.90394  17
   4   2  -9 22.4763 8.80919   4
   4   2  -9 37.6343 4.63746  10
   4   2  -9 39.5238 5.35686  11
   4   2  -9 35.2584 8.90725   3
   4   2  -9 35.4852 4.56259   9
   4   2  -9 32.9659 9.33678   2
   3   2  -9 19.1084 3.30819  10
   3   2  -9 17.3754 8.33256   2
   3   2  -9 17.9887 2.99293   8
   3   2  -9 20.7629 3.84137  11
   3   2  -9 16.8910 5.92035   3
   3   2  -9 18.0994 3.40399   9
   3   2  -9 18.0286 6.23199   4
   2   2  -9 79.3714 12.8676   3
   2   2  -9 67.9283 12.7369   2
   2   2  -9 95.1346 12.2494   4
   2   2  -9 77.3014 6.29382   8
   2   2  -9 73.4098 7.14718   9
   1   2  -9 -1.8684 4.25368   4
   1   2  -9 -4.5802 6.14745   2
   1   2  -9 4.59479 4.21210   3
   0   2  -9 60.0532 8.05312   4
   0  -2   9 55.9922 10.2641   6
   1  -2   9 114.326 16.0014   2
   1  -2   9 119.623 13.8456   3
   1  -2   9 130.450 16.1760   6
   2  -2   9 153.515 14.5684  15
   2  -2   9 230.890 21.8267   6
   2  -2   9 171.453 11.8870   8
   2  -2   9 158.058 12.7188   9
   2  -2   9 178.249 19.7909   2
   2  -2   9 202.503 18.3911   3
   3  -2   9 57.8633 5.98063   9
   3  -2   9 60.4688 5.06974   8
   3  -2   9 74.6899 12.7317   2
   3  -2   9 59.9161 10.3343   3
   3  -2   9 64.6890 6.13933  10
   3  -2   9 72.8214 13.4048   6
   3  -2   9 42.7336 6.78795  15
   4  -2   9 35.4412 8.24243   3
   4  -2   9 47.9075 10.9130   2
   4  -2   9 45.0176 5.27110  10
   4  -2   9 51.3427 5.63124   9
   4  -2   9 37.0673 6.84257  15
   4  -2   9 50.2962 5.43877  14
   4  -2   9 53.4239 9.62019  16
   4  -2   9 33.4918 14.0836   6
   5  -2   9 0.78214 1.85060   9
   5  -2   9 6.74637 15.8415   6
   5  -2   9 0.42134 2.25639  10
   5  -2   9 -4.8802 5.12102  16
   5  -2   9 -1.2346 2.67815  14
   5  -2   9 -2.8299 2.87781  15
   6  -2   9 205.021 18.7419  16
   6  -2   9 201.993 13.7000  10
   6  -2   9 176.966 17.6656  15
   6  -2   9 210.431 16.4781  14
   7  -2   9 59.1082 7.57037  15
   7  -2   9 65.4142 9.06179  16
   8  -2   9 0.80873 2.35896  15
   8  -2   9 0.12152 2.68089  16
   7   1  -9 -0.6853 2.41830  18
   7   1  -9 -0.5399 3.85504  11
   7   1  -9 -0.4783 2.15870  17
   6   1  -9 18.6363 3.64740  17
   6   1  -9 16.5572 4.07184  18
   6   1  -9 20.9513 3.20324  10
   6   1  -9 14.0951 4.32254  11
   5   1  -9 69.9221 8.61213  18
   5   1  -9 85.9016 9.58366  11
   5   1  -9 67.2209 8.21860  17
   5   1  -9 78.1064 6.79040  10
   5   1  -9 83.8970 6.20469   9
   5   1  -9 54.4803 17.2445   4
   4   1  -9 66.2773 5.65907   9
   4   1  -9 77.9874 12.3173   3
   4   1  -9 67.0077 12.0555   2
   4   1  -9 58.9177 6.08693  10
   4   1  -9 59.7748 6.85775  18
   4   1  -9 75.2054 8.31611  11
   4   1  -9 37.3301 12.3575   4
   3   1  -9 6.59860 1.72520   8
   3   1  -9 -3.9554 5.76387   4
   3   1  -9 7.06984 2.38194  18
   3   1  -9 5.24645 2.50889   9
   3   1  -9 8.07313 2.48849  10
   3   1  -9 3.10729 5.75961   3
   3   1  -9 13.3862 7.34343   2
   2   1  -9 33.4955 4.15952   8
   2   1  -9 42.2977 8.69239   4
   2   1  -9 52.2964 10.2983   2
   2   1  -9 38.0093 8.92199   3
   1   1  -9 32.1824 8.58207   2
   1   1  -9 36.2165 8.14228   3
   1  -1   9 37.8907 7.95609   3
   1  -1   9 46.9790 8.57313   2
   1  -1   9 63.5317 11.0697   6
   2  -1   9 187.350 20.7667   6
   2  -1   9 183.272 19.4016   2
   2  -1   9 198.181 19.0621   3
   3  -1   9 3.77425 1.65793  10
   3  -1   9 1.79014 3.63232   3
   3  -1   9 3.84568 2.38101   9
   3  -1   9 1.67403 2.56130  15
   3  -1   9 -2.3189 5.20661   2
   3  -1   9 4.66324 7.57325   6
   3  -1   9 0.35311 1.67645   8
   4  -1   9 19.7382 3.25454   9
   4  -1   9 32.2703 6.99158   3
   4  -1   9 25.5707 4.88873  15
   4  -1   9 21.5147 4.09864  14
   4  -1   9 9.93832 8.20220   6
   4  -1   9 27.7104 3.43627  10
   4  -1   9 22.8579 5.08517  16
   4  -1   9 17.3585 7.11399   2
   5  -1   9 4.94942 7.24879   2
   5  -1   9 9.15922 4.19578  16
   5  -1   9 16.8242 2.36043   9
   5  -1   9 13.8712 2.78006  10
   5  -1   9 10.0546 4.92690  15
   5  -1   9 -9.5827 12.4422   6
   5  -1   9 5.36505 4.15897   3
   5  -1   9 13.3293 3.87266  14
   6  -1   9 1.27034 1.72661  10
   6  -1   9 -3.0875 2.80364  15
   6  -1   9 1.54119 3.20120  14
   6  -1   9 -4.1270 3.39501  16
   7  -1   9 -3.6672 4.62489  15
   7  -1   9 -2.1054 5.63685  16
   7  -1   9 -2.0078 3.09373  14
   8  -1   9 6.62088 3.29220  16
   8  -1   9 6.01784 2.98608  15
   7   0  -9 -1.5570 2.11140  17
   7   0  -9 -3.1382 2.36157  11
   7   0  -9 0.85687 2.56552  18
   6   0  -9 4.49502 1.94650  10
   6   0  -9 1.07577 3.13065  17
   6   0  -9 11.0879 4.69739  11
   6   0  -9 6.74276 3.99916  18
   5   0  -9 8.27459 4.57113  11
   5   0  -9 18.0092 3.23631  10
   5   0  -9 16.7381 2.51331   9
   5   0  -9 10.9181 4.14638  18
   5   0  -9 16.1704 3.96894  17
   4   0  -9 11.3004 10.2252   7
   4   0  -9 13.2419 8.17279   2
   4   0  -9 14.9281 3.54322  18
   4   0  -9 19.2977 3.12103   9
   4   0  -9 16.0867 8.45103   4
   4   0  -9 24.9231 4.14642  10
   4   0  -9 1.91231 7.46112   3
   4   0  -9 14.4796 4.61807  11
   3   0  -9 8.37157 6.57965   4
   3   0  -9 1.30569 2.72071  18
   3   0  -9 6.81283 2.51817   9
   3   0  -9 5.62724 2.47366  10
   3   0  -9 1.18035 6.93149   7
   3   0  -9 5.49837 5.99754   3
   3   0  -9 3.93038 1.61422   8
   3   0  -9 -1.3934 6.87417   2
   2   0  -9 278.795 25.1028   3
   2   0  -9 246.588 24.3126   2
   2   0  -9 229.385 16.6125   8
   2   0  -9 293.075 24.0185   4
   2   0  -9 283.417 24.1359   7
   1   0  -9 63.2239 10.0226   2
   1   0  -9 51.3169 9.90930   3
   0   0  -9 7.55850 5.83280   3
   0   0  -9 -0.5683 6.35078   2
   0   0   9 7.07301 4.74098   3
   0   0   9 6.87827 6.54769   2
   1   0   9 259.286 23.7210   2
   1   0   9 274.833 24.2461   3
   2   0   9 314.914 27.9231   6
   2   0   9 290.696 26.0023   3
   2   0   9 284.864 25.5174   2
   3   0   9 25.2160 3.35674   9
   3   0   9 35.6314 6.96447   3
   3   0   9 37.1758 7.77444   2
   3   0   9 37.5234 9.63426   6
   3   0   9 28.5778 3.28024   8
   3   0   9 23.4660 4.84085  15
   4   0   9 2.85181 1.78819   9
   4   0   9 -5.3257 2.97867   3
   4   0   9 -0.0570 3.68899  15
   4   0   9 1.46737 3.60929  16
   4   0   9 4.72072 5.14429   2
   4   0   9 0.42835 1.83718  10
   4   0   9 11.1410 9.74490   6
   4   0   9 3.58820 2.17604  13
   4   0   9 -0.1754 1.86422  14
   5   0   9 499.839 43.8295  16
   5   0   9 582.151 40.9716   2
   5   0   9 604.673 35.9681  10
   5   0   9 568.719 50.7938   6
   5   0   9 526.680 43.2307   3
   5   0   9 570.012 36.1932   9
   5   0   9 648.703 43.7264  13
   5   0   9 528.332 44.6478  15
   5   0   9 523.266 42.2246  14
   6   0   9 4.69186 3.58714  13
   6   0   9 -0.8168 10.5132   6
   6   0   9 3.03271 1.73090  10
   6   0   9 -3.0660 4.27086  16
   6   0   9 -5.5842 4.05402  15
   6   0   9 -1.5341 2.19226  14
   7   0   9 6.50404 3.53384  15
   7   0   9 -1.6234 3.28379  14
   7   0   9 7.49907 3.87036  16
   8   0   9 19.3156 4.34264  16
   8   0   9 18.6471 3.60150  14
   8   0   9 15.7663 4.31709  15
   7  -1  -9 29.5426 4.88427  18
   6  -1  -9 1.81427 3.21830  17
   6  -1  -9 -2.4434 1.57694  10
   6  -1  -9 -0.6993 3.70600  18
   6  -1  -9 1.49305 3.85298  11
   5  -1  -9 13.5572 4.47462  18
   5  -1  -9 10.9239 3.83423  17
   5  -1  -9 12.9029 2.98644  10
   5  -1  -9 14.1183 2.66052   9
   5  -1  -9 12.4907 4.90249  11
   4  -1  -9 -3.1988 7.40794   2
   4  -1  -9 -0.3565 10.3694   7
   4  -1  -9 -6.2353 10.4106   4
   4  -1  -9 2.86402 3.96686  11
   4  -1  -9 1.06806 3.26743  18
   4  -1  -9 1.64982 2.17298   9
   4  -1  -9 -3.4025 5.72560   3
   4  -1  -9 7.79430 2.54771  10
   3  -1  -9 31.1205 5.57368  18
   3  -1  -9 32.7386 9.69912   4
   3  -1  -9 28.0319 4.59139   9
   3  -1  -9 34.0228 9.82862   2
   3  -1  -9 10.7043 7.12045   3
   3  -1  -9 37.1343 4.65586  10
   3  -1  -9 34.7630 3.60051   8
   3  -1  -9 24.0255 9.17432   7
   2  -1  -9 0.72293 4.98765   3
   2  -1  -9 1.54036 1.48616   8
   2  -1  -9 -4.4099 3.56588   7
   2  -1  -9 6.88100 5.69224   2
   1  -1  -9 9.19930 5.94301   3
   1  -1  -9 7.61146 5.09320   2
   1  -1  -9 8.84428 4.62236   7
   0  -1  -9 531.814 43.5067   2
   0  -1  -9 583.445 46.3013   3
   0   1   9 566.263 45.3903   3
   0   1   9 538.903 43.1510   2
   1   1   9 9.79539 5.60718   2
   1   1   9 6.95504 5.23285   1
   1   1   9 19.0398 4.92163   5
   1   1   9 17.3364 4.77860   3
   2   1   9 32.0085 6.56876   5
   2   1   9 27.8743 7.07005   2
   2   1   9 41.0746 9.24828   6
   2   1   9 25.0022 5.90655   3
   3   1   9 50.1529 9.17227   5
   3   1   9 46.3914 7.64976   3
   3   1   9 63.4810 12.3567   6
   3   1   9 46.4246 8.77751   2
   4   1   9 110.459 10.4481  14
   4   1   9 128.489 13.5333   2
   4   1   9 98.7639 10.5868  16
   4   1   9 127.409 8.89606  10
   4   1   9 127.775 8.94354   9
   4   1   9 148.683 13.2715   3
   4   1   9 134.351 14.9810   5
   4   1   9 113.072 10.8671  13
   4   1   9 119.815 16.9477   6
   4   1   9 117.873 11.7169  15
   5   1   9 7.59346 3.60462  15
   5   1   9 7.25794 2.86889  13
   5   1   9 15.3984 11.1238   6
   5   1   9 11.5288 4.24832   2
   5   1   9 9.34757 2.94854  16
   5   1   9 5.58840 1.23694   9
   5   1   9 4.78684 1.82906  10
   5   1   9 4.73640 3.39693  14
   5   1   9 3.28020 2.84772   3
   6   1   9 105.409 7.67777  10
   6   1   9 106.692 10.3864  14
   6   1   9 118.124 10.9593  13
   6   1   9 100.457 11.2621  16
   6   1   9 110.965 22.6940   6
   6   1   9 93.1490 11.2608  15
   7   1   9 88.5828 11.6678  15
   7   1   9 92.7453 9.82741  13
   7   1   9 83.1637 10.5733  16
   7   1   9 82.1274 9.06951  14
   8   1   9 102.547 11.9835  15
   8   1   9 93.6257 10.4290  16
   8   1   9 98.9553 9.44100  14
   9   1   9 18.8163 3.88567  15
   7  -2  -9 0.85272 2.68925  18
   6  -2  -9 35.4174 6.90444  18
   6  -2  -9 31.4146 3.30385  10
   6  -2  -9 24.5460 4.34300  17
   5  -2  -9 9.23593 2.38599   9
   5  -2  -9 3.19080 4.20980  18
   5  -2  -9 12.1226 2.79304  10
   5  -2  -9 2.77392 3.65570  11
   4  -2  -9 26.2504 5.42566  11
   4  -2  -9 18.0517 4.22339  18
   4  -2  -9 31.5364 4.53551   9
   4  -2  -9 24.2703 3.86151  10
   4  -2  -9 4.07265 11.0669   7
   4  -2  -9 17.3050 10.0445   2
   3  -2  -9 79.3365 6.87734  10
   3  -2  -9 82.6015 13.3500   3
   3  -2  -9 69.1119 14.3008   4
   3  -2  -9 92.1414 7.62833   9
   3  -2  -9 82.2620 6.41680   8
   3  -2  -9 56.5459 12.0857   7
   3  -2  -9 85.5038 8.48300  18
   3  -2  -9 74.3151 14.0713   2
   2  -2  -9 22.0322 3.19106   8
   2  -2  -9 8.40120 6.67343   7
   2  -2  -9 20.5003 6.87904   2
   2  -2  -9 19.5994 7.69922   3
   2  -2  -9 25.2596 3.92012   9
   1  -2  -9 29.6074 7.11248   3
   1  -2  -9 23.9405 6.29328   7
   1  -2  -9 24.0246 8.34159   2
   0  -2  -9 -1.5280 3.95542   3
   0   2   9 1.31127 3.72891   3
   0   2   9 0.84355 5.85055   2
   1   2   9 15.4537 4.36329   5
   1   2   9 16.7164 6.01333   1
   1   2   9 19.4413 5.71389   3
   1   2   9 14.0829 6.08272   2
   2   2   9 191.718 17.5273   3
   2   2   9 168.195 16.8566   5
   2   2   9 170.780 17.3080   2
   3   2   9 18.2882 6.90153   6
   3   2   9 11.6259 4.42712   3
   3   2   9 9.46149 5.09886   2
   3   2   9 10.4528 5.60375   5
   4   2   9 56.0541 8.65817   2
   4   2   9 40.2499 10.6936   6
   4   2   9 60.3067 6.45762  12
   4   2   9 43.3785 7.78447  15
   4   2   9 44.8797 4.58729   9
   4   2   9 51.0222 7.45040   3
   4   2   9 52.8955 10.3562   5
   4   2   9 48.1066 4.64725  10
   4   2   9 41.9908 6.04648  13
   4   2   9 50.9903 6.33294  14
   5   2   9 433.809 37.0004   5
   5   2   9 406.978 26.4241  10
   5   2   9 394.491 26.3695   9
   5   2   9 437.715 29.4392   2
   5   2   9 401.557 31.8918  14
   5   2   9 408.779 33.9652  15
   5   2   9 376.489 31.2837   3
   5   2   9 415.179 32.3233  13
   5   2   9 463.560 32.2404  12
   5   2   9 405.490 40.6009   6
   6   2   9 3.48920 4.84056  15
   6   2   9 -31.706 11.8865   6
   6   2   9 5.37399 1.62618  10
   6   2   9 5.76702 3.81162  14
   6   2   9 10.8502 4.18016  13
   7   2   9 2.79944 3.85834  14
   7   2   9 4.63634 3.03043  13
   7   2   9 0.92598 4.62370  15
   8   2   9 152.411 13.6607  14
   8   2   9 157.719 13.8185  13
   8   2   9 158.225 15.8250  15
   9   2   9 50.6450 5.44978  14
   9   2   9 35.4798 5.98403  15
   7  -3  -9 1.05701 2.27658  18
   6  -3  -9 37.1663 3.86976  10
   6  -3  -9 32.5440 5.80459  18
   5  -3  -9 -1.3321 4.15993  18
   5  -3  -9 -1.5871 2.10763  10
   5  -3  -9 1.01652 1.88695   9
   4  -3  -9 13.2989 13.4781   7
   4  -3  -9 10.6802 3.12840   9
   4  -3  -9 6.46301 3.40410  18
   4  -3  -9 11.5204 2.59866  10
   3  -3  -9 7.95558 3.32208  18
   3  -3  -9 10.4876 10.2891   7
   3  -3  -9 10.0107 2.67849   9
   3  -3  -9 7.15024 2.16378   8
   3  -3  -9 7.95210 7.54841   3
   3  -3  -9 9.20565 2.94968  10
   3  -3  -9 10.7814 10.9235   2
   2  -3  -9 24.6417 4.20146   8
   2  -3  -9 28.7349 4.31207   9
   2  -3  -9 21.4804 9.95745   2
   2  -3  -9 26.2093 8.93918   3
   2  -3  -9 30.9876 7.75487   7
   1  -3  -9 281.274 26.4165   2
   1  -3  -9 270.594 26.5823   3
   1   3   9 65.3380 10.1487   3
   1   3   9 81.6362 11.4973   2
   1   3   9 64.6985 9.17254   5
   2   3   9 17.5495 6.73689   2
   2   3   9 24.7195 5.86514   5
   2   3   9 28.1090 6.53977   3
   3   3   9 19.2757 2.62653   8
   3   3   9 22.3723 6.42996   2
   3   3   9 18.6976 5.45816   3
   3   3   9 11.2988 6.49755   5
   3   3   9 23.6221 8.42082   6
   4   3   9 0.80803 1.84031  12
   4   3   9 -0.0079 4.73941   2
   4   3   9 5.18299 7.86890   6
   4   3   9 1.61211 1.60214   9
   4   3   9 -2.7307 2.63298  14
   4   3   9 1.44424 3.31710   3
   4   3   9 2.00826 5.86436   5
   4   3   9 -3.2073 3.57978  15
   4   3   9 -3.5540 1.34053  10
   4   3   9 0.78859 2.75965  13
   5   3   9 67.0710 8.45423  15
   5   3   9 65.6098 4.76811   9
   5   3   9 69.4431 5.51233  10
   5   3   9 70.3386 7.15024  12
   5   3   9 74.3111 13.5905   5
   5   3   9 66.8458 7.38813   2
   5   3   9 47.3354 6.76278   3
   5   3   9 80.8173 7.51255  13
   5   3   9 59.3927 13.6060   6
   5   3   9 68.6381 7.44042  14
   6   3   9 123.588 17.8540   5
   6   3   9 130.013 11.4036  12
   6   3   9 115.027 12.4246  15
   6   3   9 133.927 12.5020  14
   6   3   9 93.1347 21.0186   6
   6   3   9 110.395 11.3493  13
   6   3   9 125.054 8.54007  10
   7   3   9 180.865 16.8153  15
   7   3   9 171.392 16.3004  14
   7   3   9 183.446 15.8306  13
   8   3   9 36.9083 5.90775  14
   8   3   9 36.7566 5.67734  13
   8   3   9 43.5704 6.91845  15
   9   3   9 2.10506 2.61575  14
   9   3   9 1.52854 2.64215  15
   6  -4  -9 20.9018 2.87307  10
   6  -4  -9 21.0092 4.30229  18
   5  -4  -9 14.0598 5.12075  18
   5  -4  -9 10.7030 2.39881  10
   5  -4  -9 14.1809 2.33576   9
   4  -4  -9 0.43435 3.15256  18
   4  -4  -9 3.13123 2.11013   9
   4  -4  -9 -4.8002 2.36082  10
   3  -4  -9 -4.8173 11.2135   2
   3  -4  -9 1.58634 1.98396   8
   3  -4  -9 -0.9441 3.05400   9
   3  -4  -9 1.79813 2.90951  18
   3  -4  -9 0.49457 2.69916  10
   3  -4  -9 1.70944 11.4040   7
   2  -4  -9 -3.6547 7.82554   7
   2  -4  -9 1.61327 2.23463   8
   2  -4  -9 1.46647 10.1901   2
   2  -4  -9 -7.0611 6.93638   3
   2  -4  -9 1.39313 3.15030   9
   1  -4  -9 105.009 16.1674   3
   1  -4  -9 108.859 16.7840   2
   1  -4  -9 110.274 8.23582   8
   1   4   9 125.862 15.0723   2
   1   4   9 115.467 12.8589   5
   1   4   9 108.286 14.0394   3
   2   4   9 56.7560 9.34426   5
   2   4   9 32.3008 8.19803   2
   2   4   9 54.1090 9.14881   3
   3   4   9 70.7820 10.0268   2
   3   4   9 54.6941 5.53546   9
   3   4   9 70.6484 13.2144   6
   3   4   9 53.8010 9.61939   5
   3   4   9 53.0534 4.68342   8
   3   4   9 66.6887 9.74453   3
   3   4   9 54.8884 5.56468  10
   3   4   9 65.0274 7.05691  14
   4   4   9 4.64716 4.79577   2
   4   4   9 3.70475 4.09672   3
   4   4   9 4.40333 3.14483  13
   4   4   9 7.34978 8.23572   6
   4   4   9 2.12375 7.23113   5
   4   4   9 2.75339 1.71144   9
   4   4   9 0.98602 3.70322  15
   4   4   9 5.77944 2.08453  10
   4   4   9 6.87384 2.24714  12
   4   4   9 5.73682 3.34212  14
   5   4   9 11.0639 6.48925   5
   5   4   9 0.23068 2.91594   3
   5   4   9 2.07406 1.68362  10
   5   4   9 4.36664 2.63138  14
   5   4   9 2.33950 4.27623   2
   5   4   9 1.30918 3.12206  13
   5   4   9 1.26154 2.15242  12
   5   4   9 1.02760 1.26116   9
   5   4   9 4.39541 2.94757  15
   6   4   9 2.72113 3.94296  15
   6   4   9 13.5014 10.8954   5
   6   4   9 2.69634 1.25792  10
   6   4   9 2.48431 3.81222  14
   6   4   9 0.15121 2.36231  12
   6   4   9 6.81343 2.94644  13
   7   4   9 142.968 13.3390  13
   7   4   9 140.442 13.7742  15
   7   4   9 144.547 13.7511  14
   7   4   9 147.798 12.9715  12
   8   4   9 21.3427 4.61906  14
   8   4   9 21.3713 4.34207  13
   8   4   9 26.3926 5.61032  15
   9   4   9 16.3420 3.58843  14
   9   4   9 15.2409 4.18966  13
   6  -5  -9 19.8686 4.06417  18
   6  -5  -9 33.5452 2.52785  10
   5  -5  -9 83.4247 8.69246  18
   5  -5  -9 70.4659 6.15699  10
   4  -5  -9 125.384 10.0680   9
   4  -5  -9 120.428 9.69934  10
   4  -5  -9 135.202 12.7040  18
   3  -5  -9 79.0837 8.85255  18
   3  -5  -9 63.7327 7.27347  10
   3  -5  -9 70.4425 6.13699   8
   3  -5  -9 74.0119 7.69393   9
   2  -5  -9 59.5374 5.23527   8
   2  -5  -9 27.3757 11.0149   2
   2  -5  -9 59.3380 6.11589   9
   2  -5  -9 31.1743 11.9103   3
   1  -5  -9 64.0951 6.44807   8
   1   5   9 128.049 15.2743   2
   1   5   9 125.439 15.2186   3
   1   5   9 132.594 14.5174   5
   1   5   9 116.335 9.08582   8
   2   5   9 59.0011 10.5528   2
   2   5   9 44.3044 5.55526   9
   2   5   9 35.3706 8.18415   3
   2   5   9 42.2659 4.15285   8
   2   5   9 60.7834 10.8543   5
   3   5   9 79.6262 6.80208  10
   3   5   9 53.2845 12.4936   6
   3   5   9 82.9905 5.94040   8
   3   5   9 58.3195 7.80399  13
   3   5   9 83.7650 6.95962   9
   3   5   9 80.5518 13.4626   5
   3   5   9 91.6568 12.3199   3
   3   5   9 91.3880 12.0211   2
   4   5   9 14.5213 8.73386   5
   4   5   9 6.04975 2.36057  12
   4   5   9 2.34662 3.39948  14
   4   5   9 4.50015 2.09908  10
   4   5   9 4.36565 4.49486   3
   4   5   9 5.10624 2.14077   9
   4   5   9 10.0667 3.56062  13
   4   5   9 6.66461 5.56169   2
   5   5   9 27.4528 9.32511   5
   5   5   9 17.0871 4.90855   3
   5   5   9 27.1967 5.38019  12
   5   5   9 26.5233 3.05396   9
   5   5   9 23.0520 4.82138  14
   5   5   9 30.5757 6.87519   2
   5   5   9 19.4400 4.13065  15
   5   5   9 24.0165 4.80738  13
   5   5   9 25.5091 3.48857  10
   6   5   9 3.57219 3.36168  12
   6   5   9 2.17183 4.02281  14
   6   5   9 -4.0042 3.37246  15
   6   5   9 3.00323 7.80639   5
   6   5   9 4.53174 3.70954  13
   6   5   9 0.92704 1.31449  10
   7   5   9 23.0472 5.37865  13
   7   5   9 23.7673 4.71575  12
   7   5   9 13.4418 4.49192  14
   8   5   9 0.06505 2.74498  13
   8   5   9 -1.3183 2.01418  12
   8   5   9 4.14138 3.13549  14
   9   5   9 22.9061 4.30281  13
   9   5   9 18.6145 3.74820  14
   5  -6  -9 51.7245 4.77985  10
   5  -6  -9 36.2049 5.74841  18
   4  -6  -9 36.7988 6.54934  18
   4  -6  -9 44.0117 5.15986   9
   4  -6  -9 39.6736 4.69915  10
   3  -6  -9 5.95311 1.89483   8
   3  -6  -9 -0.0388 3.26042  18
   3  -6  -9 4.24784 3.25138  10
   3  -6  -9 3.99511 3.33037   9
   2  -6  -9 -1.7036 2.53182   8
   2  -6  -9 -9.1813 3.03706   9
   1  -6  -9 8.90691 3.23287   8
   1   6   9 45.4175 5.24498   8
   2   6   9 54.7606 11.3697   2
   2   6   9 51.8021 10.8096   5
   2   6   9 60.5569 10.5590   3
   2   6   9 51.9407 6.26747   9
   2   6   9 62.2051 5.06600   8
   3   6   9 6.58874 6.06023   3
   3   6   9 7.92196 1.94946   8
   3   6   9 4.47656 2.94219  13
   3   6   9 8.73836 2.75343  10
   3   6   9 8.34222 2.21654   9
   3   6   9 9.78515 5.37101   2
   3   6   9 15.2404 8.29995   5
   4   6   9 13.0980 4.41700  14
   4   6   9 9.42897 2.55640  10
   4   6   9 11.2440 3.19521  13
   4   6   9 7.49670 5.41186   3
   4   6   9 9.05109 8.85434   5
   4   6   9 8.76121 3.06544  12
   4   6   9 10.5327 2.15317   9
   4   6   9 18.1847 7.15058   2
   5   6   9 66.7652 8.44811  13
   5   6   9 72.2478 11.2275   2
   5   6   9 75.5897 5.85855   9
   5   6   9 50.8213 9.82886   3
   5   6   9 77.8922 9.67222  14
   5   6   9 67.5713 6.18792  10
   5   6   9 73.6512 7.43434  12
   5   6   9 66.8596 13.4623   5
   6   6   9 26.3544 4.96358  13
   6   6   9 19.3979 4.61172  12
   6   6   9 9.77379 10.3204   5
   6   6   9 32.5166 6.20811  14
   7   6   9 33.8313 5.87451  13
   7   6   9 38.9146 6.81325  14
   7   6   9 35.8122 6.54696  12
   8   6   9 17.8203 4.24815  14
   8   6   9 12.2341 3.58256  13
   8   6   9 9.98655 3.06164  12
   9   6   9 24.1697 4.41971  13
   9   6   9 18.8470 3.77260  14
   4  -7  -9 19.3001 4.84265  18
   4  -7  -9 14.7205 2.52388   9
   4  -7  -9 18.9230 2.95462  10
   3  -7  -9 39.6136 5.89028   9
   3  -7  -9 26.3207 5.86019  18
   3  -7  -9 23.9372 3.76137  10
   2  -7  -9 18.6735 4.30812   9
   2  -7  -9 23.2935 3.75045   8
   1  -7  -9 15.8830 3.51960   8
   0  -7  -9 30.4507 4.68631   8
   1   7   9 69.3451 6.02537   8
   2   7   9 32.9086 11.3144   2
   2   7   9 30.1088 3.43508   8
   2   7   9 24.2674 4.24905   9
   2   7   9 8.54033 9.79114   5
   2   7   9 13.8332 8.56527   3
   3   7   9 19.9790 9.12955   2
   3   7   9 -3.1334 4.40062   3
   3   7   9 5.93715 2.79124   9
   3   7   9 7.10310 2.01223   8
   3   7   9 4.34285 3.12200  13
   3   7   9 7.17245 2.77040  10
   3   7   9 7.52209 9.22338   5
   4   7   9 3.70112 1.89903  10
   4   7   9 5.05497 2.40175   9
   4   7   9 1.51787 6.81268   2
   4   7   9 2.20353 6.74228   5
   4   7   9 2.38517 6.54405   3
   4   7   9 5.39813 3.43961  13
   4   7   9 4.29019 3.35236  14
   5   7   9 49.2744 6.18580  12
   5   7   9 47.6196 6.70735  13
   5   7   9 54.4147 8.81435  14
   5   7   9 30.1024 13.5512   5
   5   7   9 63.8160 5.24539   9
   5   7   9 61.9219 5.62791  10
   6   7   9 2.66275 3.67458  13
   6   7   9 -0.0427 1.56282  10
   6   7   9 5.60920 3.46103  12
   6   7   9 2.41281 3.39774  14
   7   7   9 5.69173 3.67428  14
   7   7   9 0.89047 3.98040  13
   7   7   9 3.79013 2.59507  12
   8   7   9 48.8181 7.66628  14
   8   7   9 36.5244 5.32964  12
   8   7   9 47.7603 6.14890  13
   9   7   9 6.41242 2.75849  13
   4  -8  -9 -0.4231 1.59904  10
   3  -8  -9 -0.2271 2.62368   9
   3  -8  -9 -1.8229 3.71566  18
   2  -8  -9 -2.7979 3.24287   9
   2  -8  -9 2.64408 2.29943   8
   1  -8  -9 56.0142 6.76639   8
   0  -8  -9 -0.5777 2.15450   8
   0   8   9 -0.1673 2.64336   8
   1   8   9 170.376 12.3608   8
   2   8   9 398.900 25.7315   8
   2   8   9 403.755 27.4753   9
   3   8   9 195.045 13.9778  10
   3   8   9 198.639 13.0741   8
   3   8   9 191.585 25.5181   5
   3   8   9 198.802 14.2475   9
   3   8   9 184.387 16.3149  13
   4   8   9 72.5773 8.71660  13
   4   8   9 89.9952 9.32325  14
   4   8   9 81.7764 7.08666   9
   4   8   9 62.6273 6.97553  10
   5   8   9 2.09065 2.63471  13
   5   8   9 2.31551 1.64269  10
   5   8   9 2.77169 3.34044  14
   5   8   9 1.59980 1.61739   9
   6   8   9 12.0877 3.65668  12
   6   8   9 2.43149 3.37315  14
   6   8   9 8.29624 2.27841  10
   6   8   9 13.8034 4.57460  13
   7   8   9 7.87181 4.10720  13
   7   8   9 2.60877 3.13664  14
   7   8   9 4.21982 3.31546  12
   8   8   9 282.741 20.4228  12
   8   8   9 229.982 20.8647  13
   3  -9  -9 1.92466 2.18657  18
   3  -9  -9 3.47546 1.42129   9
   2  -9  -9 38.9741 3.38401   8
   2  -9  -9 46.2211 5.18802   9
   2  -9  -9 42.1575 5.77817  18
   1  -9  -9 8.90308 2.92933   8
   0  -9  -9 6.46481 2.48558   8
   0   9   9 3.24750 2.55334   8
   1   9   9 18.9152 3.45220   8
   2   9   9 10.6087 3.59778   9
   2   9   9 14.9272 2.82762   8
   3   9   9 1.56557 2.73873   9
   3   9   9 2.85130 1.77829   8
   3   9   9 0.28591 2.70891  10
   3   9   9 2.67037 3.07421  13
   4   9   9 84.5075 9.06041  14
   4   9   9 53.1904 6.27013  10
   4   9   9 49.5973 7.33538  13
   4   9   9 53.9924 5.90218   9
   5   9   9 175.993 13.0067   9
   5   9   9 185.622 13.3133  10
   5   9   9 228.185 17.1301  14
   5   9   9 186.459 16.7165  13
   6   9   9 79.0889 9.82766  14
   6   9   9 83.9046 6.44316  10
   6   9   9 80.7883 8.69400  13
   7   9   9 3.94110 2.16339  12
   7   9   9 1.04355 2.52402  13
   7   9   9 0.90751 2.41117  14
   8   9   9 5.04669 2.72887  13
   1 -10  -9 75.4186 5.49368   8
  -1  10   9 65.9835 5.85647   8
   0 -10  -9 49.1605 5.75008   8
   0  10   9 39.6858 4.34605   8
  -1 -10  -9 -1.8185 2.06790   8
   1  10   9 -2.9683 1.98980   8
   2  10   9 0.42564 2.13092   9
   2  10   9 -1.0153 1.85639   8
   3  10   9 30.1770 5.00105  14
   3  10   9 27.9274 4.27194   9
   3  10   9 25.0014 2.89275   8
   4  10   9 76.6301 8.04393  14
   4  10   9 80.3122 6.78280   9
   4  10   9 62.9398 8.20993  13
   4  10   9 71.9234 7.18849  10
   5  10   9 66.0711 4.94182   9
   5  10   9 64.1219 5.78205  10
   5  10   9 68.0278 7.42632  14
   5  10   9 61.0364 7.87545  13
   6  10   9 -2.5442 2.14294  14
   6  10   9 2.01718 2.22187  13
   6  10   9 -1.9195 1.63137  10
   7  10   9 20.4641 3.80757  13
   0 -11  -9 3.10517 1.53508   8
   0  11   9 2.62379 1.87185   8
  -1 -11  -9 25.9673 3.96480   8
   1  11   9 31.5745 3.13161   8
   2  11   9 10.1826 1.61147   8
   2  11   9 14.4477 2.66787   9
   3  11   9 15.8572 3.22022   9
   3  11   9 8.91226 2.58912  14
   4  11   9 10.9808 2.97534  10
   4  11   9 6.75471 3.13359  13
   4  11   9 11.2335 1.90579   9
   4  11   9 4.54325 2.34491  14
   5  11   9 3.14599 2.23181  10
   5  11   9 5.50844 2.18558  14
   5  11   9 3.98207 2.20684  13
   6  11   9 1.72464 1.03502  10
   6  11   9 0.06549 1.97251  13
   3  12   9 40.8433 3.77073   9
   4   9 -10 8.96867 1.19899   9
   4   9 -10 7.55377 2.39015  12
   3   9 -10 9.75620 2.69232  12
   3   9 -10 8.50448 2.31291   9
   2   9 -10 19.5222 3.38438   9
   2   9 -10 19.5819 1.76583   8
   2   9 -10 15.9844 3.61668  12
   1   9 -10 11.6341 2.02972   8
   1   9 -10 9.42901 2.43037  12
  -1  -9  10 7.90129 2.86046   8
   0   9 -10 7.53993 1.98934   8
   0  -9  10 6.49391 2.21443   8
  -1   9 -10 -1.1737 1.84223   8
   1  -9  10 -0.2768 0.69930   8
   5   8 -10 0.29372 2.28743  12
   5   8 -10 2.64551 1.44189  10
   4   8 -10 0.96266 2.55740  12
   4   8 -10 11.0406 1.80433   9
   4   8 -10 8.43671 2.65012  10
   3   8 -10 -0.2133 1.62324   9
   3   8 -10 1.62424 2.21024  12
   2   8 -10 30.9987 4.64062   9
   2   8 -10 47.7073 5.74351  12
   2   8 -10 43.1165 3.97915   8
   1   8 -10 1.61914 2.02557   8
  -1  -8  10 1.46441 2.20132   8
   0   8 -10 0.70093 1.62494   8
   0  -8  10 -3.3112 2.47161   8
  -1   8 -10 2.45106 2.47558   8
   1  -8  10 -0.6555 2.70075  16
   1  -8  10 1.31372 2.08268   8
   2  -8  10 3.99916 2.75158   9
   2  -8  10 0.67973 2.52153  16
   3  -8  10 -1.4787 1.49091   9
   6   7 -10 0.68134 0.88781  10
   6   7 -10 2.24800 2.34760  12
   5   7 -10 7.37572 3.18456  12
   5   7 -10 5.84022 1.87366  10
   4   7 -10 228.195 15.9119   9
   4   7 -10 218.883 15.6309  10
   4   7 -10 244.199 19.2415  12
   3   7 -10 240.415 17.0164   9
   3   7 -10 251.548 19.9122  12
   3   7 -10 229.699 15.0690   8
   2   7 -10 -0.5152 2.72461   9
   2   7 -10 2.64074 1.96403   8
   1   7 -10 3.59421 2.35351   8
   0   7 -10 6.48979 2.09540   8
   0  -7  10 3.98854 3.23672   8
   1  -7  10 39.8478 5.66117   8
   2  -7  10 -0.8912 1.55032   8
   2  -7  10 -2.2831 2.98348   9
   2  -7  10 -0.3201 3.07493  16
   3  -7  10 29.6985 3.68188   9
   3  -7  10 20.6447 5.18875  16
   3  -7  10 21.2285 3.55263  10
   4  -7  10 29.7473 4.20355  10
   6   6 -10 0.15900 1.80945  11
   6   6 -10 -2.9328 1.32283  10
   6   6 -10 -4.1409 2.45537  12
   5   6 -10 -3.5849 2.69687  11
   5   6 -10 -0.3990 2.69377  12
   5   6 -10 2.51946 1.29562   9
   5   6 -10 0.72855 2.16035  10
   4   6 -10 10.6601 4.63028  12
   4   6 -10 9.31116 2.42070  10
   4   6 -10 11.4599 2.24760   9
   3   6 -10 22.1558 3.07928   8
   3   6 -10 21.7884 3.84174  10
   3   6 -10 28.7097 4.04263   9
   2   6 -10 143.857 10.2461   8
   2   6 -10 142.488 11.1532   9
   1   6 -10 43.6996 5.13665   8
   0   6 -10 41.7455 4.83454   8
   0  -6  10 57.4567 6.79235   8
   1  -6  10 19.8228 3.82736   8
   2  -6  10 15.5512 2.93857   8
   2  -6  10 10.1306 3.29542   9
   2  -6  10 16.7573 5.33472  16
   3  -6  10 3.95625 2.52049  10
   3  -6  10 0.77032 3.28894  16
   3  -6  10 2.70446 3.06837   9
   4  -6  10 23.6656 3.49685  10
   4  -6  10 21.5089 3.44425   9
   4  -6  10 26.6638 5.39622  16
   5  -6  10 3.60948 2.83068  16
   5  -6  10 3.40730 1.46584  10
   7   5 -10 35.1957 4.32399  11
   6   5 -10 12.0154 3.03945  11
   6   5 -10 13.2871 2.25149  10
   5   5 -10 1.88808 1.38370   9
   5   5 -10 0.53045 3.24580  11
   5   5 -10 0.16879 1.43070  10
   5   5 -10 -6.4984 4.01140  12
   4   5 -10 3.71747 4.13446  12
   4   5 -10 3.33374 2.50142  10
   4   5 -10 2.33154 2.20890  11
   4   5 -10 1.09549 2.16529   9
   3   5 -10 17.2031 2.62710   8
   3   5 -10 8.78192 2.45513  10
   3   5 -10 9.90442 3.09506   9
   3   5 -10 6.29732 3.06447  11
   2   5 -10 2.27189 1.49756   8
   1   5 -10 138.117 10.0005   8
   0  -5  10 221.399 15.6007   8
   1  -5  10 52.2633 5.63844   8
   2  -5  10 6.18317 3.79123   9
   2  -5  10 1.18827 2.57490   8
   3  -5  10 62.3721 5.17336   8
   3  -5  10 58.2387 6.33913  10
   3  -5  10 74.0078 8.81111  16
   3  -5  10 61.0106 6.67492   9
   4  -5  10 72.5863 6.25038   9
   4  -5  10 63.7050 7.24509  10
   4  -5  10 75.0304 9.01295  16
   5  -5  10 25.1777 3.78242  10
   5  -5  10 32.5775 6.01828  16
   6  -5  10 2.43255 3.72172  16
   6  -5  10 1.34776 0.99180  10
   7   4 -10 2.54342 2.35842  11
   6   4 -10 2.99142 1.60397  10
   6   4 -10 1.82033 2.60240  11
   5   4 -10 53.9743 6.26313  11
   5   4 -10 63.1272 5.54369  10
   5   4 -10 37.6835 4.15465   9
   5   4 -10 65.0854 8.39918  12
   4   4 -10 18.4211 4.16142  11
   4   4 -10 13.7386 3.95188  12
   4   4 -10 15.6253 2.95734  10
   3   4 -10 133.185 9.06592   8
   3   4 -10 126.596 19.6623   2
   3   4 -10 143.231 10.3711   9
   3   4 -10 133.499 11.5310  11
   3   4 -10 126.830 10.3566  10
   3   4 -10 96.5571 17.2087   4
   2   4 -10 3.48732 2.06442   8
   2   4 -10 10.7113 8.28508   4
   2   4 -10 0.99392 2.18921   9
   2   4 -10 15.2301 11.4790   2
   2   4 -10 -4.8231 8.09834   3
   2   4 -10 2.11455 2.07893  11
   1   4 -10 23.1859 8.20004   4
   1   4 -10 35.5382 4.60658   8
   1  -4  10 71.5028 7.31217   8
   2  -4  10 6.96967 12.2390   2
   2  -4  10 8.07437 9.31082   3
   2  -4  10 11.5006 13.7550   6
   2  -4  10 32.8894 4.82815   9
   3  -4  10 59.5453 7.26177  10
   3  -4  10 94.2404 11.2425  16
   3  -4  10 38.5444 18.3117   6
   3  -4  10 72.5695 6.14041   8
   3  -4  10 75.4719 7.95274   9
   4  -4  10 24.1101 5.56125  16
   4  -4  10 22.4114 4.03007   9
   4  -4  10 33.2753 5.27000  10
   5  -4  10 67.0869 9.72741  16
   5  -4  10 52.6845 5.76352  10
   5  -4  10 46.1407 3.78838   9
   6  -4  10 45.7491 6.95451  16
   6  -4  10 45.6528 4.19785  10
   7   3 -10 14.5191 3.37563  11
   7   3 -10 9.34803 2.95394  18
   6   3 -10 0.30479 1.17768  10
   6   3 -10 1.99776 2.12482  18
   6   3 -10 2.39328 2.78645  11
   5   3 -10 4.91540 3.50711  11
   5   3 -10 2.29329 1.77490   9
   5   3 -10 1.01447 1.54568  10
   4   3 -10 50.1399 5.72789   9
   4   3 -10 55.1930 5.79433  10
   4   3 -10 32.9556 12.2940   4
   4   3 -10 51.3069 7.87877  12
   4   3 -10 61.5244 7.29920  11
   3   3 -10 150.587 11.4415   9
   3   3 -10 146.788 12.0876  11
   3   3 -10 150.173 9.99969   8
   3   3 -10 132.470 10.8973  10
   3   3 -10 164.867 20.5429   2
   3   3 -10 146.327 19.0450   4
   3   3 -10 116.425 18.2779   3
   2   3 -10 12.6493 3.38258  11
   2   3 -10 6.67660 1.89167   8
   2   3 -10 6.31458 9.33409   2
   2   3 -10 9.34734 7.71949   3
   2   3 -10 4.31844 3.11985   9
   2   3 -10 13.3040 7.58553   4
   1   3 -10 7.27671 5.98223   4
   1   3 -10 7.82057 2.45362   8
   0   3 -10 143.805 15.3273   4
   0  -3  10 161.797 17.4007   6
   1  -3  10 -1.9307 2.64550   8
   1  -3  10 -5.3020 8.31505   6
   2  -3  10 13.0592 11.5019   6
   2  -3  10 8.23817 9.85441   2
   2  -3  10 3.87240 2.98227   9
   2  -3  10 6.12103 6.75089   3
   2  -3  10 10.1150 2.86689   8
   3  -3  10 45.6633 5.56366   9
   3  -3  10 48.9213 6.78263  15
   3  -3  10 54.9808 12.0640   2
   3  -3  10 52.1014 13.6697   6
   3  -3  10 49.5896 6.02249  10
   3  -3  10 49.9945 4.87602   8
   3  -3  10 31.2899 10.0636   3
   4  -3  10 2.92265 5.54735  16
   4  -3  10 14.1663 2.84082  10
   4  -3  10 12.3762 3.45873   9
   4  -3  10 9.08274 4.67467  15
   4  -3  10 9.88600 15.7958   6
   5  -3  10 12.1313 4.95616  16
   5  -3  10 24.1188 3.67888  10
   5  -3  10 5.44976 4.66792  15
   5  -3  10 16.2980 2.34420   9
   6  -3  10 56.4529 8.07621  16
   6  -3  10 34.6615 5.89509  15
   6  -3  10 41.2789 4.51360  10
   7  -3  10 26.2910 4.74282  16
   7  -3  10 21.2770 3.99740  15
   7   2 -10 210.435 15.6911  11
   7   2 -10 185.275 15.8324  18
   6   2 -10 10.0847 2.18240  10
   6   2 -10 6.37108 3.57316  18
   6   2 -10 7.62263 3.49428  11
   5   2 -10 3.80420 3.24976  18
   5   2 -10 2.26292 2.81461  11
   5   2 -10 2.34453 2.33484  10
   5   2 -10 4.62352 1.78018   9
   4   2 -10 52.6076 5.52577   9
   4   2 -10 40.4727 6.84554  11
   4   2 -10 26.3843 12.1614   4
   4   2 -10 43.0800 4.66930  10
   3   2 -10 5.51871 7.10664   3
   3   2 -10 7.59077 9.14228   2
   3   2 -10 6.15568 2.61857  11
   3   2 -10 4.84714 1.91982   8
   3   2 -10 8.09627 7.34660   4
   3   2 -10 6.97265 2.20972  10
   3   2 -10 9.99831 2.42341   9
   2   2 -10 39.0171 8.42339   4
   2   2 -10 32.0640 4.20241   8
   2   2 -10 23.8338 8.87758   3
   2   2 -10 31.3760 5.24452   9
   2   2 -10 31.7582 11.2050   2
   1   2 -10 367.161 33.8398   3
   1   2 -10 401.863 33.6915   2
   1   2 -10 443.343 31.3665   4
   1   2 -10 343.171 23.8812   8
   0   2 -10 553.872 42.6512   4
   0  -2  10 587.695 46.5576   6
  -1   2 -10 3.70737 3.43163   4
   1  -2  10 8.81834 7.68809   2
   1  -2  10 6.32994 7.17372   6
   1  -2  10 1.60805 2.27295   8
   1  -2  10 0.24486 5.51470   3
   2  -2  10 5.62609 5.77467   3
   2  -2  10 26.5256 9.85265   2
   2  -2  10 11.8538 3.34661   9
   2  -2  10 14.7686 9.87598   6
   2  -2  10 14.0712 3.45782  15
   2  -2  10 16.7778 3.04019   8
   3  -2  10 33.0420 3.95115   8
   3  -2  10 31.3856 5.77841  15
   3  -2  10 30.4847 4.90016  10
   3  -2  10 35.0892 7.73944   3
   3  -2  10 29.9677 10.1457   2
   3  -2  10 32.0577 10.8121   6
   4  -2  10 0.69373 3.14125  15
   4  -2  10 0.23627 8.75886   6
   4  -2  10 -0.1638 1.71164  10
   4  -2  10 -2.0566 5.03926  16
   4  -2  10 1.75586 8.64130   2
   4  -2  10 -0.2599 2.56919   9
   5  -2  10 2.70718 4.03360  16
   5  -2  10 -0.7953 4.33606  15
   5  -2  10 1.63945 1.98705   9
   5  -2  10 -1.4156 2.72165  14
   5  -2  10 -0.3310 2.16373  10
   6  -2  10 225.669 20.1142  15
   6  -2  10 215.040 20.6373  16
   6  -2  10 233.818 15.7306  10
   6  -2  10 251.122 18.9378  14
   7  -2  10 11.9354 4.72017  15
   7  -2  10 16.7137 4.83983  16
   7   1 -10 -0.6172 2.46034  11
   7   1 -10 -0.0922 3.14876  18
   6   1 -10 -0.0950 2.36281  18
   6   1 -10 0.87720 4.06706  11
   6   1 -10 2.11643 1.30696  10
   5   1 -10 7.18300 2.97671  18
   5   1 -10 10.9540 2.96625  10
   5   1 -10 13.5467 3.98135  11
   5   1 -10 11.4281 2.21932   9
   4   1 -10 27.4241 10.1369   2
   4   1 -10 26.1158 4.80626  11
   4   1 -10 26.7659 3.88287   9
   4   1 -10 6.15302 10.2032   4
   4   1 -10 25.5329 4.32392  10
   4   1 -10 25.6044 5.02521  18
   3   1 -10 -3.9724 4.89813   4
   3   1 -10 2.12870 6.51856   3
   3   1 -10 -1.5324 1.41923   8
   3   1 -10 0.87632 8.36286   2
   3   1 -10 -0.8959 1.59601  10
   3   1 -10 1.69860 2.47747   9
   2   1 -10 14.0030 2.55572   8
   2   1 -10 12.1781 8.44573   2
   2   1 -10 17.7180 7.45687   3
   2   1 -10 9.53845 2.63128   9
   2   1 -10 6.48541 5.55114   4
   1   1 -10 4.77989 7.09524   2
   1   1 -10 0.07551 1.57267   8
   1   1 -10 10.0743 6.66820   3
   1  -1  10 10.7887 5.76586   6
   1  -1  10 8.81638 5.36784   3
   1  -1  10 18.6559 7.98790   2
   2  -1  10 6.14225 4.99362   3
   2  -1  10 -3.2576 6.54821   2
   2  -1  10 5.04617 2.20092   8
   2  -1  10 7.70392 7.63942   6
   2  -1  10 6.03434 2.85484   9
   3  -1  10 -6.7218 8.45970   6
   3  -1  10 16.6091 3.12332  10
   3  -1  10 20.4240 3.15888   8
   3  -1  10 3.38858 7.10216   2
   3  -1  10 17.2153 3.87790  15
   3  -1  10 16.7968 3.21640   9
   3  -1  10 11.5022 6.01619   3
   4  -1  10 -3.8699 6.55943   2
   4  -1  10 2.74457 4.10441  15
   4  -1  10 5.36404 1.85159  10
   4  -1  10 4.69803 2.44109   9
   4  -1  10 -4.9665 4.31049   3
   4  -1  10 1.84058 3.34223  16
   4  -1  10 -1.0132 10.7593   6
   4  -1  10 3.45892 2.20804  14
   5  -1  10 111.914 10.3300  14
   5  -1  10 110.841 8.44636  10
   5  -1  10 114.144 8.02265   9
   5  -1  10 87.8228 18.8384   6
   5  -1  10 66.9380 10.8074  16
   5  -1  10 104.565 11.1728  15
   6  -1  10 13.3879 6.24723  16
   6  -1  10 17.1760 5.65991  15
   6  -1  10 21.2815 3.04171  10
   6  -1  10 21.2278 3.95600  14
   7  -1  10 13.6660 5.83950  16
   7  -1  10 20.6841 4.73984  15
   7  -1  10 22.9213 3.81767  14
   8  -1  10 42.1068 6.60374  16
   8  -1  10 16.2533 3.60265  15
   7   0 -10 4.69555 2.61397  18
   6   0 -10 23.9380 5.00423  18
   6   0 -10 36.5782 3.76875  10
   6   0 -10 24.1872 5.72810  11
   5   0 -10 48.3451 5.70084  10
   5   0 -10 46.0542 8.03021  11
   5   0 -10 63.0031 5.31708   9
   5   0 -10 50.5488 6.63556  18
   4   0 -10 26.4690 13.2715   4
   4   0 -10 31.2933 4.70970  10
   4   0 -10 33.6228 5.76048  11
   4   0 -10 31.9611 9.70440   7
   4   0 -10 24.8658 5.02835  18
   4   0 -10 34.5878 4.86731   9
   4   0 -10 36.2633 11.1071   2
   3   0 -10 5.36219 8.28523   4
   3   0 -10 1.42263 1.80756  10
   3   0 -10 0.71268 1.54730   8
   3   0 -10 1.96813 2.05208  18
   3   0 -10 -7.7387 8.01112   2
   3   0 -10 1.54670 6.85760   3
   3   0 -10 4.23909 6.36027   7
   3   0 -10 2.98271 2.53825   9
   2   0 -10 168.521 20.1928   3
   2   0 -10 186.108 19.2906   4
   2   0 -10 213.862 21.2296   2
   2   0 -10 170.115 13.2498   9
   2   0 -10 179.395 12.0743   8
   1   0 -10 1.47110 6.22563   3
   1   0 -10 4.87013 7.64583   2
   1   0  10 7.88407 4.97770   3
   1   0  10 9.33956 6.34242   2
   2   0  10 -3.5818 3.87557   3
   2   0  10 1.28483 4.76706   6
   2   0  10 1.69405 4.12731   2
   2   0  10 1.45937 1.37101   8
   3   0  10 54.1525 9.30534   3
   3   0  10 50.3941 5.72524  13
   3   0  10 67.9284 12.8043   6
   3   0  10 59.6507 4.85571   8
   3   0  10 54.4984 10.3858   2
   3   0  10 55.0200 5.74430   9
   3   0  10 50.3104 5.47162  10
   3   0  10 56.5115 6.97161  15
   4   0  10 100.214 7.87194  10
   4   0  10 99.1362 10.2322  15
   4   0  10 73.4956 8.97004  14
   4   0  10 105.663 9.13776  13
   4   0  10 122.749 17.9941   6
   4   0  10 95.7164 12.4194   3
   4   0  10 96.1688 7.81467   9
   4   0  10 88.0320 10.9468  16
   4   0  10 109.955 14.4246   2
   5   0  10 34.0028 8.95376   2
   5   0  10 49.4308 4.56467  10
   5   0  10 42.2040 6.58335  14
   5   0  10 25.2201 6.77945   3
   5   0  10 46.9739 4.36062   9
   5   0  10 24.6814 15.1438   6
   5   0  10 41.2049 7.60346  15
   5   0  10 62.9799 6.23794  13
   5   0  10 49.4943 8.49725  16
   6   0  10 -1.8952 3.09431  14
   6   0  10 -1.3308 3.20929  15
   6   0  10 -0.6008 1.57389  10
   6   0  10 0.18540 3.10998  16
   7   0  10 -2.8453 2.04776  14
   7   0  10 0.99006 3.19923  15
   7   0  10 3.78455 3.41131  16
   8   0  10 48.3468 6.58349  15
   8   0  10 43.6567 5.36398  14
   8   0  10 40.2107 7.27175  16
   6  -1 -10 3.98406 1.94599  10
   6  -1 -10 1.81220 2.89993  18
   6  -1 -10 0.89458 2.89867  11
   5  -1 -10 -0.7307 2.29741  10
   5  -1 -10 0.84092 2.99893  11
   5  -1 -10 2.11362 2.09778   9
   5  -1 -10 6.49654 3.94012  18
   4  -1 -10 2.28969 1.91690  10
   4  -1 -10 1.54721 3.46337  18
   4  -1 -10 -7.9090 7.51774   7
   4  -1 -10 -1.8439 2.32779   9
   4  -1 -10 -5.2211 2.25372  11
   4  -1 -10 -7.1813 7.83379   4
   3  -1 -10 49.1016 5.86227   9
   3  -1 -10 45.1120 12.2105   2
   3  -1 -10 49.2886 11.3912   3
   3  -1 -10 46.2295 5.89947  18
   3  -1 -10 57.7024 11.9670   7
   3  -1 -10 58.5818 11.5897   4
   3  -1 -10 49.5751 4.60421   8
   3  -1 -10 44.3011 4.91874  10
   2  -1 -10 2.81340 1.58161   8
   2  -1 -10 6.22158 6.61730   7
   2  -1 -10 3.19673 2.11332   9
   2  -1 -10 -1.4902 5.48970   2
   2  -1 -10 0.84494 6.69218   3
   2  -1 -10 1.72026 1.93309  18
   1  -1 -10 79.9204 12.8513   2
   1  -1 -10 83.1378 13.6267   3
   1   1  10 14.1230 4.80060   3
   1   1  10 13.7306 6.81317   2
   2   1  10 332.201 28.4358   6
   2   1  10 281.230 26.3761   3
   2   1  10 294.427 26.2869   2
   2   1  10 292.228 25.5984   5
   3   1  10 83.2120 14.7523   6
   3   1  10 52.1791 4.76854   8
   3   1  10 61.0211 10.6747   2
   3   1  10 52.3311 5.72624  14
   3   1  10 58.2418 9.17751   3
   3   1  10 78.5902 11.6187   5
   3   1  10 52.0170 5.58184   9
   3   1  10 56.5862 5.04852  10
   4   1  10 6.98080 2.20996  10
   4   1  10 3.50159 2.98689  13
   4   1  10 2.28655 2.94017  14
   4   1  10 6.60511 5.89377   2
   4   1  10 18.6332 10.5000   6
   4   1  10 -0.6571 3.70443   3
   4   1  10 2.71133 3.90986  15
   4   1  10 4.63318 3.43497  16
   4   1  10 4.11253 2.04500   9
   5   1  10 -5.1273 12.0486   6
   5   1  10 1.17838 1.77569  10
   5   1  10 2.61883 3.53024   3
   5   1  10 2.67286 1.55572   9
   5   1  10 -2.0241 5.13651   2
   5   1  10 5.14245 3.62530  16
   5   1  10 0.54803 2.34317  13
   5   1  10 0.97099 2.23715  14
   5   1  10 -3.4549 4.34685  15
   6   1  10 14.5034 5.68529  15
   6   1  10 17.0830 3.75899  13
   6   1  10 22.0129 4.56217  14
   6   1  10 7.02931 17.7788   6
   6   1  10 9.47791 4.45196  16
   6   1  10 11.9571 2.23573  10
   7   1  10 126.326 12.5708  15
   7   1  10 115.459 10.8292  14
   7   1  10 100.116 11.8349  16
   8   1  10 6.03808 3.81022  15
   8   1  10 2.64873 2.39148  14
   7  -2 -10 12.9440 2.78692  18
   6  -2 -10 -2.0113 1.65451  10
   6  -2 -10 0.57766 2.64298  18
   5  -2 -10 9.77431 2.01839   9
   5  -2 -10 2.54702 3.05420  18
   5  -2 -10 10.4695 4.10751  11
   5  -2 -10 13.2641 2.64121  10
   4  -2 -10 80.0503 9.65183  18
   4  -2 -10 47.9157 15.9933   7
   4  -2 -10 93.1572 9.81020  11
   4  -2 -10 86.7893 7.66568   9
   4  -2 -10 88.0846 7.25253  10
   3  -2 -10 -8.3316 8.21952   7
   3  -2 -10 11.4125 3.91846  18
   3  -2 -10 10.2899 3.09944  10
   3  -2 -10 10.6175 2.22926   8
   3  -2 -10 -5.5068 7.16753   3
   3  -2 -10 10.5526 8.07796   2
   3  -2 -10 8.71024 2.54315   9
   3  -2 -10 7.01403 9.76372   4
   2  -2 -10 17.4484 3.71269   9
   2  -2 -10 20.4105 7.14994   3
   2  -2 -10 9.16045 3.70534  18
   2  -2 -10 13.9174 2.80397   8
   2  -2 -10 14.2940 10.1172   2
   1  -2 -10 7.75103 6.03207   2
   1  -2 -10 -3.3488 6.04090   3
   1  -2 -10 0.47265 2.32244   8
   1   2  10 59.0971 11.0352   2
   1   2  10 53.3894 8.37243   3
   2   2  10 73.7642 10.3945   3
   2   2  10 69.3730 9.42854   5
   2   2  10 60.3563 11.1162   2
   3   2  10 23.2242 4.03044   9
   3   2  10 21.6169 3.85032  14
   3   2  10 25.1700 3.15057   8
   3   2  10 29.6212 6.80346   3
   3   2  10 27.5397 4.02169  10
   3   2  10 20.4022 6.65036   2
   3   2  10 25.2874 7.78319   5
   3   2  10 34.1996 9.33075   6
   4   2  10 9.32444 5.37253   3
   4   2  10 15.3543 6.36735   2
   4   2  10 21.0573 3.83594  13
   4   2  10 16.4705 7.76402   5
   4   2  10 23.6059 5.00402  15
   4   2  10 25.5213 3.04970  10
   4   2  10 13.2999 10.1499   6
   4   2  10 20.3426 3.46896   9
   4   2  10 20.6349 3.75745  14
   5   2  10 130.108 10.3799  13
   5   2  10 121.503 11.9695  15
   5   2  10 84.9961 7.44410   9
   5   2  10 116.551 19.6455   6
   5   2  10 114.755 10.3604  14
   5   2  10 117.430 12.2122   2
   5   2  10 91.6337 11.0673   3
   5   2  10 127.932 18.1289   5
   5   2  10 114.771 8.15044  10
   6   2  10 19.6281 17.2477   6
   6   2  10 22.7931 5.02128  13
   6   2  10 24.5512 4.55230  14
   6   2  10 20.9748 3.30889  10
   6   2  10 23.3004 5.42547  15
   7   2  10 129.246 11.6672  13
   7   2  10 100.799 10.8669  14
   7   2  10 112.267 12.4848  15
   8   2  10 207.822 16.7382  14
   8   2  10 193.548 18.1175  15
   9   2  10 -3.8641 2.45260  15
   9   2  10 0.30109 2.00762  14
   6  -3 -10 2.70788 1.70341  10
   6  -3 -10 3.09546 2.95311  18
   5  -3 -10 5.56796 2.01078  10
   5  -3 -10 5.00450 3.33020  18
   5  -3 -10 5.87120 1.45478   9
   4  -3 -10 300.843 25.6784  18
   4  -3 -10 320.297 21.4245  10
   4  -3 -10 308.850 23.9082  11
   4  -3 -10 324.777 21.7298   9
   3  -3 -10 474.736 32.0987   9
   3  -3 -10 494.859 30.0343   8
   3  -3 -10 445.792 42.2349   2
   3  -3 -10 486.374 37.5322  18
   3  -3 -10 455.656 31.0787  10
   2  -3 -10 2.28696 3.16999   9
   2  -3 -10 11.5554 10.7622   2
   2  -3 -10 6.16751 2.50325   8
   2  -3 -10 6.97635 7.68215   3
   1  -3 -10 -0.8212 5.06442   3
   1  -3 -10 -3.4642 8.79960   2
   1  -3 -10 2.88110 2.49401   8
   1   3  10 69.9857 12.1478   2
   1   3  10 77.8728 11.9324   3
   2   3  10 14.0390 4.93551   3
   2   3  10 13.8595 2.18861   8
   2   3  10 15.7550 6.06349   5
   2   3  10 10.5676 5.08015   2
   3   3  10 52.9554 9.63566   2
   3   3  10 46.2536 5.16084  10
   3   3  10 45.7511 4.19588   8
   3   3  10 45.9154 5.24765   9
   3   3  10 43.3098 8.48459   3
   3   3  10 66.0389 13.8060   6
   3   3  10 45.9414 5.41383  14
   3   3  10 48.6409 9.85380   5
   4   3  10 7.84706 4.65450   3
   4   3  10 6.62378 2.35303  10
   4   3  10 9.56074 3.55338  14
   4   3  10 16.8672 4.21149  15
   4   3  10 10.2423 2.33360   9
   4   3  10 10.8401 10.1856   6
   4   3  10 9.93839 2.74226  13
   4   3  10 12.3538 5.97907   2
   4   3  10 12.0044 7.42020   5
   5   3  10 202.634 13.4904  10
   5   3  10 217.395 25.8739   6
   5   3  10 174.605 16.3996  13
   5   3  10 195.873 16.9113  14
   5   3  10 201.756 17.7042   2
   5   3  10 218.496 16.8761  12
   5   3  10 167.836 17.1019   3
   5   3  10 206.437 18.8401  15
   5   3  10 181.112 21.6654   5
   5   3  10 202.021 13.2206   9
   6   3  10 32.8643 6.60597  15
   6   3  10 25.0734 4.77352  13
   6   3  10 27.5945 3.21677  10
   6   3  10 27.8793 5.57154  14
   6   3  10 16.3423 12.4436   5
   7   3  10 1.15538 3.61872  15
   7   3  10 2.19573 2.78300  14
   7   3  10 -4.3065 3.44474  13
   8   3  10 1.10909 2.48805  14
   8   3  10 2.80666 2.76719  13
   8   3  10 -0.6014 3.38700  15
   9   3  10 5.51324 3.49428  14
   9   3  10 5.02380 2.97395  15
   6  -4 -10 14.4543 3.26211  18
   6  -4 -10 14.5802 1.81945  10
   5  -4 -10 1.25754 1.78212  10
   5  -4 -10 -2.0987 3.97358  18
   4  -4 -10 8.95214 2.99933   9
   4  -4 -10 7.31050 3.06363  10
   4  -4 -10 4.63378 4.58424  18
   3  -4 -10 3.08080 2.02898   8
   3  -4 -10 9.96435 3.14979  10
   3  -4 -10 4.88882 4.35664  18
   3  -4 -10 6.75505 3.46053   9
   2  -4 -10 14.2714 2.57277   8
   2  -4 -10 17.4579 9.62786   3
   2  -4 -10 10.8276 3.79855   9
   2  -4 -10 21.7533 13.4003   2
   1  -4 -10 95.8764 7.62418   8
   1   4  10 -2.1361 6.76093   2
   1   4  10 1.47465 5.64976   3
   1   4  10 1.51322 2.19760   8
   2   4  10 7.69221 5.47215   2
   2   4  10 1.72418 5.75217   5
   2   4  10 9.14566 5.71166   3
   2   4  10 16.1055 2.63811   8
   2   4  10 8.72150 2.46049   9
   3   4  10 29.2126 4.62551  14
   3   4  10 45.5234 11.8561   6
   3   4  10 31.4555 7.84467   3
   3   4  10 30.8375 3.93949   9
   3   4  10 43.6884 9.85610   5
   3   4  10 32.1994 8.76084   2
   3   4  10 35.7661 3.65315   8
   3   4  10 40.0187 4.69201  10
   4   4  10 55.9941 6.05193  12
   4   4  10 45.5074 6.54333  13
   4   4  10 56.6029 5.29333   9
   4   4  10 51.1872 10.4850   5
   4   4  10 50.6094 9.14634   3
   4   4  10 57.1078 5.06607  10
   4   4  10 56.5051 13.7056   6
   4   4  10 56.4214 10.4549   2
   4   4  10 53.8701 8.27237  15
   4   4  10 52.1179 6.97130  14
   5   4  10 -6.1353 5.86291   5
   5   4  10 1.40438 1.50149   9
   5   4  10 -0.8264 2.93567  12
   5   4  10 1.03012 1.72167  10
   5   4  10 1.25562 3.81426   3
   5   4  10 0.37196 2.26269  13
   5   4  10 2.63235 2.89575  15
   5   4  10 -1.6197 5.38796   2
   5   4  10 2.22486 3.30798  14
   6   4  10 3.44788 2.75650  13
   6   4  10 8.86389 10.6954   5
   6   4  10 3.00755 1.49944  10
   6   4  10 0.95454 4.29836  15
   6   4  10 5.75838 3.01672  14
   6   4  10 3.29414 3.41447  12
   7   4  10 91.2526 10.4725  13
   7   4  10 122.119 11.4976  14
   7   4  10 81.7263 11.4056  15
   8   4  10 66.3300 9.22969  15
   8   4  10 78.2199 8.39506  14
   8   4  10 69.3583 8.60993  13
   5  -5 -10 98.3426 9.67708  18
   5  -5 -10 95.8409 7.33390  10
   4  -5 -10 23.5404 5.71729  18
   4  -5 -10 24.1902 4.12443  10
   4  -5 -10 21.5508 3.69795   9
   3  -5 -10 1.89565 3.03394  10
   3  -5 -10 11.3959 2.25255   8
   3  -5 -10 4.13877 3.41954  18
   3  -5 -10 3.32577 3.27021   9
   2  -5 -10 9.84408 3.78900   9
   2  -5 -10 9.62067 2.90030   8
   1  -5 -10 88.4991 7.84684   8
   1   5  10 1.68601 1.62745   8
   2   5  10 1.74923 4.52676   5
   2   5  10 1.47044 6.59122   2
   2   5  10 -2.7281 5.78252   3
   2   5  10 0.79402 2.65188   9
   2   5  10 2.40689 1.58828   8
   3   5  10 14.4276 2.36729   8
   3   5  10 13.7585 2.94787   9
   3   5  10 12.1758 3.91774  14
   3   5  10 16.4539 3.24402  10
   3   5  10 15.7285 6.85792   3
   3   5  10 10.0591 6.93971   2
   3   5  10 9.55173 9.16465   6
   3   5  10 14.2100 8.31772   5
   4   5  10 39.4429 8.81259   3
   4   5  10 57.2514 10.4538   2
   4   5  10 54.2405 5.36865  10
   4   5  10 51.2427 6.23839  12
   4   5  10 43.8470 10.3402   5
   4   5  10 45.2849 7.35388  15
   4   5  10 55.5165 5.21862   9
   4   5  10 34.6018 6.22051  13
   4   5  10 49.1892 6.32338  14
   5   5  10 18.6862 2.69448   9
   5   5  10 15.5594 3.80279  12
   5   5  10 18.2383 4.97364  14
   5   5  10 18.8531 4.01280  13
   5   5  10 9.11996 5.27232   3
   5   5  10 18.0532 7.82175   2
   5   5  10 15.4010 3.81287  15
   5   5  10 12.8334 7.62675   5
   5   5  10 15.0208 2.59270  10
   6   5  10 45.6553 5.89376  12
   6   5  10 36.5725 6.22812  15
   6   5  10 15.0070 13.6357   5
   6   5  10 42.7615 6.06805  13
   6   5  10 48.3175 4.22692  10
   6   5  10 38.4666 6.83831  14
   7   5  10 18.4818 5.48955  14
   7   5  10 17.9506 4.17723  13
   7   5  10 13.3924 4.45402  15
   7   5  10 10.9706 3.93148  12
   8   5  10 8.91341 3.76003  14
   8   5  10 11.0870 3.46179  13
   9   5  10 5.26878 2.61971  13
   9   5  10 9.94401 2.93257  14
   5  -6 -10 0.50152 1.27141  10
   5  -6 -10 0.79059 3.40799  18
   4  -6 -10 62.4182 5.72768   9
   4  -6 -10 56.5083 7.23301  18
   4  -6 -10 54.6274 5.60604  10
   3  -6 -10 1.93146 2.25866  10
   3  -6 -10 1.44107 1.75678   8
   3  -6 -10 6.94233 4.63326  18
   3  -6 -10 -0.8185 2.15325   9
   2  -6 -10 21.8395 3.53374   8
   2  -6 -10 15.5812 3.42011   9
   1  -6 -10 7.79992 3.12742   8
   1   6  10 40.1256 5.11152   8
   2   6  10 397.598 34.0768   5
   2   6  10 344.009 34.6525   3
   2   6  10 377.681 24.6332   8
   2   6  10 392.582 34.9813   2
   2   6  10 405.946 26.4746   9
   3   6  10 730.998 58.8641   5
   3   6  10 741.102 46.0181   8
   3   6  10 773.120 57.6842   2
   3   6  10 711.858 60.7280   3
   3   6  10 758.797 47.4704  10
   3   6  10 733.889 48.5420   9
   4   6  10 76.1059 14.1367   5
   4   6  10 91.5427 7.56110  10
   4   6  10 93.2891 9.88325  14
   4   6  10 92.6571 7.42389   9
   4   6  10 73.7678 13.0486   2
   4   6  10 70.8265 12.3002   3
   4   6  10 75.8179 8.37857  13
   5   6  10 -1.9720 2.65186  14
   5   6  10 4.84542 1.92870   9
   5   6  10 -0.7448 1.92572  12
   5   6  10 -1.7887 1.71819  10
   5   6  10 -5.8826 7.01235   5
   5   6  10 -3.9498 3.11459  13
   6   6  10 1.95991 4.53156  14
   6   6  10 0.29797 1.66551  10
   6   6  10 -0.4248 2.35100  13
   6   6  10 -1.6924 3.11404  12
   7   6  10 0.30783 2.71658  13
   7   6  10 -0.8297 2.15136  12
   7   6  10 3.14120 3.45133  14
   8   6  10 5.28311 3.20708  14
   8   6  10 1.29491 2.66758  13
   9   6  10 61.9814 6.68483  14
   4  -7 -10 8.68937 2.93998  18
   4  -7 -10 7.66583 1.58815   9
   4  -7 -10 9.38787 2.35648  10
   3  -7 -10 50.6572 5.24099  10
   3  -7 -10 41.7254 6.17478   9
   3  -7 -10 48.1951 6.78337  18
   2  -7 -10 5.41382 2.75202   9
   2  -7 -10 7.66424 2.08754   8
   1  -7 -10 1.23201 2.69028   8
   0  -7 -10 5.99470 2.55020   8
   0   7  10 6.76625 2.30602   8
   1   7  10 1.91933 1.68712   8
   2   7  10 38.8581 4.97812   8
   2   7  10 25.8774 10.7348   3
   2   7  10 46.8300 6.14265   9
   2   7  10 44.3710 13.7691   2
   3   7  10 6.33637 2.94029  10
   3   7  10 5.12498 1.96483   8
   3   7  10 10.1470 7.12443   5
   3   7  10 6.56388 2.85060   9
   3   7  10 16.5882 10.0596   2
   4   7  10 102.846 11.0779  13
   4   7  10 120.567 9.36925   9
   4   7  10 86.7998 18.3587   5
   4   7  10 122.025 9.17989  10
   4   7  10 134.605 12.6610  14
   5   7  10 14.8336 4.40296  14
   5   7  10 6.78261 3.21338  12
   5   7  10 14.1673 2.95598  10
   5   7  10 5.65431 3.21530  13
   5   7  10 9.49719 2.13785   9
   6   7  10 85.9605 10.8480  14
   6   7  10 75.5626 8.86770  13
   6   7  10 76.6086 6.29656  10
   6   7  10 65.7531 8.20116  12
   7   7  10 24.2762 5.33055  14
   7   7  10 16.3536 4.31532  12
   7   7  10 23.6588 5.07091  13
   8   7  10 0.46341 2.47399  13
   8   7  10 4.72426 3.26476  14
   9   7  10 2.13424 2.44519  13
   3  -8 -10 25.7664 4.51300   9
   2  -8 -10 3.53881 1.96974   8
   2  -8 -10 6.15742 2.58795   9
   1  -8 -10 35.6805 5.66351   8
   0  -8 -10 56.8494 7.13268   8
   0   8  10 69.7854 6.15053   8
   1   8  10 108.316 8.47521   8
   2   8  10 74.1921 6.56880   8
   2   8  10 67.9370 6.91332   9
   3   8  10 4.73807 2.17811  10
   3   8  10 0.10395 1.76471   8
   3   8  10 0.43689 2.68568   9
   4   8  10 12.6544 3.84360  13
   4   8  10 9.46270 2.90461   9
   4   8  10 10.3528 2.56483  10
   4   8  10 17.9658 4.88904  14
   5   8  10 8.24938 2.26281  10
   5   8  10 11.2715 3.38266  13
   5   8  10 11.1805 4.86498  14
   5   8  10 6.88536 2.29549   9
   6   8  10 186.014 12.1839  10
   6   8  10 162.751 14.5545  12
   6   8  10 174.772 15.4493  13
   6   8  10 160.270 15.6738  14
   7   8  10 8.24775 3.87120  14
   7   8  10 13.2392 4.23412  13
   7   8  10 8.08293 2.77178  12
   8   8  10 128.404 12.2551  14
   8   8  10 142.310 11.9539  13
   2  -9 -10 55.1613 7.24675  18
   2  -9 -10 53.9532 5.48050   9
   1  -9 -10 8.23657 2.76012   8
   0  -9 -10 34.2060 4.74020   8
   0   9  10 42.7784 5.41280   8
   1   9  10 8.45616 2.31891   8
   2   9  10 7.85175 3.20516   9
   2   9  10 2.90090 2.26410   8
   3   9  10 -0.3797 2.01635   9
   3   9  10 1.45692 1.89162   8
   3   9  10 -0.0014 2.68561  10
   4   9  10 7.83637 4.01277  14
   4   9  10 9.87907 3.52781  13
   4   9  10 -0.4097 2.65358  10
   4   9  10 9.18943 2.75379   9
   5   9  10 9.12019 3.13310  13
   5   9  10 7.22598 2.73834  10
   5   9  10 12.6160 2.19968   9
   5   9  10 14.0286 3.92010  14
   6   9  10 -0.3910 1.12587  10
   6   9  10 6.56738 3.99031  14
   6   9  10 -0.4479 2.30713  13
   7   9  10 34.1852 5.03068  13
   7   9  10 35.0226 6.71470  14
   8   9  10 2.39804 2.06652  13
   1 -10 -10 11.9060 3.85259   9
   1 -10 -10 23.9434 2.99119   8
  -1  10  10 26.6050 4.14917   8
   0 -10 -10 9.16821 2.24135   8
   0  10  10 10.0476 2.58529   8
  -1 -10 -10 24.5598 3.75038   8
   1  10  10 42.6978 3.97018   8
   2  10  10 2.58072 1.90664   8
   2  10  10 -5.8321 2.70564   9
   3  10  10 17.6999 1.68585   8
   3  10  10 27.8337 3.92070   9
   3  10  10 22.7573 4.44378  14
   4  10  10 3.74998 2.23124   9
   4  10  10 -0.9685 2.48597  14
   4  10  10 2.37346 1.99467  10
   5  10  10 1.35544 1.00191   9
   5  10  10 -1.0503 2.03339  13
   5  10  10 -1.8209 2.14130  10
   5  10  10 -0.2245 3.39059  14
   6  10  10 10.2031 2.97172  14
   6  10  10 12.5052 2.87758  13
   6  10  10 12.7814 2.23284  10
   7  10  10 2.08472 1.97531  13
   0 -11 -10 2.14907 1.68717   8
   0  11  10 3.27483 1.18621   8
  -1 -11 -10 21.6933 3.31093   8
   1  11  10 20.1851 2.40474   8
   2  11  10 20.2645 3.47179  14
   2  11  10 13.4336 2.56972   9
   2  11  10 15.7138 1.65131   8
   3  11  10 29.1087 5.05700  14
   3  11  10 24.7697 3.62699   9
   4  11  10 31.1094 3.35254   9
   4  11  10 39.3209 4.86119  14
   4  11  10 41.3285 4.27236  10
   5  11  10 13.2820 2.69359  14
   5  11  10 22.3375 3.53803  10
   3   9 -11 37.4424 3.73708   9
   3   9 -11 39.9062 4.61998  12
   2   9 -11 72.1524 6.87468  12
   2   9 -11 79.0260 6.09373   9
   1   9 -11 9.89018 1.46277   8
  -1  -9  11 9.66604 1.97575   8
   0   9 -11 13.2823 1.99795   8
   0  -9  11 8.54694 1.53634   8
   4   8 -11 -2.1959 2.01015  12
   4   8 -11 1.03687 1.15910   9
   4   8 -11 3.43968 1.61867  10
   3   8 -11 15.2803 3.24007  12
   3   8 -11 10.9204 2.19179   9
   2   8 -11 2.59588 2.61710   9
   2   8 -11 0.06390 2.28135  12
   2   8 -11 2.81749 1.28858   8
   1   8 -11 20.8938 4.12553  12
   1   8 -11 22.0033 3.51043   8
  -1  -8  11 18.4306 3.09965   8
   0   8 -11 98.6858 7.40436   8
   0  -8  11 87.2627 7.18108   8
  -1   8 -11 91.2751 7.40412   8
   1  -8  11 105.801 7.07250   8
   1  -8  11 111.652 9.44292  16
   1  -8  11 96.1127 9.17130   9
   2  -8  11 2.56753 2.35771   9
   2  -8  11 7.40916 2.56796  16
   5   7 -11 72.7034 6.16135  10
   5   7 -11 80.2421 8.23184  12
   4   7 -11 -2.4626 1.08445   9
   4   7 -11 -3.4541 1.49205  10
   4   7 -11 -1.8190 2.46403  12
   3   7 -11 10.4100 2.47469   9
   3   7 -11 9.22531 3.24157  12
   2   7 -11 0.14751 1.69216   8
   2   7 -11 -0.4024 1.93403   9
   1   7 -11 -1.2451 1.35919   8
   0   7 -11 -1.7339 2.22293   8
   0  -7  11 2.41473 2.05050   8
   1  -7  11 135.598 10.2713   8
   2  -7  11 1.40079 2.18417   9
   2  -7  11 -0.4559 1.21729   8
   2  -7  11 -4.1165 2.73701  16
   3  -7  11 10.5573 2.51312   9
   3  -7  11 11.0758 3.22137  16
   6   6 -11 9.01014 1.60139  10
   6   6 -11 7.04099 2.17889  11
   5   6 -11 1.20200 1.98921  11
   5   6 -11 11.6652 3.27872  12
   5   6 -11 6.46342 2.38813  10
   4   6 -11 23.4196 3.53441  10
   4   6 -11 19.7088 4.83308  12
   4   6 -11 20.0088 3.02398   9
   3   6 -11 2.80234 1.34493   8
   3   6 -11 2.92691 2.63696   9
   3   6 -11 4.03789 2.85645  12
   2   6 -11 258.978 16.4738   8
   2   6 -11 236.637 17.9657   9
   1   6 -11 5.00614 1.97751   8
   0   6 -11 15.4907 3.08281   8
   0  -6  11 8.26835 2.61723   8
   1  -6  11 2.56752 2.00845   8
   2  -6  11 77.0385 9.01310  16
   2  -6  11 78.4892 6.50453   8
   2  -6  11 69.0158 7.32955   9
   3  -6  11 1.16531 2.44745  10
   3  -6  11 2.68162 3.29729  16
   3  -6  11 5.13645 2.24928   9
   4  -6  11 34.5613 3.38675   9
   4  -6  11 26.4831 4.05856  10
   6   5 -11 63.6510 5.04218  10
   5   5 -11 15.7253 4.78221  12
   5   5 -11 18.5682 4.17147  11
   5   5 -11 20.9829 2.34954   9
   5   5 -11 17.8784 3.01278  10
   4   5 -11 29.4379 5.69847  12
   4   5 -11 34.5620 4.40823   9
   4   5 -11 30.8186 4.81006  10
   4   5 -11 26.7594 5.23536  11
   3   5 -11 28.4741 3.12509   8
   3   5 -11 31.1515 4.92212   9
   3   5 -11 22.2620 3.96279  10
   3   5 -11 15.3042 3.83874  11
   2   5 -11 65.8734 5.97437   8
   1   5 -11 34.1050 4.74337   8
   0   5 -11 91.4016 7.45457   8
   0  -5  11 94.2301 8.80993   8
   1  -5  11 74.5975 7.43817   8
   2  -5  11 3.91450 1.98059   8
   2  -5  11 3.14198 3.68412   9
   3  -5  11 16.2626 3.42289   9
   3  -5  11 19.5857 2.38733   8
   3  -5  11 18.8075 4.07596  10
   3  -5  11 16.1502 4.76876  16
   4  -5  11 12.0345 3.46781  10
   4  -5  11 10.2135 5.08200  16
   4  -5  11 24.4027 3.98582   9
   5  -5  11 12.8393 2.66822  10
   5  -5  11 6.21294 4.53914  16
   7   4 -11 5.60652 2.11842  11
   6   4 -11 76.0237 7.84244  11
   6   4 -11 72.0800 5.47208  10
   5   4 -11 9.15709 3.65485  11
   5   4 -11 9.53856 2.53218  10
   5   4 -11 6.63297 1.68485   9
   4   4 -11 64.4444 5.92414  10
   4   4 -11 59.1378 6.70957  11
   4   4 -11 63.2373 7.74363  12
   3   4 -11 21.8486 4.04641   9
   3   4 -11 26.1711 4.20566  11
   3   4 -11 27.3980 2.81595   8
   3   4 -11 21.7920 3.68470  10
   2   4 -11 -3.2233 2.57013  11
   2   4 -11 0.32782 8.80515   4
   2   4 -11 3.40646 1.71208   8
   2   4 -11 7.55732 3.23982   9
   1   4 -11 12.0812 2.45271   8
   0  -4  11 26.7780 4.56569   8
   1  -4  11 211.928 15.1498   8
   2  -4  11 1.93902 2.48232   9
   2  -4  11 -1.1482 2.47098   8
   3  -4  11 6.00767 1.89385   8
   3  -4  11 5.36052 3.15572  10
   3  -4  11 5.63454 3.89587  16
   3  -4  11 4.62350 3.64700   9
   4  -4  11 11.0714 3.18476   9
   4  -4  11 12.0818 3.38599  10
   4  -4  11 5.99811 3.91180  16
   5  -4  11 94.1931 7.91508  10
   5  -4  11 89.4461 10.2674  16
   6  -4  11 4.61430 3.22886  16
   6  -4  11 6.14374 1.51250  10
   7   3 -11 7.84330 3.26397  11
   6   3 -11 5.45331 2.67398  11
   6   3 -11 2.72952 1.68687  10
   5   3 -11 1.65245 2.49326  11
   5   3 -11 1.19013 1.25779   9
   5   3 -11 -1.3624 2.17092  10
   4   3 -11 23.7076 4.52136  11
   4   3 -11 22.0115 3.85665  10
   4   3 -11 28.8391 3.93317   9
   4   3 -11 18.2039 4.93763  12
   3   3 -11 -5.1236 6.50397   4
   3   3 -11 8.66790 2.02913   8
   3   3 -11 14.1089 3.18213  10
   3   3 -11 6.58046 3.08561   9
   3   3 -11 2.25883 3.30966  11
   2   3 -11 15.7360 3.17774   9
   2   3 -11 12.6680 2.76901   8
   2   3 -11 9.57853 8.93500   2
   2   3 -11 9.02208 7.08575   3
   2   3 -11 13.5590 3.59384  11
   2   3 -11 20.8547 8.90920   4
   1   3 -11 -2.3380 6.79032   4
   1   3 -11 -0.9381 2.22247   8
   0  -3  11 0.48909 9.11461   6
   1  -3  11 -0.1903 1.90351   8
   1  -3  11 2.16192 7.55458   6
   2  -3  11 22.2232 12.4154   2
   2  -3  11 5.34904 3.17641   9
   2  -3  11 25.0914 12.5989   6
   2  -3  11 16.4962 3.18563   8
   2  -3  11 11.8633 6.27345   3
   3  -3  11 36.7875 13.5766   6
   3  -3  11 69.9371 6.52160   9
   3  -3  11 60.5102 5.41449   8
   3  -3  11 52.5680 8.46733  15
   3  -3  11 57.3523 5.99534  10
   4  -3  11 106.224 8.39068  10
   4  -3  11 136.082 13.5699  16
   4  -3  11 72.6916 10.8078  15
   4  -3  11 102.693 8.90214   9
   5  -3  11 92.7423 10.3570  16
   5  -3  11 78.0159 7.45809  10
   5  -3  11 88.4020 6.22194   9
   5  -3  11 66.1712 9.53049  15
   6  -3  11 15.2522 3.71776  15
   6  -3  11 15.8101 4.70103  16
   6  -3  11 18.5874 3.11463  10
   7  -3  11 23.5482 4.64506  16
   7   2 -11 80.1336 7.39578  11
   6   2 -11 11.6673 2.19487  10
   6   2 -11 2.82381 3.94659  11
   6   2 -11 4.09479 3.13020  18
   5   2 -11 72.2646 6.74965  10
   5   2 -11 77.5477 8.76205  11
   4   2 -11 46.6753 5.85496  10
   4   2 -11 52.1379 6.43208  11
   4   2 -11 54.2171 5.94559   9
   3   2 -11 2.45617 2.35596  11
   3   2 -11 7.42692 11.4278   2
   3   2 -11 -1.1184 2.82415   9
   3   2 -11 5.23934 6.70672   4
   3   2 -11 0.94613 1.66851   8
   3   2 -11 2.63442 2.65856  10
   2   2 -11 12.0818 2.67092   8
   2   2 -11 15.4851 7.79150   4
   2   2 -11 5.66658 10.3491   2
   2   2 -11 3.80629 8.33095   3
   2   2 -11 9.17664 3.41323   9
   1   2 -11 12.1529 2.42270   8
   1   2 -11 15.8399 5.85984   4
   0   2 -11 44.5678 8.67833   4
   0  -2  11 53.2648 11.8360   6
   1  -2  11 3.13367 1.88702   8
   1  -2  11 7.26716 6.59599   6
   2  -2  11 48.0067 6.26477  15
   2  -2  11 20.2516 11.1870   2
   2  -2  11 52.5629 6.11764   9
   2  -2  11 51.0778 11.7920   6
   2  -2  11 44.0482 5.42135   8
   2  -2  11 38.2027 8.83900   3
   3  -2  11 23.7342 3.51161   8
   3  -2  11 24.0291 3.74465  10
   3  -2  11 10.7043 3.45415   9
   3  -2  11 25.3894 10.2977   6
   3  -2  11 19.6558 10.1091   2
   3  -2  11 22.7872 5.15248  15
   3  -2  11 10.9013 7.05361   3
   4  -2  11 15.5299 4.37619  15
   4  -2  11 22.9658 16.3008   6
   4  -2  11 20.0681 3.67080  10
   4  -2  11 21.9527 6.36548  16
   4  -2  11 26.4106 4.13527   9
   5  -2  11 20.2365 5.59121  16
   5  -2  11 25.9799 3.38576   9
   5  -2  11 36.7287 7.27389  15
   5  -2  11 21.2981 3.49126  10
   6  -2  11 100.988 10.9927  15
   6  -2  11 108.364 9.69714  14
   6  -2  11 128.707 12.3457  16
   6  -2  11 112.318 8.37294  10
   7  -2  11 -1.6011 2.43075  15
   7  -2  11 -0.0812 4.33359  16
   7   1 -11 3.55716 2.33156  11
   7   1 -11 3.57905 1.99091  18
   6   1 -11 118.121 10.2477  11
   6   1 -11 106.018 7.78831  10
   6   1 -11 96.6895 9.60824  18
   5   1 -11 13.9442 2.19227   9
   5   1 -11 7.57167 3.65593  18
   5   1 -11 18.7153 5.04475  11
   5   1 -11 14.2373 3.02434  10
   4   1 -11 8.05312 2.81736  10
   4   1 -11 9.58584 3.44014  18
   4   1 -11 8.33916 4.12742  11
   4   1 -11 7.41993 2.92960   9
   3   1 -11 7.57652 8.98486   4
   3   1 -11 2.21301 1.86369  10
   3   1 -11 0.95362 1.66261   8
   3   1 -11 3.36637 2.08735   9
   3   1 -11 -9.1105 6.76661   2
   3   1 -11 4.07474 8.55076   3
   2   1 -11 36.4695 11.7690   2
   2   1 -11 34.4580 3.67035   8
   2   1 -11 26.1740 7.69927   4
   2   1 -11 22.1544 7.85539   3
   2   1 -11 29.8915 4.66584   9
   1   1 -11 26.6312 8.69426   4
   1   1 -11 28.0382 4.47893   8
   1  -1  11 668.800 54.9875   2
   1  -1  11 664.357 43.6126   8
   1  -1  11 852.289 57.5340   6
   1  -1  11 658.476 57.0703   3
   2  -1  11 128.219 10.1404   9
   2  -1  11 142.199 16.8614   2
   2  -1  11 153.258 17.8824   6
   2  -1  11 107.131 15.6952   3
   3  -1  11 15.8219 7.20230   3
   3  -1  11 11.4877 2.58517  10
   3  -1  11 13.2325 10.7768   6
   3  -1  11 11.2283 8.77980   2
   3  -1  11 13.3371 3.33800   9
   3  -1  11 12.0106 3.77889  15
   3  -1  11 14.2249 2.47952   8
   4  -1  11 1.28609 4.17180  15
   4  -1  11 2.43484 3.29914  16
   4  -1  11 -0.1962 2.24380  10
   4  -1  11 5.54430 12.7739   6
   4  -1  11 0.37544 2.49560   9
   4  -1  11 5.46647 8.05777   2
   5  -1  11 14.2843 2.88456  10
   5  -1  11 10.7402 2.44967   9
   5  -1  11 4.34001 3.15599  14
   5  -1  11 8.21893 4.20708  16
   5  -1  11 8.27867 3.78319  15
   6  -1  11 -5.2692 5.06461  16
   6  -1  11 15.2651 5.44232  15
   6  -1  11 13.0926 2.57656  10
   6  -1  11 4.33197 2.52562  14
   7  -1  11 3.95501 3.30298  15
   7  -1  11 6.04887 2.45178  14
   7  -1  11 5.95793 3.68326  16
   8  -1  11 86.9715 8.18691  15
   7   0 -11 21.3756 3.37876  18
   6   0 -11 9.28925 3.89855  18
   6   0 -11 19.4291 2.48962  10
   6   0 -11 13.2422 3.59628  11
   5   0 -11 10.8801 2.04244   9
   5   0 -11 14.9640 2.59850  10
   5   0 -11 3.01090 3.77388  18
   5   0 -11 8.96755 3.84190  11
   4   0 -11 0.89143 2.67973  10
   4   0 -11 5.65455 2.10157   9
   4   0 -11 4.81665 3.32386  18
   4   0 -11 1.96909 4.02725  11
   3   0 -11 191.752 13.1855   9
   3   0 -11 155.597 21.9688   3
   3   0 -11 201.391 20.8352   4
   3   0 -11 174.792 12.7795  10
   3   0 -11 168.101 20.7301   2
   3   0 -11 155.329 15.2570  18
   3   0 -11 187.656 12.0516   8
   2   0 -11 21.4035 9.17370   4
   2   0 -11 18.6472 9.27186   3
   2   0 -11 29.4858 4.17369   8
   2   0 -11 26.7592 9.40466   2
   2   0 -11 29.0577 4.36117   9
   1   0 -11 61.8628 5.62226   8
   1   0  11 12.4098 7.75797   2
   1   0  11 6.76780 4.47437   3
   1   0  11 15.8833 2.88728   8
   2   0  11 22.1385 9.20372   6
   2   0  11 9.45782 5.91658   2
   2   0  11 15.4980 5.41377   3
   2   0  11 21.4601 2.90680   8
   2   0  11 17.0869 3.14382   9
   3   0  11 149.124 10.8793  10
   3   0  11 153.431 10.4099   8
   3   0  11 146.458 19.3858   6
   3   0  11 146.267 13.8374  15
   3   0  11 142.418 11.4147   9
   3   0  11 148.431 16.9709   3
   3   0  11 156.896 18.5890   2
   4   0  11 13.0541 12.6774   6
   4   0  11 17.2563 3.26662   9
   4   0  11 14.6274 6.00064   3
   4   0  11 19.9275 4.04536  14
   4   0  11 17.3550 5.15516  16
   4   0  11 20.9208 5.52754  15
   4   0  11 25.0910 3.42300  10
   4   0  11 28.0082 9.18892   2
   5   0  11 -0.0119 1.86642  10
   5   0  11 -3.8155 2.87846  14
   5   0  11 -2.9948 4.32419  15
   5   0  11 3.22705 4.36964  16
   5   0  11 -0.7192 1.52526   9
   5   0  11 -9.4548 14.7098   6
   6   0  11 0.01204 2.19635  14
   6   0  11 0.74439 3.18291  16
   6   0  11 1.17286 3.36169  15
   6   0  11 1.78038 1.72223  10
   7   0  11 68.7582 9.55613  15
   7   0  11 54.0910 7.12910  14
   7   0  11 44.0958 7.43237  16
   8   0  11 12.4007 2.68548  14
   8   0  11 9.86649 3.43179  15
   6  -1 -11 13.1949 2.24275  10
   6  -1 -11 8.78871 3.98446  11
   6  -1 -11 11.7744 3.16638  18
   5  -1 -11 100.320 7.42970   9
   5  -1 -11 91.0927 9.82825  18
   5  -1 -11 117.675 11.0556  11
   5  -1 -11 102.716 7.96004  10
   4  -1 -11 33.5718 6.65451  18
   4  -1 -11 48.4196 5.56474   9
   4  -1 -11 42.4321 5.54459  10
   4  -1 -11 40.7925 7.38482  11
   3  -1 -11 171.495 11.0697   8
   3  -1 -11 168.454 12.4943   9
   3  -1 -11 166.345 22.6745   2
   3  -1 -11 167.203 19.7033   4
   3  -1 -11 163.794 12.2986  10
   3  -1 -11 145.611 13.7931  18
   3  -1 -11 126.376 19.9893   3
   2  -1 -11 267.522 27.2220   2
   2  -1 -11 207.293 16.4586   9
   2  -1 -11 241.827 15.5318   8
   2  -1 -11 254.861 25.1560   3
   1  -1 -11 -2.2597 2.28947   8
   1   1  11 5.64488 5.49427   2
   1   1  11 4.66827 5.70518   3
   1   1  11 4.27090 2.19023   8
   2   1  11 10.3268 5.55661   2
   2   1  11 8.14845 2.32308  10
   2   1  11 13.5454 2.69528   9
   2   1  11 5.78762 1.71904   8
   2   1  11 7.85393 4.41887   3
   2   1  11 7.45764 7.51959   6
   3   1  11 13.8820 8.83875   6
   3   1  11 -1.0179 2.23551   9
   3   1  11 1.28249 4.40396   3
   3   1  11 -0.0841 2.47560  14
   3   1  11 -10.500 5.76680   2
   3   1  11 3.77747 1.69061   8
   3   1  11 1.73802 2.13466  10
   4   1  11 129.788 9.13430  10
   4   1  11 115.954 9.12766   9
   4   1  11 121.672 21.1513   6
   4   1  11 93.4844 13.2159   3
   4   1  11 108.246 10.7754  14
   4   1  11 114.594 10.3938  13
   4   1  11 120.796 12.9122  15
   5   1  11 106.327 11.4250  15
   5   1  11 111.896 9.89132  13
   5   1  11 91.2945 21.0081   6
   5   1  11 107.237 7.80046   9
   5   1  11 94.6871 13.2623   2
   5   1  11 89.8927 7.75362  10
   5   1  11 101.029 10.2540  14
   6   1  11 58.8319 7.15803  14
   6   1  11 48.8183 8.69909  16
   6   1  11 60.8560 8.76850  15
   6   1  11 58.6091 5.28408  10
   6   1  11 67.5422 7.18583  13
   7   1  11 20.7673 6.23806  15
   7   1  11 14.8991 4.23771  14
   8   1  11 20.7458 3.63963  14
   8   1  11 16.7847 4.53037  15
   6  -2 -11 38.8887 6.27429  18
   6  -2 -11 37.7126 3.80218  10
   5  -2 -11 7.53187 1.79005   9
   5  -2 -11 9.39456 2.83132  10
   5  -2 -11 7.99247 4.25907  18
   5  -2 -11 0.00862 3.69753  11
   4  -2 -11 26.9146 5.18183  18
   4  -2 -11 31.2906 4.13322   9
   4  -2 -11 25.7889 4.23211  10
   4  -2 -11 27.6859 5.19780  11
   3  -2 -11 15.0195 13.2917   2
   3  -2 -11 21.0466 3.61663   8
   3  -2 -11 25.5553 4.21740   9
   3  -2 -11 20.1410 3.86826  10
   3  -2 -11 29.7147 5.84396  18
   3  -2 -11 13.6908 11.6213   4
   2  -2 -11 1.33006 3.21068   9
   2  -2 -11 -0.6539 2.34502   8
   2  -2 -11 5.91657 3.25111  18
   2  -2 -11 2.30725 8.90856   3
   2  -2 -11 9.68733 12.0532   2
   1  -2 -11 4.32993 2.06979   8
   1   2  11 384.457 33.4857   3
   1   2  11 419.702 33.5817   2
   1   2  11 349.258 23.9368   8
   2   2  11 3.91179 5.27282   3
   2   2  11 1.78131 5.76248   5
   2   2  11 4.65503 6.81855   2
   2   2  11 3.00715 1.89075   8
   2   2  11 1.43041 2.48087   9
   2   2  11 2.26140 2.52174  14
   3   2  11 2.58282 1.56324   8
   3   2  11 3.19758 2.44180   9
   3   2  11 2.05522 8.55534   6
   3   2  11 6.12711 2.85778  14
   3   2  11 -6.6845 4.05100   5
   3   2  11 3.01216 2.16769  10
   3   2  11 -0.3321 4.88167   3
   3   2  11 5.93848 6.30092   2
   4   2  11 3.41897 3.07545  13
   4   2  11 4.89965 2.30982  10
   4   2  11 0.68138 4.12928   3
   4   2  11 3.55946 6.26972   2
   4   2  11 2.48104 2.08442   9
   4   2  11 5.81937 3.38636  15
   4   2  11 13.5987 11.1633   6
   4   2  11 6.72936 2.63056  14
   4   2  11 4.12438 7.33819   5
   5   2  11 5.68804 2.32328  10
   5   2  11 4.45767 2.76628  13
   5   2  11 4.86810 3.50313  14
   5   2  11 11.5202 14.9279   6
   5   2  11 11.3209 5.41357  15
   5   2  11 5.48048 1.78206   9
   5   2  11 8.85690 6.45062   2
   5   2  11 7.71422 5.38792   3
   6   2  11 4.46513 5.34862  15
   6   2  11 3.90844 2.84259  13
   6   2  11 10.4632 4.07002  14
   6   2  11 5.98384 1.93993  10
   7   2  11 35.0161 5.22131  13
   7   2  11 26.0714 5.17001  14
   7   2  11 25.7024 7.04759  15
   8   2  11 228.691 19.2282  14
   8   2  11 251.183 21.5154  15
   6  -3 -11 -1.3088 1.21623  10
   6  -3 -11 -2.2591 2.38982  18
   5  -3 -11 2.67490 3.87695  18
   5  -3 -11 0.41671 1.73824  10
   4  -3 -11 73.3490 8.78379  11
   4  -3 -11 92.2351 7.72634   9
   4  -3 -11 81.4042 7.64953  10
   4  -3 -11 74.9054 9.66918  18
   3  -3 -11 32.0023 4.66903  10
   3  -3 -11 37.9509 5.06920   9
   3  -3 -11 41.0222 4.37841   8
   3  -3 -11 43.8487 6.90354  18
   2  -3 -11 69.1789 6.46271   8
   2  -3 -11 56.8632 13.8240   2
   2  -3 -11 65.7567 7.31348  18
   2  -3 -11 55.1286 13.6245   3
   2  -3 -11 63.2039 6.68389   9
   1  -3 -11 83.0080 6.90301   8
   1   3  11 126.175 9.53125   8
   1   3  11 114.045 15.8880   3
   1   3  11 133.366 15.8235   2
   2   3  11 41.9409 5.61383   9
   2   3  11 47.7744 5.73453  14
   2   3  11 40.6655 4.10190   8
   2   3  11 49.8601 10.6006   2
   2   3  11 38.1220 8.56510   5
   2   3  11 36.5175 8.58412   3
   3   3  11 7.04502 2.69810  10
   3   3  11 5.17947 2.58127   9
   3   3  11 0.36702 8.46680   6
   3   3  11 4.73612 6.38368   2
   3   3  11 8.56023 3.06589  14
   3   3  11 5.03419 1.74512   8
   3   3  11 13.2753 5.98120   5
   3   3  11 11.0053 5.25217   3
   4   3  11 172.260 12.2528  10
   4   3  11 174.763 18.0715   3
   4   3  11 154.416 14.2056  13
   4   3  11 223.414 24.6686   6
   4   3  11 186.439 18.4917   2
   4   3  11 141.876 19.8929   5
   4   3  11 198.214 16.6318  15
   4   3  11 164.732 12.3657   9
   4   3  11 163.760 14.6625  14
   5   3  11 11.4934 5.46683   3
   5   3  11 27.5977 15.7962   6
   5   3  11 20.0689 5.25466  15
   5   3  11 13.5680 7.24385   2
   5   3  11 17.6365 4.42844  13
   5   3  11 27.2421 3.19782   9
   5   3  11 17.8452 3.05851  10
   5   3  11 13.7411 4.44237  14
   5   3  11 3.92350 7.75400   5
   6   3  11 0.92712 2.53452  13
   6   3  11 -2.3448 2.28094  14
   6   3  11 -0.9371 1.38929  10
   6   3  11 -0.0012 4.94670  15
   7   3  11 10.8553 3.44964  13
   7   3  11 10.1538 3.48836  14
   7   3  11 10.3225 5.68642  15
   8   3  11 57.5549 8.05770  15
   8   3  11 60.6640 6.66534  13
   8   3  11 53.3440 6.76778  14
   9   3  11 30.0599 4.37712  14
   5  -4 -11 47.5887 6.30031  18
   5  -4 -11 46.9122 4.59742  10
   4  -4 -11 -1.7842 2.84655  18
   4  -4 -11 1.34864 2.57289   9
   4  -4 -11 -1.1224 1.79342  10
   3  -4 -11 24.7283 3.43448   8
   3  -4 -11 14.8083 3.94624  10
   3  -4 -11 20.0196 3.64042   9
   3  -4 -11 30.0882 5.37035  18
   2  -4 -11 46.5329 13.6992   2
   2  -4 -11 39.8078 5.71234   9
   2  -4 -11 54.5468 5.90930   8
   1  -4 -11 51.3467 6.09563   8
   1   4  11 111.363 8.75945   8
   2   4  11 122.336 9.96250   9
   2   4  11 114.816 8.85914   8
   2   4  11 110.368 15.3236   5
   2   4  11 117.737 15.5220   3
   2   4  11 128.873 17.0048   2
   3   4  11 31.3790 9.76853   2
   3   4  11 28.8214 3.48215   8
   3   4  11 15.8527 10.3002   6
   3   4  11 27.5104 4.58997  10
   3   4  11 20.2397 8.76453   5
   3   4  11 29.2064 5.30795  14
   3   4  11 25.4488 4.55305   9
   3   4  11 17.8250 6.92586   3
   4   4  11 554.624 57.1318   6
   4   4  11 627.676 51.0625  13
   4   4  11 702.834 43.8280   9
   4   4  11 681.615 54.5947   5
   4   4  11 702.555 51.6751   2
   4   4  11 702.098 50.4486  14
   5   4  11 177.576 12.1388   9
   5   4  11 186.985 23.8283   5
   5   4  11 165.362 15.2524  13
   5   4  11 174.062 15.6628  14
   5   4  11 160.462 17.4532   2
   5   4  11 188.607 12.3948  10
   5   4  11 155.493 16.8162  15
   6   4  11 0.96677 3.84293  14
   6   4  11 13.0520 5.34634  15
   6   4  11 8.67445 3.13750  13
   6   4  11 4.42218 1.85050  10
   7   4  11 2.24435 2.81093  13
   7   4  11 0.82923 4.42838  15
   7   4  11 2.08739 2.79485  14
   8   4  11 1.94187 2.49961  13
   8   4  11 3.87520 3.77170  14
   8   4  11 2.24702 2.99815  15
   9   4  11 8.48094 2.71453  14
   5  -5 -11 13.3110 3.31854  18
   5  -5 -11 18.0814 2.78223  10
   4  -5 -11 92.8441 7.52570   9
   4  -5 -11 98.3466 8.32395  10
   4  -5 -11 96.3008 9.86204  18
   3  -5 -11 -0.4018 3.04267  10
   3  -5 -11 0.51914 1.43300   8
   3  -5 -11 -0.8760 3.00618  18
   3  -5 -11 0.91695 2.24320   9
   2  -5 -11 12.0171 4.02677   9
   2  -5 -11 18.8025 3.44621   8
   1  -5 -11 -0.1299 1.88550   8
   1   5  11 169.978 12.0004   8
   2   5  11 51.0117 5.22734   8
   2   5  11 52.0202 5.52250   9
   2   5  11 33.5716 9.05648   3
   2   5  11 41.3453 10.0799   2
   3   5  11 11.0463 2.55042   9
   3   5  11 -2.7286 6.01658   3
   3   5  11 10.1406 3.09604  10
   3   5  11 12.3428 6.01623   2
   3   5  11 -14.118 9.07576   6
   3   5  11 9.42845 2.11241   8
   3   5  11 19.0898 3.68019  14
   3   5  11 2.94778 8.39993   5
   4   5  11 38.9514 6.40256  15
   4   5  11 34.3570 8.69317   3
   4   5  11 20.3545 9.09970   2
   4   5  11 37.1414 11.8854   5
   4   5  11 44.4795 4.67023  10
   4   5  11 39.4918 5.93311  13
   4   5  11 49.5603 5.09965   9
   4   5  11 46.6063 6.02644  14
   5   5  11 8.69041 2.53900  10
   5   5  11 22.2576 9.32755   5
   5   5  11 8.99391 2.28952   9
   5   5  11 4.07142 3.71963  13
   5   5  11 8.17827 3.29019  14
   5   5  11 3.89028 3.18415  12
   5   5  11 6.69193 4.42284  15
   6   5  11 3.00231 4.04445  15
   6   5  11 5.06446 1.69126  10
   6   5  11 2.71399 3.59689  13
   6   5  11 0.84604 3.93368  14
   7   5  11 32.7119 6.24793  14
   7   5  11 39.3349 7.02194  15
   7   5  11 29.9765 5.33559  13
   8   5  11 9.32534 2.93290  13
   8   5  11 15.0122 4.61259  14
   9   5  11 3.67914 2.36610  14
   9   5  11 2.92247 2.03086  13
   4  -6 -11 82.6919 6.99328  10
   4  -6 -11 73.7254 8.49104  18
   4  -6 -11 95.6520 6.53579   9
   3  -6 -11 1.53753 2.24515  10
   3  -6 -11 6.18374 3.49750  18
   3  -6 -11 4.96634 3.19785   9
   2  -6 -11 131.911 9.85632   8
   2  -6 -11 122.158 10.4125   9
   1  -6 -11 6.07177 3.04585   8
   0  -6 -11 5.05649 2.59464   8
   0   6  11 8.03694 2.65945   8
   1   6  11 86.2059 7.67920   8
   2   6  11 18.8080 3.39718   9
   2   6  11 19.2363 3.20066   8
   2   6  11 17.1545 8.61937   2
   2   6  11 15.4356 9.39072   3
   3   6  11 401.783 25.1962   8
   3   6  11 398.346 27.0106   9
   3   6  11 467.175 31.5817  14
   3   6  11 384.539 26.3943  10
   3   6  11 355.354 36.1158   3
   3   6  11 361.822 35.3030   2
   3   6  11 330.692 35.3480   5
   4   6  11 112.818 11.1519  13
   4   6  11 106.733 17.0492   2
   4   6  11 133.946 9.88116  10
   4   6  11 129.769 9.73880   9
   4   6  11 76.0765 16.7761   5
   4   6  11 130.619 12.4567  14
   5   6  11 39.8891 4.78476  10
   5   6  11 33.3621 4.97148  12
   5   6  11 37.1671 4.36718   9
   5   6  11 27.0815 11.5052   5
   5   6  11 39.7721 7.56574  14
   5   6  11 34.3200 6.30483  13
   6   6  11 0.67741 1.70552  10
   6   6  11 -0.3700 2.15257  12
   6   6  11 -0.6604 2.94742  14
   6   6  11 0.09193 3.37987  13
   7   6  11 3.76030 2.60448  13
   7   6  11 6.41780 3.61302  14
   8   6  11 0.51752 2.89143  14
   8   6  11 5.28823 2.71696  13
   9   6  11 70.6642 7.15115  14
   9   6  11 70.8492 6.78739  13
   4  -7 -11 -1.8084 2.28826  18
   4  -7 -11 1.37855 1.60480  10
   3  -7 -11 -0.2120 2.71201   9
   3  -7 -11 -3.1663 2.78892  18
   2  -7 -11 15.8113 3.42138   9
   2  -7 -11 22.0779 3.14268   8
   1  -7 -11 139.522 10.9350   8
   0  -7 -11 26.8465 3.93968   8
   0   7  11 28.8426 4.36257   8
   1   7  11 2.41145 1.94950   8
   2   7  11 -0.7325 2.05965   9
   2   7  11 3.47640 2.46849   8
   3   7  11 1.99562 2.06746   9
   3   7  11 -6.8256 7.73080   5
   3   7  11 1.28663 2.75533  10
   3   7  11 0.88849 1.74291   8
   4   7  11 55.8035 8.08974  14
   4   7  11 53.9272 5.80718   9
   4   7  11 48.8902 5.28719  10
   4   7  11 44.6206 12.6980   5
   5   7  11 1.96283 1.65568   9
   5   7  11 -1.5580 1.34142  10
   5   7  11 -2.2949 4.13878  14
   5   7  11 -0.2207 3.24327  13
   6   7  11 11.9592 3.67370  12
   6   7  11 11.0341 4.09590  14
   6   7  11 6.96599 2.29871  10
   6   7  11 10.2150 3.91650  13
   7   7  11 -1.2417 4.53300  14
   7   7  11 5.25099 3.80911  13
   8   7  11 7.29841 2.47698  13
   8   7  11 18.3559 4.50159  14
   3  -8 -11 2.61287 2.70811  18
   3  -8 -11 -4.1386 2.09368   9
   2  -8 -11 1.60852 4.24462  18
   2  -8 -11 3.74371 2.40654   9
   2  -8 -11 5.35010 1.56795   8
   1  -8 -11 59.5150 6.34584   8
   0  -8 -11 45.3974 6.47009   8
   0   8  11 50.2122 5.22330   8
   1   8  11 5.06360 2.04623   8
   2   8  11 11.2493 3.57841   9
   2   8  11 5.95945 2.48488   8
   3   8  11 -1.3565 1.66186   8
   3   8  11 -1.0842 2.06550  10
   3   8  11 -0.4128 2.69152   9
   4   8  11 4.89800 3.95069  14
   4   8  11 7.88893 2.42872  10
   4   8  11 7.60652 2.24240   9
   5   8  11 3.52628 4.17863  14
   5   8  11 1.09747 2.36944  13
   5   8  11 4.44300 1.77206  10
   5   8  11 -4.3645 1.76915   9
   6   8  11 10.3789 3.03275  13
   6   8  11 6.15530 2.07138  10
   6   8  11 17.9201 5.04388  14
   7   8  11 7.00069 3.52810  14
   7   8  11 6.89302 3.44181  13
   8   8  11 6.11767 2.45949  14
   8   8  11 15.2719 2.96041  13
   2  -9 -11 8.86853 2.34044   9
   2  -9 -11 21.2637 4.00703  18
   1  -9 -11 12.0407 2.61574   8
  -1   9  11 6.37460 2.13477   8
   0  -9 -11 1.84589 2.78774   8
   0   9  11 0.30664 1.83358   8
   1   9  11 40.9856 4.45088   8
   2   9  11 -1.9351 1.92652   8
   2   9  11 3.60138 2.22956   9
   3   9  11 26.9384 4.19805   9
   3   9  11 11.3235 3.26765  10
   3   9  11 21.9362 2.78187   8
   3   9  11 28.4953 5.05721  14
   4   9  11 3.93241 2.00905  10
   4   9  11 -0.6763 2.41591  14
   4   9  11 0.08914 1.69516   9
   5   9  11 26.6269 3.13413   9
   5   9  11 24.5887 4.65175  14
   5   9  11 36.3800 4.62715  10
   5   9  11 12.8916 3.39418  13
   6   9  11 25.9161 4.69703  14
   6   9  11 22.6852 3.52130  10
   6   9  11 20.9561 4.06477  13
   7   9  11 11.7072 3.05257  14
   7   9  11 7.21223 2.44499  13
   1 -10 -11 0.39808 0.87791   8
   1 -10 -11 1.07836 2.36713  18
   0 -10 -11 46.7897 4.42643   8
   0  10  11 42.1847 4.81799   8
  -1 -10 -11 5.84252 3.14509   8
   1  10  11 8.26364 1.85472   8
   2  10  11 4.06374 1.32878   8
   2  10  11 6.05194 2.37789   9
   3  10  11 6.51462 2.87914   9
   3  10  11 0.95574 2.30520  14
   4  10  11 115.599 9.15612   9
   4  10  11 133.237 9.62497  10
   4  10  11 132.948 11.9740  14
   5  10  11 54.2520 5.76522  10
   5  10  11 61.6432 6.81193  14
   6  10  11 4.40748 3.10969  14
   6  10  11 -2.1890 1.40672  10
   6  10  11 -0.2633 2.61800  13
  -1 -11 -11 10.4048 2.54803   8
   1  11  11 5.96500 1.04053   8
   1  11  11 6.79740 2.14559  14
   2  11  11 6.36511 2.55840   9
   2  11  11 6.95704 2.19604  14
   3  11  11 -1.7477 1.47213   9
   3  11  11 1.89465 2.67861  14
   4  11  11 5.84700 1.50222   9
   4  11  11 5.92171 1.82041  10
   4  11  11 4.33565 2.16217  14
   5  11  11 20.9601 2.79332  10
   5  11  11 20.8921 3.40063  14
   3   8 -12 4.36929 1.52116   9
   3   8 -12 0.59727 2.04401  12
   2   8 -12 10.9903 2.20405   9
   2   8 -12 13.0489 3.49007  12
   1   8 -12 316.837 17.8357   8
  -1  -8  12 238.821 18.0842   8
   0   8 -12 14.5946 2.72746  12
   0   8 -12 16.0383 2.51200   8
   0  -8  12 12.1714 1.98413   8
   0  -8  12 8.25470 2.91129  16
  -1   8 -12 5.94029 2.07528   8
   1  -8  12 3.77983 0.90642   8
   1  -8  12 8.25109 2.66722  16
   5   7 -12 4.24478 1.42800  10
   4   7 -12 -2.0680 2.28193  12
   4   7 -12 1.38539 0.99812   9
   4   7 -12 -1.0536 1.47981  10
   3   7 -12 8.17313 2.95632  12
   3   7 -12 9.37174 2.66463   9
   2   7 -12 12.4394 3.27422  12
   2   7 -12 12.4659 2.01931   8
   2   7 -12 8.84129 2.50180   9
   1   7 -12 34.0074 3.55392   8
  -1  -7  12 25.7382 3.83472   8
   0   7 -12 34.4408 4.55223   8
   0  -7  12 41.0582 4.64065   8
  -1   7 -12 13.3906 2.39206   8
   1  -7  12 14.9051 3.89330  16
   1  -7  12 10.6459 2.99979   9
   1  -7  12 18.9785 2.84928   8
   2  -7  12 59.2420 5.96811   9
   2  -7  12 76.0605 7.45873  16
   3  -7  12 5.20328 2.55992  16
   3  -7  12 5.69196 1.42240   9
   5   6 -12 74.2085 5.47162  10
   5   6 -12 62.2451 6.78270  12
   4   6 -12 83.2071 7.04744  10
   4   6 -12 97.3893 7.06636   9
   4   6 -12 78.8841 8.55140  12
   3   6 -12 51.9208 6.29523   9
   3   6 -12 74.0065 7.47218  12
   2   6 -12 5.72720 2.04670   8
   2   6 -12 7.69428 2.60675   9
   1   6 -12 5.14035 1.77788   8
   0   6 -12 65.4862 6.25067   8
   0  -6  12 59.5124 6.00037   8
   1  -6  12 9.27853 2.31308   8
   2  -6  12 31.4895 3.76202   8
   2  -6  12 29.8247 5.70579  16
   2  -6  12 23.3502 4.42052   9
   3  -6  12 3.64405 3.41809  10
   3  -6  12 -0.2475 2.51615   9
   3  -6  12 -0.0227 2.84127  16
   4  -6  12 5.64708 1.82597  10
   4  -6  12 0.19050 2.50427  16
   6   5 -12 17.7761 1.89317  10
   6   5 -12 20.4244 3.16528  11
   5   5 -12 8.21821 2.38045  10
   5   5 -12 4.56632 2.59037  12
   5   5 -12 6.49259 2.31550  11
   4   5 -12 21.1532 3.71286   9
   4   5 -12 29.8207 4.51350  10
   4   5 -12 23.3721 4.90609  12
   4   5 -12 14.6599 3.73035  11
   3   5 -12 17.2094 3.04093   9
   3   5 -12 10.9326 1.99941   8
   2   5 -12 43.9192 5.96769   9
   2   5 -12 37.1462 4.41447   8
   1   5 -12 30.3426 4.65613   8
   0   5 -12 2.19858 2.52217   8
   0  -5  12 0.90005 2.10356   8
   1  -5  12 8.57058 2.46745   8
   2  -5  12 10.5912 2.13635   8
   2  -5  12 11.5448 3.20230   9
   3  -5  12 -0.9366 2.86718   9
   3  -5  12 -0.0719 3.13164  16
   3  -5  12 -3.3276 2.08350  10
   4  -5  12 10.1710 2.27481   9
   4  -5  12 12.4831 2.72417  10
   4  -5  12 10.0121 3.64738  16
   5  -5  12 37.8875 5.72986  16
   5  -5  12 44.1763 4.26001  10
   6   4 -12 188.700 14.5734  11
   6   4 -12 189.328 12.3351  10
   5   4 -12 4.48321 3.33069  11
   5   4 -12 4.27274 1.15321   9
   5   4 -12 7.79191 1.93119  10
   4   4 -12 0.07670 2.09000   9
   4   4 -12 0.22395 2.32869  11
   4   4 -12 2.17842 2.56463  10
   4   4 -12 -1.6999 2.47366  12
   3   4 -12 39.7035 6.11353  10
   3   4 -12 49.8987 5.54161   9
   3   4 -12 59.7280 4.52673   8
   3   4 -12 46.2574 5.56941  11
   2   4 -12 51.5368 6.76388  11
   2   4 -12 66.0764 7.28191   9
   2   4 -12 74.9048 6.00222   8
   1   4 -12 49.1978 4.99466   8
   0   4 -12 2.20474 1.92804   8
   0  -4  12 0.65427 3.19742   8
   1  -4  12 -0.9341 2.57093   8
   2  -4  12 11.2090 3.84186   9
   2  -4  12 9.87579 2.88020   8
   3  -4  12 1.79614 1.45360   8
   3  -4  12 5.07378 2.37679  10
   3  -4  12 -4.5550 4.60269  16
   3  -4  12 1.88187 2.50535   9
   4  -4  12 5.91720 2.49100  10
   4  -4  12 7.42371 2.78008   9
   4  -4  12 5.23228 3.74672  16
   5  -4  12 13.0867 2.44930  10
   5  -4  12 11.4243 5.06185  16
   6  -4  12 5.20075 1.19872  10
   6  -4  12 3.42359 2.58129  16
   6   3 -12 1.57926 2.28553  11
   6   3 -12 0.65879 1.04656  10
   5   3 -12 21.8122 2.56547   9
   5   3 -12 28.7603 3.47518  10
   5   3 -12 21.0158 4.00873  11
   4   3 -12 29.6332 4.00640  10
   4   3 -12 30.4736 4.77773  11
   4   3 -12 26.4854 3.74417   9
   3   3 -12 8.85992 1.89317   8
   3   3 -12 6.46801 2.37208  10
   3   3 -12 8.38422 3.60168  11
   3   3 -12 7.42608 3.18741   9
   2   3 -12 4.52825 3.06615  11
   2   3 -12 5.84668 7.15508   4
   2   3 -12 8.97425 2.54030   8
   2   3 -12 6.76144 2.72321   9
   1   3 -12 7.33327 2.69576   8
   1   3 -12 -0.8450 8.40639   4
   1  -3  12 49.4073 6.27860   8
   1  -3  12 50.4083 15.1593   6
   2  -3  12 163.044 11.7848   8
   2  -3  12 146.127 22.7916   6
   2  -3  12 176.265 13.1175   9
   3  -3  12 106.920 8.79971  10
   3  -3  12 101.223 7.21706   8
   3  -3  12 72.6948 10.4399  15
   3  -3  12 92.1569 9.07670   9
   4  -3  12 50.4965 7.85517  16
   4  -3  12 34.8340 7.36384  15
   4  -3  12 43.2848 5.61045  10
   4  -3  12 39.7504 4.85136   9
   5  -3  12 42.3740 4.59928  10
   5  -3  12 48.7386 9.30274  16
   5  -3  12 37.6997 5.79358  15
   6  -3  12 13.7589 3.38332  15
   6  -3  12 29.2151 2.65780  10
   6   2 -12 -0.9425 1.06033  10
   6   2 -12 5.24406 3.78332  11
   5   2 -12 31.0961 5.28619  11
   5   2 -12 30.2298 3.12780   9
   5   2 -12 35.7923 3.89214  10
   4   2 -12 21.8295 3.71253   9
   4   2 -12 21.9008 3.44441  10
   4   2 -12 25.4095 4.98120  11
   3   2 -12 2.24632 3.28864  11
   3   2 -12 3.31395 3.04747   9
   3   2 -12 2.22647 1.76648   8
   3   2 -12 -2.7524 6.89353   4
   3   2 -12 1.68396 1.81338  10
   2   2 -12 109.011 16.2760   4
   2   2 -12 104.130 8.54872   9
   2   2 -12 45.3873 14.2436   3
   2   2 -12 105.087 7.85669   8
   2   2 -12 73.3119 19.5869   2
   1   2 -12 220.930 22.5705   4
   1   2 -12 214.029 14.6642   8
  -1  -2  12 214.708 24.8525   6
   0   2 -12 1.36143 6.70102   4
   0  -2  12 -1.7407 6.16295   6
   1  -2  12 -0.3625 6.89626   6
   2  -2  12 25.0023 13.1349   2
   2  -2  12 15.9824 9.74637   3
   2  -2  12 49.1432 7.47165  15
   2  -2  12 47.5138 6.28593   9
   2  -2  12 30.4661 14.7024   6
   2  -2  12 54.7117 5.65451   8
   3  -2  12 11.9681 10.6308   6
   3  -2  12 7.61820 2.92697  10
   3  -2  12 10.6218 2.77838   9
   3  -2  12 12.0986 3.80749  15
   3  -2  12 11.7014 2.37304   8
   4  -2  12 36.7481 7.57191  16
   4  -2  12 42.3331 5.61035  10
   4  -2  12 45.7904 5.91353   9
   4  -2  12 39.7727 6.55993  15
   5  -2  12 5.48091 4.64581  15
   5  -2  12 -2.0702 2.16217  10
   5  -2  12 2.38317 5.08679  16
   5  -2  12 1.93722 1.68191   9
   6  -2  12 43.6235 6.39183  15
   6  -2  12 39.1367 7.33177  16
   6  -2  12 46.8895 4.56453  10
   7  -2  12 -0.0019 2.49307  15
   7  -2  12 0.82544 2.82812  16
   6   1 -12 25.3452 3.27231  10
   6   1 -12 37.9809 5.22610  11
   5   1 -12 119.789 10.5333  11
   5   1 -12 102.128 8.69600  10
   4   1 -12 53.4862 6.66014  11
   4   1 -12 45.0946 5.93594  10
   4   1 -12 57.2663 6.13605   9
   3   1 -12 22.0506 12.0626   4
   3   1 -12 66.5021 7.38230  11
   3   1 -12 46.1515 4.60480   8
   3   1 -12 52.7462 6.23075   9
   3   1 -12 38.6174 5.02065  10
   2   1 -12 35.2383 13.3828   2
   2   1 -12 21.6308 7.94366   4
   2   1 -12 30.9583 4.84109   9
   2   1 -12 22.3352 11.4953   3
   2   1 -12 31.5257 4.34105   8
   1   1 -12 131.479 10.0573   8
   0  -1  12 10.9013 9.17677   6
   1  -1  12 21.8579 8.00454   6
   1  -1  12 9.80706 2.78142   8
   2  -1  12 15.1566 10.7416   2
   2  -1  12 -4.7215 2.72493   9
   2  -1  12 10.5826 10.5313   6
   2  -1  12 5.18123 6.91695   3
   3  -1  12 27.8201 9.89448   3
   3  -1  12 62.0397 6.62470   9
   3  -1  12 64.2355 5.54367   8
   3  -1  12 57.5887 8.57990  15
   3  -1  12 59.4243 5.81246  10
   3  -1  12 43.6809 13.3839   2
   3  -1  12 65.8320 16.2530   6
   4  -1  12 121.486 9.85092   9
   4  -1  12 127.003 13.4537  16
   4  -1  12 108.198 9.09709  10
   4  -1  12 92.6563 21.8031   6
   4  -1  12 122.608 12.9110  15
   5  -1  12 13.4946 2.59231   9
   5  -1  12 11.2546 4.26134  16
   5  -1  12 14.4394 4.20964  15
   5  -1  12 6.45321 2.63978  10
   6  -1  12 68.1098 10.1828  15
   6  -1  12 86.2624 6.78886  10
   6  -1  12 81.5358 8.35623  14
   6  -1  12 87.6821 9.85087  16
   7  -1  12 -1.6360 4.08868  15
   7  -1  12 1.78896 4.09167  16
   6   0 -12 13.4403 2.95303  18
   6   0 -12 21.7892 3.74385  11
   6   0 -12 14.3708 2.12149  10
   5   0 -12 3.01554 2.48626  18
   5   0 -12 3.34018 1.76111  10
   5   0 -12 0.80740 1.49970   9
   5   0 -12 -1.0030 2.96644  11
   4   0 -12 5.05575 2.88279  11
   4   0 -12 3.22460 1.95135   9
   4   0 -12 1.87778 3.13389  18
   4   0 -12 3.22079 2.02424  10
   3   0 -12 73.1663 6.81379  10
   3   0 -12 73.8637 6.07866   8
   3   0 -12 79.0326 6.95895   9
   3   0 -12 70.6032 13.4718   4
   2   0 -12 51.3104 14.9777   2
   2   0 -12 64.2854 6.01699   9
   2   0 -12 18.8860 9.56131   3
   2   0 -12 42.6351 11.2345   4
   2   0 -12 62.2977 5.76544   8
   1   0 -12 11.8828 3.09649   8
   1   0  12 -6.6178 7.30626   6
   1   0  12 4.57726 1.88916   8
   2   0  12 94.7970 14.8391   2
   2   0  12 105.425 8.83808   9
   2   0  12 99.6310 14.7527   3
   2   0  12 106.902 8.00200   8
   2   0  12 132.944 19.2658   6
   3   0  12 0.92531 1.90208   8
   3   0  12 3.86898 4.24023  15
   3   0  12 1.77820 1.82116  10
   3   0  12 -3.8099 7.98275   2
   3   0  12 12.4535 10.8582   6
   3   0  12 4.52475 6.00847   3
   3   0  12 4.01872 2.72737   9
   4   0  12 0.36639 1.67515  10
   4   0  12 3.31161 4.26111  16
   4   0  12 1.36308 8.65487   2
   4   0  12 -1.1301 2.32399   9
   4   0  12 4.28296 3.34031  15
   4   0  12 3.68812 10.0617   6
   5   0  12 0.45507 3.18968  14
   5   0  12 5.60629 4.65024  16
   5   0  12 8.46763 5.25467  15
   5   0  12 8.63448 2.48806   9
   5   0  12 6.28562 2.34550  10
   6   0  12 -0.0011 1.70701  10
   6   0  12 -0.1608 4.19169  16
   6   0  12 5.02181 3.78063  15
   6   0  12 1.31707 3.04231  14
   7   0  12 10.5968 4.76410  15
   7   0  12 5.47290 2.48417  14
   7   0  12 2.15528 2.77266  16
   8   0  12 3.60213 2.72549  15
   6  -1 -12 1.78594 2.25053  11
   6  -1 -12 6.60130 1.67749  10
   6  -1 -12 2.13527 2.35684  18
   5  -1 -12 26.6292 4.36023  10
   5  -1 -12 24.0447 2.62474   9
   5  -1 -12 16.0647 3.88363  18
   5  -1 -12 21.9756 4.38561  11
   4  -1 -12 -0.0601 3.35832  18
   4  -1 -12 1.18330 1.81102   9
   4  -1 -12 3.75596 2.80876  10
   4  -1 -12 2.14109 3.09198  11
   3  -1 -12 225.421 15.5594   9
   3  -1 -12 213.590 13.7449   8
   3  -1 -12 214.410 23.4261   4
   3  -1 -12 197.661 15.1641  10
   3  -1 -12 194.710 17.6053  18
   2  -1 -12 518.542 39.3796   4
   2  -1 -12 465.276 28.9865   8
   2  -1 -12 437.709 42.1469   2
   2  -1 -12 457.242 30.8639   9
   2  -1 -12 385.113 41.0055   3
   1  -1 -12 22.9775 3.91383   8
   1   1  12 1.28254 2.18360   8
   2   1  12 12.9042 2.73226   8
   2   1  12 21.5161 9.52967   6
   2   1  12 14.9659 3.45350   9
   2   1  12 12.3860 6.84189   3
   2   1  12 19.6410 8.90563   2
   3   1  12 12.9008 6.70868   3
   3   1  12 21.8335 3.35136   8
   3   1  12 24.3136 3.74889   9
   3   1  12 18.1898 8.76993   6
   3   1  12 19.6613 3.53378  10
   3   1  12 24.5704 9.47208   2
   4   1  12 20.7855 6.52644   3
   4   1  12 12.2030 3.61449  13
   4   1  12 24.3965 14.0758   6
   4   1  12 16.9718 3.17384   9
   4   1  12 30.6494 6.26839  15
   4   1  12 20.5414 3.24362  10
   4   1  12 13.6422 3.23407  14
   4   1  12 21.2382 8.35278   2
   5   1  12 95.9100 10.3954  15
   5   1  12 81.6055 7.17185  10
   5   1  12 98.7574 20.3877   6
   5   1  12 83.4503 6.54407   9
   5   1  12 77.2400 8.13835  13
   5   1  12 70.9781 8.16253  14
   6   1  12 22.3761 5.26459  15
   6   1  12 22.9583 3.43097  10
   6   1  12 22.8748 4.20116  14
   7   1  12 6.29081 5.09360  15
   7   1  12 5.79757 3.61962  14
   8   1  12 1.73401 2.99664  15
   8   1  12 1.33718 2.04207  14
   6  -2 -12 134.151 8.93159  10
   5  -2 -12 7.18185 3.67544  11
   5  -2 -12 1.39815 2.30691  10
   5  -2 -12 9.22671 3.96492  18
   4  -2 -12 79.3503 9.03053  18
   4  -2 -12 93.5350 8.01967   9
   4  -2 -12 113.016 10.3802  11
   4  -2 -12 90.9600 7.71584  10
   3  -2 -12 45.4639 6.82842  18
   3  -2 -12 40.3428 6.21243   9
   3  -2 -12 47.6517 4.54884   8
   3  -2 -12 45.0228 5.32798  10
   2  -2 -12 6.74255 2.83124   9
   2  -2 -12 -11.819 9.70139   2
   2  -2 -12 9.20468 7.00363   4
   2  -2 -12 8.44176 2.14649   8
   2  -2 -12 6.75286 2.70417  18
   2  -2 -12 0.60791 7.14532   3
   1  -2 -12 5.59427 2.83315   8
   1   2  12 53.9524 5.69141   8
   2   2  12 -11.926 7.23648   6
   2   2  12 1.33890 2.75197   9
   2   2  12 6.75300 8.04556   2
   2   2  12 3.65187 2.07535   8
   2   2  12 6.44704 6.61901   3
   3   2  12 116.777 15.6288   2
   3   2  12 81.5240 13.0442   3
   3   2  12 94.1034 8.17847   9
   3   2  12 84.9106 7.34165  10
   3   2  12 79.2341 8.24413  14
   3   2  12 93.8252 6.89168   8
   3   2  12 103.910 16.4813   6
   4   2  12 0.39419 2.84784  14
   4   2  12 -2.4486 1.94571   9
   4   2  12 2.00063 7.28897   2
   4   2  12 -1.4710 2.11619  10
   4   2  12 7.23349 3.68961  15
   4   2  12 -7.8522 11.0603   6
   4   2  12 -8.8519 4.78924   3
   5   2  12 156.549 14.8052  15
   5   2  12 121.662 12.1193  14
   5   2  12 131.342 9.72367  10
   5   2  12 122.833 9.24299   9
   5   2  12 123.376 11.9347  13
   5   2  12 106.283 23.9885   6
   6   2  12 218.475 20.9453  15
   6   2  12 232.786 18.7339  13
   6   2  12 203.938 18.4176  14
   7   2  12 7.81919 2.83285  14
   7   2  12 -3.7307 3.50387  15
   8   2  12 1.45460 2.97771  14
   8   2  12 1.91842 4.48151  15
   5  -3 -12 9.88167 4.20230  18
   5  -3 -12 6.01338 1.93755  10
   4  -3 -12 7.21076 2.87285   9
   4  -3 -12 7.43723 3.97534  18
   4  -3 -12 6.88555 2.98086  11
   4  -3 -12 3.86707 2.88695  10
   3  -3 -12 7.53713 3.97700  18
   3  -3 -12 4.33694 3.23630   9
   3  -3 -12 1.88638 1.75303   8
   3  -3 -12 7.34201 3.14058  10
   2  -3 -12 4.17120 3.59118   9
   2  -3 -12 3.52611 3.69395  18
   2  -3 -12 2.82252 2.66006   8
   1  -3 -12 21.9028 3.89125   8
   1   3  12 1.53666 1.73662   8
   2   3  12 142.109 12.5066  14
   2   3  12 133.477 11.4712   9
   2   3  12 152.105 10.4736   8
   2   3  12 151.254 18.1163   3
   2   3  12 136.589 19.5543   2
   3   3  12 10.9784 8.18885   2
   3   3  12 5.74941 2.73433  10
   3   3  12 12.3535 3.01456  14
   3   3  12 9.58103 5.21632   3
   3   3  12 12.8951 2.30490   8
   3   3  12 7.59443 7.86146   5
   3   3  12 10.3708 3.11913   9
   3   3  12 30.3441 11.6323   6
   4   3  12 5.03960 6.72186   5
   4   3  12 1.32952 2.25528   9
   4   3  12 0.49670 1.69604  10
   4   3  12 -0.5384 2.78876  14
   4   3  12 6.61159 5.89504   3
   4   3  12 0.76546 3.23461  15
   4   3  12 -3.2702 7.24454   2
   4   3  12 5.19416 12.5639   6
   5   3  12 19.2618 4.76959  14
   5   3  12 24.8711 3.24193  10
   5   3  12 24.5217 3.45962   9
   5   3  12 20.0484 9.72030   5
   5   3  12 38.4676 18.1784   6
   5   3  12 19.7634 4.13573  13
   5   3  12 12.9449 6.22161  15
   6   3  12 16.0393 6.26636  15
   6   3  12 12.4049 3.57569  14
   6   3  12 15.0157 3.70950  13
   6   3  12 16.2344 2.62527  10
   7   3  12 0.39294 2.38364  13
   7   3  12 2.39233 5.31538  15
   7   3  12 3.64307 2.64093  14
   8   3  12 5.03711 3.24783  15
   8   3  12 -2.0464 3.05653  14
   5  -4 -12 3.65875 2.68917  18
   5  -4 -12 5.83063 1.82826  10
   4  -4 -12 15.6083 3.94151  18
   4  -4 -12 24.2285 4.16173   9
   4  -4 -12 18.9650 3.21165  10
   3  -4 -12 26.8045 5.15857  18
   3  -4 -12 29.8938 4.88395  11
   3  -4 -12 28.1895 4.44682  10
   3  -4 -12 36.9680 6.09417   9
   3  -4 -12 32.7880 3.64619   8
   2  -4 -12 14.6134 4.35279   9
   2  -4 -12 11.4465 4.58221  18
   2  -4 -12 24.2695 3.68783   8
   1  -4 -12 10.8813 3.28701   8
   1   4  12 145.114 10.5475   8
   2   4  12 4.01300 2.86384  14
   2   4  12 -2.2114 2.71623   9
   2   4  12 0.28530 1.49768   8
   2   4  12 12.3245 9.66014   2
   2   4  12 -1.7166 6.35277   3
   3   4  12 115.225 7.70600   8
   3   4  12 103.415 8.92789   9
   3   4  12 97.5031 16.8025   2
   3   4  12 99.4403 9.57804  14
   3   4  12 109.646 20.2355   6
   3   4  12 74.5921 13.9110   3
   3   4  12 74.9923 14.4471   5
   4   4  12 423.651 32.0155  14
   4   4  12 428.911 37.9250   5
   4   4  12 416.890 35.9108   2
   4   4  12 443.281 27.1240  10
   4   4  12 343.008 33.7630  15
   4   4  12 394.045 42.3732   6
   4   4  12 415.840 27.5060   9
   5   4  12 23.3944 6.68952  15
   5   4  12 32.1594 5.00419  13
   5   4  12 25.7496 5.50606  14
   5   4  12 37.3915 11.7624   5
   5   4  12 45.6823 4.27588   9
   5   4  12 38.5168 4.54046  10
   6   4  12 5.02177 4.95034  15
   6   4  12 -0.6963 1.58752  10
   6   4  12 4.64020 2.66743  13
   6   4  12 -0.7167 3.45488  14
   7   4  12 5.79238 2.78391  13
   7   4  12 -1.4849 3.20459  14
   7   4  12 6.10037 4.86979  15
   8   4  12 11.9282 3.27255  14
   8   4  12 8.42874 2.79204  13
   8   4  12 9.70408 3.48671  15
   5  -5 -12 2.74442 1.84444  10
   5  -5 -12 1.43975 2.14584  18
   4  -5 -12 11.6616 2.42177   9
   4  -5 -12 9.40257 3.06556  10
   4  -5 -12 7.90687 3.32696  18
   3  -5 -12 0.82726 1.24291   8
   3  -5 -12 3.75434 4.17516  18
   3  -5 -12 7.55416 2.70621   9
   3  -5 -12 1.03240 2.10102  10
   2  -5 -12 12.1262 3.85564  18
   2  -5 -12 6.69771 2.98352   8
   2  -5 -12 10.7540 3.12289   9
   1  -5 -12 2.53084 2.13702   8
   0  -5 -12 30.4604 4.71690   8
   1   5  12 10.6087 2.46360   8
   2   5  12 47.1510 4.81557   8
   2   5  12 43.6962 5.97984   9
   2   5  12 39.9436 13.0973   2
   2   5  12 13.0109 7.31104   3
   3   5  12 165.273 21.8292   5
   3   5  12 210.579 26.3011   6
   3   5  12 146.979 19.3595   3
   3   5  12 186.107 13.3957  10
   3   5  12 192.063 15.6320  14
   3   5  12 141.958 21.9512   2
   3   5  12 171.879 12.0712   8
   3   5  12 185.465 13.6049   9
   4   5  12 12.1242 3.05930  10
   4   5  12 7.27027 4.01100  14
   4   5  12 13.7976 4.02899  15
   4   5  12 17.6186 9.41952   2
   4   5  12 6.33891 7.10409   5
   4   5  12 11.7421 2.94930   9
   5   5  12 2.14160 3.23390  13
   5   5  12 2.73466 1.77426  10
   5   5  12 4.40331 3.28390  15
   5   5  12 1.19554 2.73924  14
   5   5  12 2.52707 2.07185   9
   6   5  12 4.76108 3.36717  15
   6   5  12 -1.6987 2.33378  14
   6   5  12 -1.0293 3.19426  13
   6   5  12 2.50356 1.72166  10
   7   5  12 6.65558 4.07619  14
   7   5  12 4.60110 2.99241  15
   7   5  12 4.91582 2.77719  13
   8   5  12 8.22860 3.27359  14
   8   5  12 7.70698 2.47119  13
   4  -6 -12 1.58010 3.66938  18
   4  -6 -12 -1.8529 1.12886   9
   4  -6 -12 -2.0053 1.56092  10
   3  -6 -12 19.9114 3.47298  10
   3  -6 -12 20.8483 3.98463   9
   3  -6 -12 20.3533 4.51044  18
   2  -6 -12 2.65308 3.15640  18
   2  -6 -12 -0.6056 3.34390   9
   2  -6 -12 4.03914 2.47331   8
   1  -6 -12 21.6316 3.40885   8
   0  -6 -12 36.5848 5.08553   8
   0   6  12 33.6119 4.77608   8
   1   6  12 37.9332 5.49979   8
   2   6  12 93.4735 8.60608   9
   2   6  12 106.140 8.20275   8
   3   6  12 3.53310 2.68570   9
   3   6  12 0.46737 2.68628  10
   3   6  12 4.03565 1.87963   8
   3   6  12 -0.4220 2.27252  14
   4   6  12 45.2274 7.27937  14
   4   6  12 38.9130 11.7237   5
   4   6  12 45.3239 5.61917  10
   4   6  12 43.7633 5.34024   9
   5   6  12 2.21254 1.72418  10
   5   6  12 0.08537 2.39972  13
   5   6  12 -0.2500 1.66727   9
   5   6  12 -4.0216 3.42328  14
   6   6  12 0.16549 3.77253  14
   6   6  12 3.43003 1.76751  10
   6   6  12 3.61100 3.44831  13
   7   6  12 21.3799 3.88843  13
   7   6  12 18.8556 4.51030  14
   8   6  12 4.16208 2.96857  14
   8   6  12 0.75957 2.09614  13
   3  -7 -12 69.5007 6.58826   9
   3  -7 -12 67.3937 7.39278  18
   2  -7 -12 7.88529 2.28105   8
   2  -7 -12 7.26307 3.45436  18
   2  -7 -12 9.29670 3.65599   9
   1  -7 -12 3.18434 2.81939   8
   0  -7 -12 52.2837 6.79163   8
   0   7  12 54.7043 6.61263   8
   1   7  12 18.1953 3.56704   8
   2   7  12 29.7452 4.56305   8
   2   7  12 32.7857 5.00981   9
   3   7  12 4.09287 1.84132   8
   3   7  12 4.12370 2.20449  10
   3   7  12 2.02465 3.42955  14
   3   7  12 8.93762 3.23109   9
   4   7  12 3.02079 2.90732  14
   4   7  12 6.15795 2.87540  10
   4   7  12 2.64634 2.54194   9
   5   7  12 2.89353 2.10465   9
   5   7  12 -0.7526 4.18309  14
   5   7  12 0.44234 3.10620  13
   5   7  12 1.82675 1.77512  10
   6   7  12 26.2606 3.70628  10
   6   7  12 21.9661 4.64153  13
   6   7  12 21.3902 5.55645  14
   7   7  12 5.06505 3.47222  14
   7   7  12 9.57322 3.51806  13
   8   7  12 4.83021 2.77375  14
   8   7  12 3.72027 2.09435  13
   2  -8 -12 -6.1286 3.67389  18
   2  -8 -12 -0.1572 2.11060   9
   1  -8 -12 11.6240 2.91233   8
   0  -8 -12 -4.5424 1.83910   8
   0   8  12 2.66240 1.99962   8
   1   8  12 10.0641 2.46890   8
   2   8  12 4.28248 3.30995   9
   2   8  12 -1.9392 2.05647   8
   3   8  12 -0.7255 3.21036  14
   3   8  12 1.91836 1.52707   8
   3   8  12 0.63142 1.96300   9
   3   8  12 -5.2575 2.80759  10
   4   8  12 5.09487 3.91189  14
   4   8  12 3.90008 2.22644  10
   4   8  12 6.34200 2.16725   9
   5   8  12 124.094 12.4680  14
   5   8  12 138.751 10.2285  10
   5   8  12 130.150 9.45299   9
   6   8  12 24.7622 4.90685  14
   6   8  12 19.1222 4.14366  13
   6   8  12 24.9834 3.61415  10
   7   8  12 2.89903 2.78640  14
   7   8  12 -1.0241 1.93378  13
   8   8  12 1.35587 2.15258  14
   8   8  12 -1.5517 1.76470  13
   1  -9 -12 3.12524 2.48922   9
   1  -9 -12 4.78232 1.49448   8
  -1   9  12 2.17433 1.65865   8
   0  -9 -12 5.13886 2.78878   8
   0   9  12 8.05231 2.03145   8
  -1  -9 -12 44.3515 6.62532   8
   1   9  12 70.6875 5.55207   8
   2   9  12 14.2125 2.53595   8
   2   9  12 7.41125 3.38603   9
   3   9  12 -2.6294 2.97594  14
   3   9  12 0.45933 1.02778   8
   3   9  12 -5.7426 2.54766   9
   4   9  12 -3.1119 2.18229  14
   4   9  12 0.01577 1.77667  10
   4   9  12 1.53006 1.62448   9
   5   9  12 15.3032 2.02533   9
   5   9  12 11.4874 3.41290  14
   5   9  12 17.6964 3.19308  10
   6   9  12 1.51270 1.19901  10
   6   9  12 3.08231 2.78096  13
   6   9  12 3.53097 2.65469  14
   7   9  12 9.75869 2.94167  14
   7   9  12 12.8365 2.53036  13
   0 -10 -12 6.41786 2.17831   8
   0  10  12 6.86222 1.58438   8
  -1 -10 -12 1.23849 2.62713   8
   1  10  12 -0.7413 1.63438   8
   2  10  12 5.08644 2.55852  14
   2  10  12 7.74407 1.59407   8
   2  10  12 5.93581 2.23913   9
   3  10  12 1.56082 2.47520   9
   3  10  12 -2.2565 1.98194  14
   4  10  12 65.0895 7.68061  14
   4  10  12 95.3270 6.64317   9
   4  10  12 75.4430 6.64798  10
   5  10  12 6.26536 1.95777  10
   5  10  12 8.44592 2.80806  14
   6  10  12 21.7355 2.32978  10
   6  10  12 26.9626 4.04475  14
   2  11  12 4.77237 1.99419  14
   2  11  12 5.71115 2.43235   9
   3  11  12 -0.8821 1.31657   9
   3  11  12 1.27707 1.85862  14
   4  11  12 17.8238 3.31144  14
   4  11  12 15.5996 1.72724   9
   4  11  12 12.5013 2.20153  10
   5  11  12 20.6010 3.02627  10
   1   8 -13 8.21654 1.09923   8
   1   8 -13 9.61463 2.33973  12
  -1  -8  13 8.52233 1.87705   8
   4   7 -13 -2.2381 1.81685  12
   3   7 -13 0.79850 1.47430   9
   3   7 -13 1.66896 2.28357  12
   2   7 -13 3.70788 2.00446   9
   2   7 -13 6.01939 2.69836  12
   2   7 -13 3.22949 0.88067   8
   1   7 -13 5.71639 1.50457   8
  -1  -7  13 10.5207 2.29210   8
   0   7 -13 66.2745 5.52648   8
   0  -7  13 56.5160 5.39494   8
  -1   7 -13 71.2526 5.78762   8
   1  -7  13 70.5460 5.26485   8
   1  -7  13 72.1676 6.65954   9
   1  -7  13 81.9100 8.61191  16
   2  -7  13 0.94919 2.53212  16
   2  -7  13 2.26338 1.66065   9
   5   6 -13 38.0461 3.36837  10
   4   6 -13 5.46671 3.51598  12
   4   6 -13 11.5940 1.95414   9
   4   6 -13 11.2858 2.25920  10
   3   6 -13 45.1081 4.57013   9
   3   6 -13 34.7369 6.44822  12
   2   6 -13 29.4732 4.02552   9
   1   6 -13 25.8508 3.68949   8
  -1  -6  13 21.9067 3.44207   8
   0   6 -13 36.8948 4.38281   8
   0  -6  13 22.7296 3.43126   8
   1  -6  13 5.60903 2.49718   8
   2  -6  13 35.5036 5.55506   9
   2  -6  13 37.2191 6.00240  16
   2  -6  13 37.2599 3.15431   8
   3  -6  13 20.3573 3.02030   9
   3  -6  13 25.7438 4.66184  16
   5   5 -13 9.66225 2.98623  11
   5   5 -13 21.0384 3.20686  10
   4   5 -13 11.0460 2.75944  11
   4   5 -13 15.0065 3.28917  12
   4   5 -13 18.6119 2.78788  10
   4   5 -13 22.3612 3.34429   9
   3   5 -13 17.5772 3.42777   9
   3   5 -13 20.4599 3.97928  12
   2   5 -13 2.70854 1.70887   8
   2   5 -13 -0.5301 1.91507   9
   1   5 -13 3.79145 2.28087   8
   0   5 -13 10.7984 3.14596   8
   0  -5  13 17.9131 3.18401   8
   1  -5  13 9.51968 2.34037   8
   2  -5  13 7.62107 3.62434   9
   2  -5  13 1.22413 1.90595   8
   3  -5  13 80.7020 9.15154  16
   3  -5  13 95.7844 7.92804   9
   3  -5  13 78.6492 7.82827  10
   4  -5  13 85.0800 6.34072   9
   4  -5  13 92.5298 7.03558  10
   4  -5  13 90.5263 9.05547  16
   5   4 -13 0.94889 2.10766  11
   5   4 -13 2.04545 1.53444  10
   4   4 -13 1.13986 2.31872  11
   4   4 -13 2.59556 1.58163   9
   4   4 -13 0.69362 2.33533  12
   4   4 -13 5.18986 2.05441  10
   3   4 -13 26.2236 4.33047  11
   3   4 -13 41.7594 6.61361  12
   3   4 -13 28.9980 2.90455   8
   2   4 -13 22.2847 3.13357   8
   2   4 -13 21.9686 4.13812   9
   1   4 -13 1.82724 1.79033   8
   0   4 -13 1.63125 1.98914   8
   0  -4  13 -2.5927 2.99129   8
   1  -4  13 9.85177 2.54587   8
   2  -4  13 1.13667 1.61440   8
   2  -4  13 1.49083 2.51027   9
   3  -4  13 -3.1068 3.12738  16
   3  -4  13 -2.4136 3.04082   9
   3  -4  13 3.72292 2.21732  10
   3  -4  13 -0.2010 0.68674   8
   4  -4  13 2.80524 2.30533   9
   4  -4  13 10.5364 4.93717  16
   4  -4  13 5.68128 3.03110  10
   5  -4  13 2.36083 1.49697  10
   5  -4  13 -0.1001 3.82886  16
   6   3 -13 1.06838 1.06406  10
   6   3 -13 2.72231 2.26024  11
   5   3 -13 87.6644 8.05910  11
   5   3 -13 83.3698 6.65069  10
   4   3 -13 82.3556 7.22314  10
   4   3 -13 90.7184 8.36328  11
   3   3 -13 2.83509 2.84808  10
   3   3 -13 2.77514 1.44174   8
   3   3 -13 4.42256 2.26043   9
   3   3 -13 5.30008 3.41321  11
   2   3 -13 11.1263 3.73015   9
   2   3 -13 15.6972 2.81472   8
   2   3 -13 14.6116 3.65828  11
   1   3 -13 0.66557 2.74306  11
   1   3 -13 2.65615 2.55756   8
   0   3 -13 197.258 14.2246   8
   0  -3  13 200.757 14.3012   8
   1  -3  13 41.4824 5.93902   8
   2  -3  13 151.928 10.8542   8
   2  -3  13 151.258 12.5992   9
   3  -3  13 23.3242 3.03724   8
   3  -3  13 23.1014 3.77118  10
   3  -3  13 21.0321 3.74532   9
   4  -3  13 3.23068 2.13357  10
   4  -3  13 3.93600 3.50863  16
   4  -3  13 4.91704 2.80015   9
   5  -3  13 2.95942 2.38181  10
   5  -3  13 5.45656 4.84864  16
   6  -3  13 -0.6861 2.46729  16
   6  -3  13 5.35810 1.34273  10
   6   2 -13 5.31712 2.43980  11
   6   2 -13 4.72007 1.37606  10
   5   2 -13 8.08356 3.65480  11
   5   2 -13 5.48836 1.87275  10
   4   2 -13 -1.3643 2.05403  11
   4   2 -13 -1.7839 1.60862   9
   4   2 -13 0.29704 1.78187  10
   3   2 -13 3.38679 1.73573   8
   3   2 -13 0.96035 2.15999   9
   3   2 -13 2.20227 2.37801  11
   3   2 -13 -2.1612 2.74285  10
   2   2 -13 88.5658 6.76837   8
   2   2 -13 74.5495 8.36183   9
   1   2 -13 -6.0985 8.44546   4
   1   2 -13 13.3041 3.15124   8
   0   2 -13 43.4696 9.29150   4
   0  -2  13 50.9999 6.36358   8
   0  -2  13 48.4514 15.0925   6
   1  -2  13 91.9689 16.5411   6
   2  -2  13 18.4148 14.6123   6
   2  -2  13 3.30779 2.62008   8
   2  -2  13 8.46475 2.93350   9
   2  -2  13 3.90415 3.90018  15
   3  -2  13 6.31051 4.42277  15
   3  -2  13 2.01934 1.80078   8
   3  -2  13 -0.0099 2.63367  10
   3  -2  13 1.25682 2.94225   9
   4  -2  13 -6.7551 3.96050  15
   4  -2  13 6.01496 5.05600  16
   4  -2  13 1.25057 2.51107  10
   4  -2  13 4.41062 2.99738   9
   5  -2  13 -0.3317 2.91265  15
   5  -2  13 2.30647 2.25758  10
   5  -2  13 6.58756 3.70077  16
   6  -2  13 -0.1290 2.60614  15
   6  -2  13 2.90787 4.16279  16
   6  -2  13 3.74458 1.80313  10
   6   1 -13 28.1774 2.55504  10
   5   1 -13 14.2450 3.59195  11
   5   1 -13 20.5397 3.19774  10
   4   1 -13 11.7603 3.01215  10
   4   1 -13 7.72821 3.11397  11
   4   1 -13 10.0539 3.05533   9
   3   1 -13 1.13294 3.09810   9
   3   1 -13 -0.5841 2.79427  10
   3   1 -13 -1.8284 1.42321   8
   3   1 -13 1.37813 3.41853  11
   2   1 -13 90.4170 7.17657   8
   2   1 -13 96.1537 9.02664   9
   2   1 -13 84.7409 13.9777   4
   1   1 -13 492.502 39.9851   4
   1   1 -13 477.261 30.8834   8
   0   1 -13 1.51493 5.13038   4
   0  -1  13 2.95965 2.95757   8
   0  -1  13 10.0365 8.19222   6
   1  -1  13 -2.0253 2.34191   8
   1  -1  13 -2.4910 7.61541   6
   2  -1  13 5.63418 8.37781   3
   2  -1  13 9.19971 2.91152   8
   2  -1  13 -1.5247 12.3768   2
   2  -1  13 11.4761 3.67448   9
   2  -1  13 11.4853 12.0446   6
   2  -1  13 6.86891 4.46989  15
   3  -1  13 83.2327 6.31905   8
   3  -1  13 62.5043 6.65173  10
   3  -1  13 78.4620 8.92982  15
   3  -1  13 72.4062 6.98728   9
   3  -1  13 75.5071 16.2044   6
   4  -1  13 44.3362 5.72270  10
   4  -1  13 38.0930 6.74083  15
   4  -1  13 49.3499 6.05412   9
   4  -1  13 49.6127 7.56040  16
   5  -1  13 1.44832 4.61756  15
   5  -1  13 3.30698 1.62458   9
   5  -1  13 3.15781 1.91850  10
   5  -1  13 10.1130 3.88303  16
   6  -1  13 2.14757 3.09583  16
   6  -1  13 5.05550 3.61569  15
   6  -1  13 6.59892 2.08441  10
   7  -1  13 -1.0083 2.32733  16
   7  -1  13 3.42262 2.73038  15
   6   0 -13 1.67836 2.01011  11
   6   0 -13 1.51683 1.22296  10
   5   0 -13 246.041 16.4422  10
   5   0 -13 238.293 18.8790  11
   4   0 -13 10.5943 2.61973  10
   4   0 -13 7.49583 3.37976  11
   4   0 -13 10.6147 2.53561   9
   3   0 -13 28.0641 4.68433  10
   3   0 -13 41.5684 4.01673   8
   3   0 -13 34.3121 4.89487   9
   2   0 -13 46.1293 11.0363   4
   2   0 -13 51.7731 5.52645   8
   2   0 -13 46.7412 6.54565   9
   1   0 -13 5.91944 2.78754   8
   1   0 -13 3.88303 8.86575   4
   1   0  13 1.86878 9.97093   6
   1   0  13 0.77720 2.25407   8
   2   0  13 94.8467 16.7578   2
   2   0  13 76.8337 16.4853   6
   2   0  13 94.0330 8.37734   9
   2   0  13 40.2476 12.1260   3
   2   0  13 90.6634 7.25305   8
   3   0  13 -5.3530 9.98676   2
   3   0  13 -2.4907 1.76318   8
   3   0  13 14.7356 9.24542   6
   3   0  13 2.03990 3.02023   9
   3   0  13 3.80911 2.60734  10
   3   0  13 0.86253 2.90650  15
   4   0  13 26.4217 5.95514  16
   4   0  13 30.7502 6.43366  15
   4   0  13 41.1168 4.50943  10
   4   0  13 36.2166 5.23286   9
   5   0  13 29.1962 4.08436  10
   5   0  13 13.5157 2.52026   9
   5   0  13 18.2560 5.77836  15
   5   0  13 16.6041 5.09103  16
   6   0  13 45.7666 7.89508  16
   6   0  13 55.6074 4.90724  10
   6   0  13 46.4622 5.63847  14
   6   0  13 54.3374 7.49290  15
   7   0  13 8.23341 3.54501  15
   7   0  13 12.7687 3.09939  14
   6  -1 -13 3.20628 0.99073  10
   5  -1 -13 9.60184 2.18491  10
   5  -1 -13 10.4459 3.04252  11
   5  -1 -13 2.80760 2.43410  18
   4  -1 -13 2.64334 2.51606   9
   4  -1 -13 -0.4817 2.16592  18
   4  -1 -13 -0.2686 2.70656  11
   4  -1 -13 -0.0502 1.84414  10
   3  -1 -13 4.39489 1.86745   8
   3  -1 -13 5.47304 2.39745  10
   3  -1 -13 3.45529 3.16646   9
   2  -1 -13 3.47505 2.44512   8
   2  -1 -13 -3.9430 9.39918   4
   2  -1 -13 0.34054 3.22511   9
   1  -1 -13 -1.4496 1.83384   8
   1   1  13 1.26845 2.24742   8
   2   1  13 -0.4997 1.36542   8
   2   1  13 -3.2943 9.87951   2
   2   1  13 0.05904 2.98095   9
   2   1  13 0.03378 10.0129   6
   2   1  13 -9.1522 6.59779   3
   3   1  13 76.2087 17.7285   6
   3   1  13 84.2829 7.07298  10
   3   1  13 83.8019 7.85067   9
   3   1  13 48.7341 11.6828   3
   3   1  13 88.9651 10.4676  15
   3   1  13 78.3253 15.2053   2
   4   1  13 2.23389 2.47374  10
   4   1  13 2.54386 2.49879   9
   4   1  13 0.42134 3.15552  15
   4   1  13 -12.535 9.65936   6
   5   1  13 35.8661 7.63172  15
   5   1  13 38.1879 6.46324  14
   5   1  13 41.6183 5.04282  10
   5   1  13 45.5206 4.73724   9
   6   1  13 1.85639 1.81586  10
   6   1  13 -1.4142 3.17738  14
   6   1  13 -0.2578 3.21338  15
   7   1  13 -0.0690 3.02557  15
   7   1  13 0.37653 2.05385  14
   8   1  13 0.96821 2.65436  15
   8   1  13 2.31124 1.90254  14
   5  -2 -13 4.58948 1.77233  10
   5  -2 -13 4.17315 2.51573  18
   5  -2 -13 3.19465 2.35941  11
   4  -2 -13 8.27883 2.30432   9
   4  -2 -13 11.9363 2.58585  10
   4  -2 -13 10.1412 3.91226  18
   4  -2 -13 4.98606 4.06309  11
   3  -2 -13 -1.4838 3.24994  18
   3  -2 -13 5.54834 1.81027   8
   3  -2 -13 4.73964 2.46674   9
   3  -2 -13 4.80112 3.20793  10
   2  -2 -13 3.43433 10.6747   4
   2  -2 -13 9.72264 2.81189   8
   2  -2 -13 9.87162 3.79220   9
   1  -2 -13 90.3562 8.29612   8
   1   2  13 1.82781 2.25444   8
   2   2  13 13.9672 10.5828   2
   2   2  13 9.26371 9.40766   6
   2   2  13 14.1081 3.73734   9
   2   2  13 6.37006 1.86933   8
   2   2  13 8.26468 7.43143   3
   3   2  13 15.1948 3.15282   9
   3   2  13 19.5527 2.76225   8
   3   2  13 5.77767 7.01929   2
   3   2  13 16.5652 3.64160  10
   3   2  13 9.73269 7.55236   3
   3   2  13 15.4566 12.1976   6
   4   2  13 5.02155 2.08255   9
   4   2  13 6.65568 2.20641  10
   4   2  13 4.65770 4.90783  15
   4   2  13 2.07715 9.49839   6
   4   2  13 2.05059 2.31202  14
   5   2  13 259.108 18.4343  10
   5   2  13 281.622 22.3866  13
   5   2  13 255.607 21.8681  14
   5   2  13 316.560 24.6314  15
   6   2  13 9.86536 3.92464  14
   6   2  13 13.2622 2.49769  10
   6   2  13 14.8326 5.95978  15
   7   2  13 -0.7718 3.36772  15
   7   2  13 1.63322 2.28025  14
   8   2  13 8.59274 2.34794  14
   8   2  13 8.64208 3.33835  15
   5  -3 -13 45.4104 4.00522  10
   5  -3 -13 35.7888 4.94890  18
   4  -3 -13 -0.9043 2.24871   9
   4  -3 -13 5.54835 2.91503  18
   4  -3 -13 -0.6585 1.81830  10
   4  -3 -13 -2.5434 2.19585  11
   3  -3 -13 4.30848 3.59123  18
   3  -3 -13 0.35186 2.22104   9
   3  -3 -13 -1.0439 2.90231  10
   3  -3 -13 1.05025 1.83640   8
   2  -3 -13 24.3042 3.60177   8
   2  -3 -13 16.9372 3.70591  18
   2  -3 -13 22.9174 3.92734   9
   1  -3 -13 4.49389 2.41727   8
   1   3  13 4.63405 2.65466   8
   2   3  13 50.7611 14.3314   2
   2   3  13 57.3720 12.4687   6
   2   3  13 48.1936 6.37011  14
   2   3  13 55.7339 5.50618   8
   2   3  13 59.5656 6.88116   9
   2   3  13 37.6361 10.5953   3
   3   3  13 3.49563 1.96684  10
   3   3  13 -0.2960 1.71550   8
   3   3  13 -0.7752 9.34486   2
   3   3  13 1.25054 7.48325   6
   3   3  13 -0.7160 2.60803   9
   3   3  13 -0.2947 2.72089  14
   3   3  13 -3.3270 6.26636   3
   4   3  13 48.0010 5.55433   9
   4   3  13 24.6106 11.4461   5
   4   3  13 46.5744 8.28431  15
   4   3  13 45.1161 4.89885  10
   4   3  13 44.0227 5.85610  14
   4   3  13 42.2986 17.0664   6
   5   3  13 113.738 11.8186  15
   5   3  13 92.3084 7.95430  10
   5   3  13 85.3657 9.05608  13
   5   3  13 100.158 7.64774   9
   5   3  13 100.766 10.2718  14
   6   3  13 23.5230 4.46064  13
   6   3  13 21.1822 6.77179  15
   6   3  13 21.8649 3.38232  10
   6   3  13 22.1133 4.28563  14
   7   3  13 3.46544 4.98467  15
   7   3  13 1.49374 2.26810  13
   7   3  13 1.92821 2.55252  14
   8   3  13 0.22326 2.94709  15
   8   3  13 1.34695 2.01292  14
   5  -4 -13 18.1026 3.61196  18
   5  -4 -13 34.5789 3.47647  10
   4  -4 -13 11.0641 2.51798   9
   4  -4 -13 13.1802 3.57862  18
   4  -4 -13 12.7106 2.74598  10
   3  -4 -13 11.2789 2.96860  10
   3  -4 -13 13.7096 4.68874  18
   3  -4 -13 13.5030 3.78642   9
   3  -4 -13 21.2541 3.62618  11
   3  -4 -13 20.6143 2.56529   8
   2  -4 -13 3.84138 2.97805  18
   2  -4 -13 0.80603 2.44924   9
   2  -4 -13 -0.9689 2.49669   8
   1  -4 -13 11.9091 2.77596   8
   0  -4 -13 31.9248 4.96146   8
   0   4  13 39.9030 6.50053   8
   1   4  13 10.2972 3.06878   8
   2   4  13 72.0346 6.44328   8
   2   4  13 75.0396 16.5947   2
   2   4  13 73.9748 7.62249   9
   2   4  13 76.4633 7.90036  14
   2   4  13 33.2002 11.4598   3
   3   4  13 41.5830 6.05682  10
   3   4  13 49.9240 4.56926   8
   3   4  13 44.9468 13.1400   2
   3   4  13 43.1196 6.62124  14
   3   4  13 43.6690 5.19499   9
   3   4  13 47.2184 15.4835   6
   4   4  13 137.690 23.7372   5
   4   4  13 197.446 18.2370  15
   4   4  13 186.784 26.8065   6
   4   4  13 196.266 16.6187  14
   4   4  13 202.113 14.2654  10
   4   4  13 204.890 14.1830   9
   5   4  13 26.5427 3.38831   9
   5   4  13 22.5517 4.94670  14
   5   4  13 26.2938 4.22245  10
   5   4  13 16.0828 6.07176  15
   6   4  13 13.5732 2.43879  10
   6   4  13 7.44769 5.11351  15
   6   4  13 13.3459 3.15575  13
   6   4  13 3.35972 3.85623  14
   7   4  13 11.4198 3.93595  14
   7   4  13 12.2081 3.76069  13
   7   4  13 6.45880 5.04150  15
   8   4  13 0.42686 2.10268  14
   8   4  13 3.56926 2.72713  15
   4  -5 -13 11.5081 1.97940   9
   4  -5 -13 17.9553 3.21895  10
   4  -5 -13 13.8766 3.30360  18
   3  -5 -13 5.59633 3.16357   9
   3  -5 -13 3.97036 3.04733  18
   3  -5 -13 -0.0423 2.09808  10
   2  -5 -13 17.0244 4.10021  18
   2  -5 -13 13.2590 3.46883   9
   2  -5 -13 20.1797 3.30616   8
   1  -5 -13 5.73500 3.28146   8
   0  -5 -13 0.30934 2.12882   8
   0   5  13 5.85081 2.93617   8
   1   5  13 58.5187 6.42752   8
   2   5  13 1.54890 3.06658  14
   2   5  13 -0.2687 2.97799   9
   2   5  13 1.27600 1.65038   8
   3   5  13 68.0814 5.78750   8
   3   5  13 64.5746 8.10805  14
   3   5  13 72.1117 6.64531   9
   3   5  13 59.2599 14.3405   6
   4   5  13 11.3873 3.15930   9
   4   5  13 18.3439 4.59255  14
   4   5  13 17.7943 3.51774  10
   4   5  13 16.4344 9.85120   5
   4   5  13 17.1944 5.24921  15
   5   5  13 11.2613 2.41614   9
   5   5  13 3.91700 2.53357  10
   5   5  13 3.11405 3.44944  15
   5   5  13 12.8983 4.21362  14
   6   5  13 4.41496 3.31591  15
   6   5  13 7.35383 3.16111  14
   6   5  13 9.90591 3.39478  13
   6   5  13 3.60138 1.81709  10
   7   5  13 4.70534 3.13256  13
   7   5  13 -0.2032 2.63228  14
   7   5  13 0.13726 2.86063  15
   8   5  13 8.43281 2.43547  13
   8   5  13 16.5904 3.42424  14
   4  -6 -13 1.80039 2.24941  18
   3  -6 -13 -1.0065 2.60618  18
   3  -6 -13 3.88971 2.02205   9
   2  -6 -13 -4.0063 3.20406   9
   2  -6 -13 -0.3896 2.71078  18
   2  -6 -13 1.74466 1.53080   8
   1  -6 -13 15.4651 2.97727   8
   0  -6 -13 -1.2647 2.16565   8
   0   6  13 0.04094 2.82544   8
   1   6  13 37.1774 4.66401   8
   2   6  13 10.8737 3.64407   9
   2   6  13 10.1577 2.78863   8
   3   6  13 9.14574 2.54947   9
   3   6  13 7.03561 2.95983  14
   3   6  13 4.90185 2.38587  10
   3   6  13 9.52400 2.11652   8
   4   6  13 8.87588 3.21214  14
   4   6  13 -0.2293 1.57576  10
   4   6  13 5.21160 2.56389   9
   4   6  13 8.79114 3.91812  15
   5   6  13 3.77535 2.16266   9
   5   6  13 6.72103 2.73478  10
   5   6  13 11.4753 4.21067  14
   6   6  13 24.2953 3.00965  10
   6   6  13 15.7131 4.74115  14
   6   6  13 14.9689 3.97860  13
   7   6  13 33.6596 5.49489  14
   7   6  13 25.0400 5.16763  13
   8   6  13 2.59499 1.74778  13
   8   6  13 1.73863 2.31073  14
   3  -7 -13 6.06071 1.74494   9
   3  -7 -13 3.62135 2.72808  18
   2  -7 -13 0.34359 1.27332   8
   2  -7 -13 -6.8222 3.05394   9
   2  -7 -13 3.07659 3.12129  18
   1  -7 -13 39.0428 5.56286   8
   0  -7 -13 3.35298 3.13258   8
   0   7  13 1.71859 2.72963   8
   1   7  13 1.35305 2.64975   8
   2   7  13 121.602 11.5115   9
   2   7  13 151.710 10.3395   8
   3   7  13 0.79459 2.14201  10
   3   7  13 1.08489 2.38516  14
   3   7  13 3.89391 1.70766   8
   3   7  13 5.40700 3.00742   9
   4   7  13 -2.2164 2.16976  14
   4   7  13 -2.2664 2.42164  10
   4   7  13 -2.6810 2.34641   9
   5   7  13 4.64415 1.96835   9
   5   7  13 5.21880 3.03459  14
   5   7  13 4.33000 2.53988  10
   6   7  13 5.11200 4.03621  14
   6   7  13 0.97536 2.80402  13
   6   7  13 3.59179 1.85416  10
   7   7  13 1.58028 2.70418  13
   7   7  13 3.05185 3.02360  14
   8   7  13 10.7893 2.98506  14
   2  -8 -13 44.6665 4.75484   9
   1  -8 -13 42.2962 4.71333   8
  -1   8  13 30.0385 4.21332   8
   0  -8 -13 9.57738 2.52451   8
   0   8  13 5.23669 2.07249   8
   1   8  13 -0.8987 1.52319   8
   2   8  13 0.45349 2.09603   8
   2   8  13 2.30213 2.28269   9
   3   8  13 -2.3954 2.11579  14
   3   8  13 -0.5959 2.85619  10
   3   8  13 0.57314 1.98037   9
   3   8  13 2.55590 1.27224   8
   4   8  13 5.69251 2.93287  14
   4   8  13 -0.6006 2.32316   9
   4   8  13 2.88539 2.78763  10
   5   8  13 77.7086 7.83070  10
   5   8  13 104.333 6.89382   9
   5   8  13 95.0847 10.3982  14
   6   8  13 4.88048 2.93947  14
   6   8  13 3.15380 1.80452  10
   7   8  13 1.71582 2.64829  14
   7   8  13 3.09204 1.84094  13
   1  -9 -13 8.77771 1.55038   8
   1  -9 -13 10.7249 2.90745  18
  -1   9  13 8.34128 1.87963   8
   0  -9 -13 5.49275 2.54738   8
   0   9  13 3.35471 1.60486   8
  -1  -9 -13 2.42121 2.89849   8
   1   9  13 2.82592 1.55845   8
   2   9  13 8.89379 3.20436   9
   2   9  13 6.74363 1.61502   8
   2   9  13 10.3088 3.02144  14
   3   9  13 0.57083 2.20583  14
   3   9  13 5.45254 2.18605   9
   4   9  13 17.5005 4.39178  14
   4   9  13 23.0707 3.10422   9
   4   9  13 16.3242 2.92056  10
   5   9  13 3.73521 2.18469  10
   5   9  13 -1.0601 2.32538  14
   6   9  13 58.3415 6.56191  14
   6   9  13 59.1144 4.59069  10
  -1 -10 -13 27.1295 4.59045   8
   1  10  13 35.4446 4.43552  14
   1  10  13 30.4855 3.14402   8
   2  10  13 98.6999 8.68043  14
   2  10  13 88.3178 7.46190   9
   3  10  13 4.40584 2.49802   9
   3  10  13 7.82122 2.55456  14
   4  10  13 0.88433 2.28260  10
   4  10  13 -1.8466 2.04256  14
   4  10  13 -3.7333 1.54502   9
   5  10  13 32.9243 4.05289  10
   5  10  13 32.5345 4.63632  14
   6  10  13 1.54726 0.93772  10
   6  10  13 1.09969 1.92637  14
   2   7 -14 3.82123 2.18560  12
   2   7 -14 2.59572 1.65522   9
   1   7 -14 30.7808 2.73022   8
   1   7 -14 42.0318 5.25541  12
  -1  -7  14 29.2837 3.71277   8
   0   7 -14 3.19985 1.29452   8
   0  -7  14 2.51488 1.85540   8
   1  -7  14 7.74436 2.62180  16
   3   6 -14 24.2992 4.84491  12
   3   6 -14 17.3245 2.53374   9
   2   6 -14 2.21433 2.38877  12
   2   6 -14 2.49737 1.08851   8
   2   6 -14 0.69732 2.54205   9
   1   6 -14 3.44546 1.79192   8
  -1  -6  14 1.18095 2.76548   8
   0   6 -14 5.71715 1.71071   8
   0  -6  14 2.43904 2.43114   8
  -1   6 -14 1.17530 1.52964   8
   1  -6  14 -1.7558 1.73165   8
   1  -6  14 0.68904 2.29499   9
   2  -6  14 18.8543 2.80491   9
   2  -6  14 10.5706 4.15151  16
   3  -6  14 -0.8032 1.05000   9
   3  -6  14 1.59767 2.19873  16
   4   5 -14 44.4870 3.62349   9
   4   5 -14 43.4601 4.07213  10
   4   5 -14 28.9295 4.53408  12
   3   5 -14 42.0402 4.40344   9
   3   5 -14 34.6584 6.18713  12
   2   5 -14 27.6136 3.20444   8
   2   5 -14 19.4854 3.28536   9
   1   5 -14 51.3668 4.63163   8
  -1  -5  14 50.0060 5.33098   8
   0   5 -14 5.77717 1.87765   8
   0  -5  14 0.70967 2.69693   8
   1  -5  14 5.55643 2.57138   8
   2  -5  14 10.3974 3.55472  16
   2  -5  14 9.20926 3.55663   9
   2  -5  14 11.1902 1.86407   8
   3  -5  14 61.3007 7.13276  16
   3  -5  14 56.0295 5.22357   9
   4  -5  14 33.2007 3.64224  10
   5   4 -14 -1.8774 1.53766  11
   5   4 -14 2.11954 1.77714  10
   4   4 -14 6.06847 2.24885  11
   4   4 -14 5.93821 1.84332   9
   4   4 -14 6.09956 2.01145  10
   3   4 -14 1.51403 2.44311   9
   3   4 -14 4.18059 2.17802  11
   3   4 -14 4.26901 3.36677  12
   2   4 -14 8.16562 2.07786   8
   1   4 -14 127.445 9.55910   8
   0   4 -14 102.963 8.80102   8
   0  -4  14 115.993 9.52723   8
   1  -4  14 4.19805 2.78784   8
   2  -4  14 0.27512 2.35124   9
   2  -4  14 1.29813 1.95971   8
   3  -4  14 6.22078 4.38645  16
   3  -4  14 0.79006 2.91678   9
   4  -4  14 0.55864 1.82398  10
   4  -4  14 -0.7950 2.76260  16
   4  -4  14 0.51659 1.62835   9
   5  -4  14 23.9439 2.69606  10
   5  -4  14 21.2720 4.10952  16
   5   3 -14 2.01205 2.12658  11
   5   3 -14 2.29971 1.46146  10
   4   3 -14 -1.1759 3.01282  11
   4   3 -14 -1.4097 1.69089  10
   4   3 -14 0.10164 1.26175   9
   3   3 -14 -0.2070 2.15161  11
   3   3 -14 -0.2924 1.12522   8
   3   3 -14 1.96418 2.38387  12
   3   3 -14 -1.7205 2.79885   9
   2   3 -14 0.85017 3.17956   9
   2   3 -14 0.76467 1.48685   8
   2   3 -14 -0.3826 1.95085  11
   1   3 -14 23.8335 3.63629   8
   0   3 -14 82.0723 7.10902   8
   0  -3  14 85.8792 8.30904   8
   1  -3  14 4.56893 2.21755   8
   2  -3  14 1.17062 2.18016   8
   2  -3  14 -0.4245 3.16394   9
   3  -3  14 8.61654 2.46714  10
   3  -3  14 11.7790 3.08024   9
   3  -3  14 9.89349 1.41428   8
   3  -3  14 11.7025 5.01718  16
   4  -3  14 -3.3120 2.22025   9
   4  -3  14 -2.5954 2.92306  16
   4  -3  14 0.55789 1.75343  10
   5  -3  14 15.9778 2.75287  10
   5  -3  14 9.40392 4.30603  16
   5   2 -14 3.17018 2.04429  10
   5   2 -14 2.96901 2.21171  11
   4   2 -14 89.6142 8.66694  11
   4   2 -14 96.3100 7.36862   9
   4   2 -14 95.8497 7.62180  10
   3   2 -14 14.3418 3.45498  10
   3   2 -14 13.3579 1.84797   8
   3   2 -14 14.1409 3.41455  11
   3   2 -14 17.5292 3.25562   9
   2   2 -14 -3.2974 3.23786  11
   2   2 -14 3.86195 2.54999   9
   2   2 -14 2.92255 1.65500   8
   1   2 -14 -1.1950 1.69558   8
   0   2 -14 75.6639 6.81146   8
   0  -2  14 72.9689 6.86988   8
   1  -2  14 52.0023 6.65238   8
   1  -2  14 48.2804 6.85951  15
   2  -2  14 14.2124 5.19415  15
   2  -2  14 18.2437 4.31450   9
   2  -2  14 26.0904 3.63588   8
   3  -2  14 40.1783 6.13406   9
   3  -2  14 34.3806 3.63746   8
   3  -2  14 29.8765 6.17113  15
   3  -2  14 38.7119 5.52674  10
   4  -2  14 5.98011 2.69925  10
   4  -2  14 -1.1633 2.65653   9
   4  -2  14 -4.3156 4.33094  16
   4  -2  14 -0.6417 4.17274  15
   5  -2  14 11.3817 3.50651  15
   5  -2  14 11.2223 4.48024  16
   6  -2  14 -0.6169 2.25720  16
   6  -2  14 3.61604 1.11939  10
   6  -2  14 0.92321 2.34926  15
   5   1 -14 6.41280 2.27875  10
   5   1 -14 5.70939 2.59763  11
   4   1 -14 16.2883 4.21197  11
   4   1 -14 17.0966 3.06900   9
   4   1 -14 10.0786 3.20985  10
   3   1 -14 -0.4170 2.51928  11
   3   1 -14 0.64432 1.24699   8
   3   1 -14 -2.5102 2.84986   9
   3   1 -14 -0.1560 1.90287  10
   2   1 -14 148.205 12.7714   9
   2   1 -14 183.635 11.9878   8
   1   1 -14 82.4100 6.97433   8
   0   1 -14 27.0749 4.37111   8
   0   1 -14 41.0266 11.5430   4
   0  -1  14 28.2870 4.42120   8
   0  -1  14 29.0455 11.1681   6
   1  -1  14 14.0173 13.1108   6
   1  -1  14 12.4104 2.71525   8
   2  -1  14 21.5190 3.85690   9
   2  -1  14 15.2713 4.25588  15
   2  -1  14 19.1431 3.42377   8
   3  -1  14 5.11295 1.82023   8
   3  -1  14 1.04366 2.05891  10
   3  -1  14 0.10912 4.41374  15
   3  -1  14 5.11318 2.53287   9
   4  -1  14 67.0012 6.91061   9
   4  -1  14 70.0127 8.37038  16
   4  -1  14 63.9332 8.40361  15
   4  -1  14 67.5961 6.95989  10
   5  -1  14 6.60432 1.95113  10
   5  -1  14 7.25685 3.61203  15
   5  -1  14 0.74515 2.95511  16
   6  -1  14 15.1855 3.74517  15
   6  -1  14 28.5337 3.21823  10
   6  -1  14 19.9220 3.92946  16
   7  -1  14 1.44050 2.32432  15
   5   0 -14 13.7587 3.10079  11
   5   0 -14 14.1384 2.69236  10
   4   0 -14 81.5012 8.78281  11
   4   0 -14 75.7147 6.80559   9
   4   0 -14 69.7756 7.20960  10
   3   0 -14 24.5660 4.39203  10
   3   0 -14 35.0144 6.24767  11
   3   0 -14 30.8840 4.42659   9
   3   0 -14 24.1297 3.50765   8
   2   0 -14 6.26181 3.54164   9
   2   0 -14 -2.5277 2.08587   8
   1   0 -14 35.0653 5.38414   8
   1   0 -14 42.9776 10.3499   4
   0   0 -14 57.7141 6.10559   8
   0   0  14 72.8905 15.6623   6
   0   0  14 63.8882 6.13923   8
   1   0  14 34.1394 4.39635   8
   1   0  14 34.7726 14.3220   6
   2   0  14 4.91166 2.54077   9
   2   0  14 4.71188 1.85095   8
   2   0  14 -4.9197 12.0999   6
   3   0  14 13.6805 2.44076   8
   3   0  14 8.86835 2.66034  10
   3   0  14 9.59893 2.74459   9
   3   0  14 19.8369 5.22335  15
   4   0  14 2.42832 3.19387  15
   4   0  14 0.01537 2.48538  10
   4   0  14 -0.7905 2.38348   9
   4   0  14 6.51309 4.16543  16
   5   0  14 12.1690 2.26992   9
   5   0  14 18.3892 3.28985  10
   5   0  14 16.1822 4.54411  15
   6   0  14 64.3830 5.28068  10
   6   0  14 50.1723 8.58074  15
   7   0  14 2.35790 2.63591  15
   5  -1 -14 33.1623 3.38973  10
   5  -1 -14 25.7159 4.26703  11
   4  -1 -14 85.3803 8.26453  11
   4  -1 -14 84.6453 6.78198   9
   4  -1 -14 78.6214 7.01795  10
   3  -1 -14 81.9692 8.08627  11
   3  -1 -14 76.1529 7.65335  10
   3  -1 -14 77.6263 6.98546   9
   3  -1 -14 68.8227 5.58796   8
   2  -1 -14 0.19197 3.25498   9
   2  -1 -14 1.94346 2.28535   8
   1  -1 -14 -0.6490 7.36097   4
   1  -1 -14 2.76936 2.15384   8
   0  -1 -14 -0.2634 3.24544   8
   0   1  14 0.69078 2.78720   8
   1   1  14 5.95633 2.70542   8
   1   1  14 12.4848 11.3556   6
   2   1  14 42.7055 4.24543   8
   2   1  14 18.6990 9.61025   6
   2   1  14 30.5405 5.05059   9
   2   1  14 44.9180 12.6396   2
   3   1  14 169.529 15.0977  15
   3   1  14 133.398 23.1420   6
   3   1  14 134.984 11.2852  10
   3   1  14 142.604 11.6342   9
   3   1  14 140.278 10.1776   8
   4   1  14 -1.1614 2.48494   9
   4   1  14 2.59041 4.60927  15
   4   1  14 0.43538 1.94838  10
   5   1  14 13.7953 2.60899   9
   5   1  14 16.2022 4.70571  15
   5   1  14 16.6586 2.77724  10
   6   1  14 2.08672 1.77847  10
   6   1  14 9.91338 4.88580  15
   6   1  14 2.91640 2.26477  14
   7   1  14 5.44629 2.15032  14
   7   1  14 3.89961 3.37102  15
   5  -2 -14 30.1371 3.62980  10
   5  -2 -14 24.1669 3.85176  18
   4  -2 -14 2.97969 1.68969   9
   4  -2 -14 0.31220 2.69939  10
   4  -2 -14 -0.1174 2.35646  11
   3  -2 -14 5.66553 2.96542  11
   3  -2 -14 7.93308 1.53122   8
   3  -2 -14 8.52521 3.49172   9
   3  -2 -14 2.27157 2.36810  10
   2  -2 -14 2.67910 1.76470   8
   2  -2 -14 0.99028 2.32094   9
   1  -2 -14 84.2507 7.27845   8
   0  -2 -14 9.84222 2.80781   8
   0   2  14 8.00706 2.48898   8
   1   2  14 4.04585 2.01443   8
   2   2  14 12.5935 3.74353   9
   2   2  14 7.32276 2.55203   8
   2   2  14 12.4546 13.4079   2
   2   2  14 3.29632 11.0740   6
   3   2  14 11.3977 2.29818   8
   3   2  14 14.3004 13.6131   6
   3   2  14 8.40461 2.61962   9
   3   2  14 6.97235 2.47770  10
   4   2  14 71.7060 6.76421   9
   4   2  14 56.8122 6.90128  14
   4   2  14 72.5713 9.04413  15
   4   2  14 67.9451 6.21513  10
   5   2  14 387.128 31.1660  15
   5   2  14 392.390 24.4085   9
   5   2  14 384.267 24.4741  10
   5   2  14 312.065 28.2371  14
   6   2  14 13.5703 3.26965  14
   6   2  14 11.6877 4.39471  15
   6   2  14 7.59924 2.04146  10
   7   2  14 5.98326 2.33187  14
   7   2  14 7.22305 3.69087  15
   8   2  14 10.0260 3.46015  15
   5  -3 -14 6.64193 1.96675  10
   4  -3 -14 4.77819 1.60813   9
   4  -3 -14 3.06755 2.04364  10
   4  -3 -14 8.87435 3.37303  11
   4  -3 -14 4.74816 3.38997  18
   3  -3 -14 6.55510 3.32671   9
   3  -3 -14 10.5104 3.84017  18
   3  -3 -14 12.3723 2.95131  10
   3  -3 -14 13.5736 4.06644  11
   3  -3 -14 9.68127 1.28671   8
   2  -3 -14 7.66943 3.66286   9
   2  -3 -14 8.49792 2.14827   8
   1  -3 -14 -0.5417 2.81704   8
   0  -3 -14 3.45368 3.33433   8
   0   3  14 -1.4410 2.87155   8
   1   3  14 46.3029 5.03260   8
   2   3  14 24.9177 3.43784   8
   2   3  14 29.1034 10.7387   6
   2   3  14 24.6949 4.21530   9
   3   3  14 0.56679 2.11339  14
   3   3  14 2.51190 1.83236   8
   3   3  14 2.40583 2.70441  10
   3   3  14 -2.8149 2.65899   9
   3   3  14 2.80200 9.47583   6
   4   3  14 0.95048 2.09437  14
   4   3  14 -3.3034 3.13392  15
   4   3  14 1.05098 2.55340   9
   4   3  14 0.22230 1.81556  10
   5   3  14 111.844 11.4535  14
   5   3  14 129.330 9.92480  10
   5   3  14 130.430 13.6121  15
   5   3  14 136.610 9.34207   9
   6   3  14 35.7169 3.62238  10
   6   3  14 29.4313 6.20197  15
   6   3  14 36.6685 6.34409  14
   7   3  14 2.07037 3.33114  15
   7   3  14 2.33319 3.29883  14
   8   3  14 0.76697 1.78472  14
   8   3  14 0.83531 2.43343  15
   4  -4 -14 4.49898 2.47522  18
   4  -4 -14 8.03115 1.41767   9
   4  -4 -14 13.0482 2.39239  10
   3  -4 -14 37.6373 5.33060  18
   3  -4 -14 35.3814 5.74370  11
   3  -4 -14 42.2057 5.63520   9
   2  -4 -14 12.5964 3.19346   9
   2  -4 -14 6.37506 2.89147  18
   2  -4 -14 8.76452 2.55780   8
   1  -4 -14 11.3251 2.70856   8
   0  -4 -14 5.32474 3.47656   8
   0   4  14 7.03274 2.38527   8
   1   4  14 2.28965 2.55468   8
   2   4  14 74.3828 6.12492   8
   2   4  14 72.7389 7.18806   9
   2   4  14 75.0681 16.9932   6
   2   4  14 68.5319 7.45865  14
   3   4  14 62.1481 7.77492  14
   3   4  14 67.1623 18.3040   6
   3   4  14 64.0504 6.54155   9
   3   4  14 63.3141 5.56245   8
   3   4  14 73.1665 7.17615  10
   4   4  14 47.1929 5.58951   9
   4   4  14 47.8842 8.64321  15
   4   4  14 42.7124 5.90897  14
   4   4  14 41.3378 5.78807  10
   5   4  14 85.7911 6.80527   9
   5   4  14 97.6509 10.7280  15
   5   4  14 86.3569 7.19693  10
   5   4  14 86.3278 8.98896  14
   6   4  14 45.0904 8.20679  15
   6   4  14 24.4002 3.08480  10
   6   4  14 22.9634 4.07331  13
   6   4  14 25.3094 4.81219  14
   7   4  14 2.54499 4.46114  15
   7   4  14 3.90969 2.55936  14
   8   4  14 51.8976 6.01410  14
   4  -5 -14 42.6845 3.85797  10
   4  -5 -14 27.8559 4.18371  18
   3  -5 -14 51.1157 5.30574   9
   3  -5 -14 67.3314 7.36930  18
   2  -5 -14 14.0459 3.61267  18
   2  -5 -14 12.9019 2.23203   8
   2  -5 -14 21.0032 4.33083   9
   1  -5 -14 6.39974 2.91400  18
   1  -5 -14 18.8873 3.73296   8
   0  -5 -14 0.95743 3.26901   8
   0   5  14 0.53169 2.76895   8
   1   5  14 3.27012 3.11728  14
   1   5  14 -1.4646 2.47532   8
   2   5  14 49.1365 5.36343   8
   2   5  14 38.5361 5.35664   9
   2   5  14 46.7546 6.70523  14
   3   5  14 81.3061 8.12804   9
   3   5  14 79.6815 6.39171   8
   3   5  14 84.1162 7.57473  10
   3   5  14 83.2468 9.22710  14
   4   5  14 148.633 14.2171  15
   4   5  14 147.157 11.2190  10
   4   5  14 151.878 11.4827   9
   4   5  14 147.030 13.6935  14
   5   5  14 74.3093 6.38388  10
   5   5  14 63.8170 9.48212  15
   5   5  14 64.0136 5.31835   9
   5   5  14 50.3400 7.17333  14
   6   5  14 0.04799 3.49217  14
   6   5  14 1.40909 2.92313  15
   6   5  14 4.40195 1.85935  10
   7   5  14 3.12805 2.13434  13
   7   5  14 7.03891 3.80108  14
   7   5  14 2.78170 3.68298  15
   8   5  14 15.3369 3.06159  14
   3  -6 -14 -1.6052 2.17302  18
   3  -6 -14 0.34000 2.23297   9
   2  -6 -14 -0.5729 3.24378   9
   2  -6 -14 1.70400 1.19288   8
   2  -6 -14 1.99368 2.83326  18
   1  -6 -14 83.1725 6.99602   8
   1  -6 -14 84.6181 9.31195  18
   0  -6 -14 179.268 13.3201   8
   0   6  14 175.654 13.1418   8
   1   6  14 48.5132 5.12600   8
   2   6  14 7.06617 2.77908   9
   2   6  14 6.47519 2.44010   8
   2   6  14 7.13231 3.41138  14
   3   6  14 27.8330 4.64770  10
   3   6  14 21.3998 4.25394   9
   3   6  14 30.1096 4.89252  14
   3   6  14 31.9426 3.47225   8
   4   6  14 8.39233 3.19000  15
   4   6  14 8.89399 2.51781  10
   4   6  14 6.32522 3.16072  14
   4   6  14 5.71596 2.20135   9
   5   6  14 26.4698 4.50941  10
   5   6  14 22.3628 4.48175  14
   5   6  14 20.6947 4.80126  15
   5   6  14 24.6854 3.28382   9
   6   6  14 79.5261 6.41700  10
   6   6  14 76.4764 8.28012  14
   7   6  14 16.4027 3.66236  14
   8   6  14 18.3714 3.33567  14
   2  -7 -14 -1.9343 1.85731   9
   2  -7 -14 1.39203 3.62765  18
   1  -7 -14 11.8276 3.48539  18
   1  -7 -14 11.7938 2.96080   8
  -1   7  14 11.9359 3.17389   8
   0  -7 -14 23.7774 3.98707   8
   0   7  14 15.6016 3.47788   8
   1   7  14 3.16815 2.45527   8
   2   7  14 3.71886 2.14104   8
   2   7  14 1.14068 2.30388   9
   2   7  14 3.98013 2.69417  14
   3   7  14 36.5129 5.52317   9
   3   7  14 30.9553 5.17916  14
   3   7  14 23.6030 3.77870  10
   3   7  14 26.3293 2.99193   8
   4   7  14 -0.3941 2.28998   9
   4   7  14 0.60172 2.41143  14
   4   7  14 5.98393 2.86675  10
   5   7  14 66.1640 5.07847   9
   5   7  14 62.1517 7.46135  14
   5   7  14 65.3307 6.42964  10
   6   7  14 1.91072 1.75693  10
   6   7  14 -1.2948 2.57344  14
   7   7  14 28.3129 4.92933  14
   1  -8 -14 2.65094 2.54030   9
   1  -8 -14 1.85597 2.61996  18
   1  -8 -14 -0.5986 1.71181   8
  -1   8  14 -1.4255 2.20989   8
   0  -8 -14 7.67465 2.29276   8
   0   8  14 4.29892 1.87395   8
  -1  -8 -14 3.20667 3.12324   8
   1   8  14 -0.6484 1.47804   8
   2   8  14 11.2550 3.22270  14
   2   8  14 12.2077 2.04877   8
   2   8  14 15.4978 3.08126   9
   3   8  14 40.0278 5.81039   9
   3   8  14 53.5118 6.25287  14
   4   8  14 19.1263 3.21373   9
   4   8  14 21.2991 3.63948  10
   4   8  14 17.4774 4.61119  14
   5   8  14 14.8653 2.90062  10
   5   8  14 10.0434 3.16451  14
   6   8  14 40.9437 6.55099  14
   6   8  14 35.5470 3.74220  10
   7   8  14 3.79003 2.31716  14
   0  -9 -14 7.80564 2.83429  18
   0  -9 -14 18.6287 2.78537   8
   0   9  14 13.0204 1.93606   8
  -1  -9 -14 10.2580 2.98865   8
   1   9  14 6.58379 2.64613  14
   1   9  14 10.8993 2.18385   8
   2   9  14 3.37517 2.39852  14
   2   9  14 -2.3373 2.73420   9
   2   9  14 1.80570 1.25308   8
   3   9  14 13.3212 3.08543  14
   3   9  14 11.8288 2.57734   9
   4   9  14 0.15522 2.49089  10
   4   9  14 1.81270 2.25007  14
   4   9  14 -2.1407 1.76650   9
   5   9  14 14.4584 2.68458  10
   5   9  14 4.44551 2.65968  14
   6   9  14 211.708 13.6100  10
   2  10  14 -1.1859 1.56556   9
   2  10  14 -0.1207 1.93699  14
   3  10  14 4.10321 3.07933  14
   3  10  14 2.47965 1.52927   9
   4  10  14 1.21622 2.02716  14
   4  10  14 1.94155 1.64265  10
   4  10  14 4.42461 1.06032   9
   5  10  14 5.00012 1.41516  10
   5  10  14 5.73534 2.14040  14
   2   6 -15 1.14929 2.08660  12
   2   6 -15 1.39739 1.52179   9
   1   6 -15 14.7922 2.02099   8
  -1  -6  15 10.2009 2.70869   8
   0   6 -15 14.9272 2.38491   8
   0  -6  15 8.88864 1.85182   8
  -1   6 -15 22.1130 2.95298   8
   1  -6  15 19.9382 2.15401   8
   1  -6  15 22.3500 4.23241  16
   1  -6  15 20.4707 3.15441   9
   3   5 -15 3.58260 2.10581  12
   3   5 -15 0.27140 1.99379   9
   2   5 -15 31.7689 4.65575  12
   2   5 -15 33.0710 2.80260   8
   2   5 -15 32.5745 4.13266   9
   1   5 -15 -0.6909 1.20095   8
  -1  -5  15 2.39486 2.77378   8
   0   5 -15 11.4132 2.50327   8
   0  -5  15 9.87362 2.18663   8
   1  -5  15 101.134 7.42460   8
   1  -5  15 88.6162 8.11257   9
   2  -5  15 1.39328 2.01820   9
   2  -5  15 -0.4353 2.45616  16
   3  -5  15 4.14404 2.46999  16
   3  -5  15 15.0706 2.18935   9
   4   4 -15 -1.2455 0.91656   9
   4   4 -15 -0.2713 1.44570  10
   4   4 -15 -0.3448 1.82272  11
   3   4 -15 3.57059 1.68104   9
   3   4 -15 0.62025 2.09618  12
   2   4 -15 2.59267 1.53341   8
   2   4 -15 2.60242 2.73714   9
   1   4 -15 2.32609 2.13201   8
  -1  -4  15 2.56401 2.20321   8
   0   4 -15 -0.5359 1.56536   8
   0  -4  15 -0.1549 2.75546   8
   1  -4  15 21.8234 3.33645   8
   2  -4  15 -0.1361 1.35089   8
   2  -4  15 3.58876 3.21859   9
   3  -4  15 6.47353 2.27366   9
   3  -4  15 4.51585 2.85831  16
   4  -4  15 1.35435 1.67947  10
   4  -4  15 1.18854 0.69464   9
   4  -4  15 1.23283 2.51494  16
   4   3 -15 1.71111 2.19080  11
   4   3 -15 6.23875 1.91980  10
   4   3 -15 2.64134 1.18354   9
   3   3 -15 3.54185 2.18306  11
   2   3 -15 0.16260 1.95318  11
   2   3 -15 -4.5755 2.84469   9
   2   3 -15 1.15791 1.75266   8
   1   3 -15 130.593 9.44958   8
   0   3 -15 237.867 16.1478   8
   0  -3  15 230.228 16.1189   8
   1  -3  15 58.8036 6.43249   8
   2  -3  15 3.13634 1.92499   8
   2  -3  15 1.75220 2.34173   9
   3  -3  15 4.44110 2.87856   9
   3  -3  15 1.44801 2.81189  10
   3  -3  15 0.68612 2.93446  16
   4  -3  15 5.58310 2.97693  16
   4  -3  15 2.69181 1.91795   9
   5  -3  15 53.5236 6.06170  16
   5   2 -15 0.69735 1.84695  11
   5   2 -15 0.75667 1.09575  10
   4   2 -15 3.30130 2.47501  10
   4   2 -15 4.11696 2.31623  11
   3   2 -15 25.5656 4.05376   9
   3   2 -15 26.4905 4.39828  11
   2   2 -15 30.9888 3.97876   8
   2   2 -15 18.5247 4.25364  11
   2   2 -15 33.7622 5.82975   9
   1   2 -15 2.74614 1.82510   8
   1   2 -15 6.39032 3.24736  11
   0   2 -15 4.14487 2.85693   8
   1  -2  15 15.1636 3.97297  15
   1  -2  15 14.4888 2.91267   8
   2  -2  15 9.73573 3.41440   9
   2  -2  15 12.0027 3.56973  15
   2  -2  15 8.23272 2.62677   8
   3  -2  15 11.9764 3.81225  15
   3  -2  15 11.5683 1.73589   8
   3  -2  15 14.3295 2.95926  10
   3  -2  15 10.9003 4.68626  16
   3  -2  15 17.8230 3.97847   9
   4  -2  15 45.1365 5.11401   9
   4  -2  15 48.1172 5.60678  10
   4  -2  15 48.1103 6.60575  16
   4  -2  15 36.5999 7.01280  15
   5  -2  15 29.6499 4.71286  15
   5  -2  15 28.0972 4.84949  16
   5   1 -15 3.56306 2.03416  11
   5   1 -15 7.49597 1.97752  10
   4   1 -15 3.76374 2.40209  11
   4   1 -15 0.51192 1.66285  10
   4   1 -15 0.99096 1.84265   9
   3   1 -15 24.6188 4.64861  11
   3   1 -15 28.8673 4.42649   9
   2   1 -15 32.0517 5.19897  11
   2   1 -15 39.5816 4.57155   8
   2   1 -15 34.4565 5.13447   9
   1   1 -15 50.4779 5.19995   8
   0   1 -15 34.5904 4.95702   8
   0  -1  15 54.6128 5.42242   8
   2  -1  15 5.37782 2.00486   8
   2  -1  15 4.34295 3.44594   9
   2  -1  15 11.5160 3.70359  15
   3  -1  15 57.0948 4.45804   8
   3  -1  15 45.0199 6.90131  15
   3  -1  15 53.3809 6.38661   9
   3  -1  15 44.2456 6.21759  10
   3  -1  15 45.6575 6.88227  16
   4  -1  15 192.758 13.4639   9
   4  -1  15 186.899 13.2412  10
   4  -1  15 166.970 16.1761  15
   4  -1  15 186.436 16.5068  16
   5  -1  15 3.71179 2.18966  10
   5  -1  15 6.21483 3.37529  15
   5  -1  15 0.19982 3.47687  16
   6  -1  15 0.83724 1.26250  10
   6  -1  15 -3.7636 2.07050  15
   5   0 -15 7.58783 1.59417  10
   5   0 -15 9.38920 2.38131  11
   4   0 -15 5.41350 2.00624  10
   4   0 -15 3.95470 2.08932   9
   4   0 -15 2.83594 2.59147  11
   3   0 -15 -1.4596 2.98323   9
   3   0 -15 -0.6686 2.15689  11
   2   0 -15 31.0674 4.43475   8
   2   0 -15 28.3028 4.81381   9
   1   0 -15 52.6033 6.27871   8
   0   0 -15 8.77587 2.64476   8
   0   0  15 7.00231 2.48178   8
   1   0  15 2.61935 1.99919   8
   2   0  15 0.93323 3.27759   9
   3   0  15 13.5048 2.11099   8
   3   0  15 12.7057 3.91945  15
   3   0  15 8.26474 3.29497  10
   3   0  15 11.4782 3.45827   9
   4   0  15 -6.2099 4.03754  15
   4   0  15 0.05768 1.78557  10
   4   0  15 2.06248 2.57553   9
   5   0  15 36.9176 4.13083  10
   5   0  15 37.2043 6.34508  15
   6   0  15 194.151 17.2170  15
   7   0  15 6.46093 2.39173  15
   4  -1 -15 4.68271 1.97515   9
   4  -1 -15 4.73753 2.62623  10
   4  -1 -15 1.23410 2.24726  11
   3  -1 -15 46.3194 6.15713   9
   3  -1 -15 43.8198 6.76325  11
   2  -1 -15 1.61795 2.40893   9
   2  -1 -15 0.00303 2.02016   8
   1  -1 -15 30.8771 4.41609   8
   0  -1 -15 -1.3935 3.02490   8
   0   1  15 0.71889 2.66254   8
   1   1  15 25.0785 3.95046   8
   2   1  15 50.7998 4.96842   8
   2   1  15 48.0541 5.96318   9
   3   1  15 -2.0876 2.85573   9
   3   1  15 2.34397 4.28895  15
   3   1  15 1.49097 1.74100   8
   3   1  15 1.11916 2.70983  10
   4   1  15 3.69985 2.78203  10
   4   1  15 2.88729 4.32224  15
   4   1  15 1.42395 2.50680   9
   5   1  15 6.34274 4.89783  15
   5   1  15 3.36419 1.36448   9
   5   1  15 1.37050 2.22142  10
   6   1  15 14.7913 2.35803  10
   6   1  15 15.4165 4.16137  15
   7   1  15 22.3684 4.52699  15
   4  -2 -15 18.6111 3.97753  11
   4  -2 -15 19.1247 2.43594   9
   4  -2 -15 29.2610 4.45441  10
   3  -2 -15 5.89849 3.75448  11
   3  -2 -15 10.7246 3.34546   9
   2  -2 -15 45.7854 6.62834   9
   2  -2 -15 47.1358 4.46477   8
   1  -2 -15 3.06697 2.81618   8
   0  -2 -15 13.8255 3.82038   8
   0   2  15 15.4197 3.53055   8
   1   2  15 0.78973 1.80951   8
   2   2  15 1.03810 2.21926   8
   2   2  15 1.70542 3.29516   9
   3   2  15 104.602 9.34076  10
   3   2  15 127.440 10.2081   9
   3   2  15 118.149 12.0338  15
   4   2  15 109.529 8.77371   9
   4   2  15 95.2291 8.37691  10
   4   2  15 109.898 12.4824  15
   5   2  15 168.276 12.5264  10
   5   2  15 171.374 11.7981   9
   5   2  15 177.212 16.3482  15
   6   2  15 40.4308 3.69604  10
   6   2  15 34.3466 4.79679  14
   6   2  15 40.6335 8.36808  15
   7   2  15 16.7877 4.03846  15
   7   2  15 24.2708 3.42889  14
   4  -3 -15 4.85671 2.94021  11
   4  -3 -15 8.08978 2.06879  10
   4  -3 -15 3.44358 1.33879   9
   3  -3 -15 5.85057 2.65865  11
   3  -3 -15 4.07689 3.03321   9
   2  -3 -15 15.1285 3.22491   9
   2  -3 -15 12.7648 2.23819   8
   1  -3 -15 14.2727 3.48034   8
   0  -3 -15 15.1644 3.23556   8
   0   3  15 14.9450 3.01625   8
   1   3  15 63.1893 6.65552   8
   2   3  15 1.95375 3.38678   9
   2   3  15 1.62363 2.11214   8
   3   3  15 14.9863 2.43504   8
   3   3  15 10.0339 3.48231  10
   3   3  15 16.7944 3.82703   9
   4   3  15 50.2490 5.65756   9
   4   3  15 35.6801 5.49594  14
   4   3  15 53.2551 6.04147  10
   4   3  15 45.6508 7.93256  15
   5   3  15 62.9762 5.65985   9
   5   3  15 71.3435 7.52772  14
   5   3  15 82.5680 6.78513  10
   5   3  15 82.5400 9.53821  15
   6   3  15 12.4217 3.76355  14
   6   3  15 17.8985 5.42614  15
   6   3  15 18.0799 2.58956  10
   7   3  15 8.67302 2.94338  14
   7   3  15 10.1468 4.42644  15
   3  -4 -15 -1.0945 1.98742  11
   3  -4 -15 2.19425 2.70779   9
   3  -4 -15 0.37336 2.40119  18
   2  -4 -15 0.41252 3.24360   9
   2  -4 -15 0.81958 1.36461   8
   1  -4 -15 -7.0987 2.54694   8
   0  -4 -15 10.5348 2.90265   8
   0   4  15 11.2661 2.73456   8
   1   4  15 291.920 19.4522   8
   2   4  15 103.295 7.84070   8
   2   4  15 85.0714 9.20233   9
   3   4  15 9.88237 3.04950  14
   3   4  15 9.85274 3.33201   9
   3   4  15 7.82332 2.66316  10
   3   4  15 6.46560 1.87731   8
   4   4  15 71.6652 6.54207  10
   4   4  15 58.5611 7.21251  14
   4   4  15 71.4510 6.85857   9
   4   4  15 79.3655 10.2387  15
   5   4  15 24.6520 5.02227  14
   5   4  15 35.0260 3.77211   9
   5   4  15 35.9542 4.76192  10
   5   4  15 42.7962 8.43953  15
   6   4  15 26.4090 3.52397  10
   6   4  15 18.2199 4.32403  14
   6   4  15 26.2613 5.16999  15
   7   4  15 45.1329 6.24129  15
   7   4  15 41.1213 5.77307  14
   3  -5 -15 -2.6495 2.04075  18
   3  -5 -15 1.43054 2.37022   9
   2  -5 -15 5.93719 1.69373   8
   2  -5 -15 7.44790 3.49259   9
   2  -5 -15 2.68741 2.39311  18
   1  -5 -15 8.21567 3.16187   8
   0  -5 -15 -2.7920 3.02423   8
   0   5  15 5.35234 2.99181   8
   1   5  15 14.6170 2.84817   8
   2   5  15 -0.7582 2.07132   8
   2   5  15 3.36608 3.13819   9
   2   5  15 2.88311 3.19342  14
   3   5  15 30.8145 4.66221   9
   3   5  15 23.5627 4.32446  10
   3   5  15 35.7539 3.50018   8
   3   5  15 29.3303 5.86076  14
   4   5  15 55.2555 6.79377  10
   4   5  15 73.6609 9.23796  15
   4   5  15 63.6619 6.44400   9
   4   5  15 56.8190 7.68375  14
   5   5  15 55.0156 7.54958  15
   5   5  15 53.6828 4.55367   9
   5   5  15 55.2234 7.68504  14
   5   5  15 69.0876 6.27226  10
   6   5  15 24.2939 4.76023  14
   6   5  15 31.1362 3.10636  10
   6   5  15 20.7434 5.18305  15
   7   5  15 2.31693 2.18466  14
   7   5  15 4.17975 2.60061  15
   2  -6 -15 35.1205 4.82894  18
   2  -6 -15 46.9887 5.80070   9
   1  -6 -15 -0.0481 2.50756   8
   1  -6 -15 0.59915 3.49774  18
  -1   6  15 7.51871 3.14142   8
   0  -6 -15 42.0437 5.17133   8
   0   6  15 42.6642 5.73585   8
   1   6  15 3.06278 1.88674   8
   1   6  15 10.4520 3.36337  14
   2   6  15 -1.9389 2.09729  14
   2   6  15 4.60296 2.12085   8
   2   6  15 1.75976 2.37092   9
   3   6  15 6.90648 2.90967  14
   3   6  15 2.90418 3.18558  10
   3   6  15 3.51686 2.98675   9
   3   6  15 7.05234 1.50319   8
   3   6  15 4.33221 2.78832  15
   4   6  15 150.609 11.3956   9
   4   6  15 160.663 11.7608  10
   4   6  15 145.309 13.1364  14
   4   6  15 145.294 13.5131  15
   5   6  15 38.6131 3.10915   9
   5   6  15 39.2604 5.41408  14
   5   6  15 28.7768 4.01559  10
   5   6  15 23.6730 5.22320  15
   6   6  15 32.9635 6.22386  14
   6   6  15 30.7705 3.64225  10
   7   6  15 18.7932 3.71781  14
   1  -7 -15 0.13573 2.22522  18
   1  -7 -15 1.61042 1.98662   8
  -1   7  15 -1.4913 2.27773   8
   0  -7 -15 1.68394 2.32858  18
   0  -7 -15 3.07818 2.86362   8
   0   7  15 4.68628 2.50350   8
   1   7  15 44.3256 5.45548  14
   1   7  15 45.2765 4.59623   8
   2   7  15 28.4835 4.83235  14
   2   7  15 33.0005 3.45295   8
   2   7  15 24.2438 4.40495   9
   3   7  15 5.78403 2.50402   9
   3   7  15 3.42530 0.93755   8
   3   7  15 4.13222 2.65665  14
   4   7  15 4.75910 2.45380   9
   4   7  15 1.32637 2.54903  14
   4   7  15 5.94415 2.21003  10
   5   7  15 2.44494 2.44338  14
   5   7  15 1.62838 2.25204  10
   6   7  15 0.39270 3.44715  14
   6   7  15 -0.7608 1.53679  10
   1  -8 -15 13.4565 1.56463   8
  -1   8  15 8.01570 1.89078   8
   0  -8 -15 8.77598 2.71952  18
   0  -8 -15 7.18205 2.52923   8
   0   8  15 6.66765 2.16905  14
   0   8  15 10.8478 2.38646   8
  -1  -8 -15 34.0448 4.52711   8
   1   8  15 42.9053 4.44026   8
   1   8  15 37.8692 5.65276  14
   2   8  15 -1.1870 1.95179   9
   2   8  15 2.47514 1.43508   8
   2   8  15 1.21734 3.08335  14
   3   8  15 57.7270 6.31600  14
   3   8  15 48.7414 5.34556   9
   4   8  15 5.44049 3.55810  14
   4   8  15 6.53609 1.86188   9
   4   8  15 8.20277 2.89086  10
   5   8  15 12.4197 2.74270  10
   5   8  15 16.2529 4.03897  14
   6   8  15 2.07545 1.02730  10
   6   8  15 1.16696 2.32027  14
  -1  -9 -15 9.31930 2.02926   8
   1   9  15 11.5374 2.45809  14
   1   9  15 8.09596 1.33742   8
   2   9  15 12.4314 3.05165   9
   2   9  15 7.54128 2.29774  14
   3   9  15 1.87867 2.36079   9
   3   9  15 2.39583 2.33787  14
   4   9  15 72.9802 6.06684  10
   4   9  15 72.6969 7.29749  14
   4   9  15 73.2586 5.56256   9
   5   9  15 49.7553 5.52714  14
   2   5 -16 3.81470 1.66759   9
   2   5 -16 1.75720 1.83546  12
   1   5 -16 0.48619 1.33973   8
  -1  -5  16 1.74535 1.68149   8
   0   5 -16 3.57782 1.43905   8
   0  -5  16 4.20827 2.27110   8
  -1   5 -16 35.0924 3.67809   8
   1  -5  16 41.4499 3.29594   8
   1  -5  16 31.4958 4.47267   9
   2  -5  16 0.26250 2.16039  16
   2  -5  16 2.54466 1.76119   9
   3   4 -16 2.71224 1.93085   9
   2   4 -16 -0.0845 1.91897  12
   2   4 -16 1.74601 2.47717   9
   2   4 -16 0.40059 0.70216   8
   1   4 -16 4.55754 1.43088   8
  -1  -4  16 2.85242 2.10038   8
   0   4 -16 2.62206 1.63201   8
   0  -4  16 4.85807 2.58110   8
  -1   4 -16 2.15699 1.68043   8
   1  -4  16 0.02023 2.02345   8
   1  -4  16 -1.1714 2.34615   9
   2  -4  16 0.50137 1.92979   9
   2  -4  16 1.58292 2.55719  16
   3  -4  16 13.2150 2.43626   9
   3  -4  16 13.8846 2.94970  16
   3   3 -16 1.52265 1.53385   9
   3   3 -16 -0.8669 1.81056  11
   2   3 -16 2.78278 1.02159   8
   2   3 -16 0.25764 2.75829  11
   2   3 -16 4.65781 3.11260   9
   2   3 -16 -0.2873 2.05461  12
   1   3 -16 95.5082 7.24327   8
  -1  -3  16 80.2364 7.50550   8
   0   3 -16 77.1968 6.87947   8
   0  -3  16 72.5040 6.60586   8
   1  -3  16 84.5840 7.30406   8
   2  -3  16 43.7648 6.34226   9
   2  -3  16 42.1689 3.93950   8
   3  -3  16 0.56265 2.37723  16
   3  -3  16 -0.3776 1.81754   9
   4  -3  16 3.74292 2.46757  16
   4  -3  16 1.88976 1.71082  10
   4  -3  16 1.41710 0.89693   9
   4   2 -16 11.0732 1.71637   9
   4   2 -16 13.8455 2.69730  11
   4   2 -16 10.4136 2.02482  10
   3   2 -16 6.09905 2.31787  11
   3   2 -16 11.7488 2.91724   9
   2   2 -16 4.78351 1.69811   8
   2   2 -16 6.00699 3.42066   9
   2   2 -16 4.29428 3.22273  11
   1   2 -16 -0.1594 1.54162   8
   1   2 -16 -0.2489 1.96015  11
   0   2 -16 30.9640 4.25193   8
   0  -2  16 26.5342 4.47513   8
   1  -2  16 2.39832 1.86846   8
   2  -2  16 0.59859 1.88732   8
   2  -2  16 1.58889 2.80779  15
   2  -2  16 -1.0630 2.20228   9
   3  -2  16 22.5314 4.76863  16
   3  -2  16 19.7225 4.82986  15
   3  -2  16 16.6529 3.75193  10
   3  -2  16 22.5231 3.92112   9
   4  -2  16 17.8106 4.47148  15
   4  -2  16 23.7903 3.50368  10
   4  -2  16 26.6554 3.40091   9
   4  -2  16 23.4378 4.46447  16
   5  -2  16 50.4544 4.26125  10
   4   1 -16 194.704 13.1812   9
   4   1 -16 200.517 13.5481  10
   4   1 -16 212.120 15.3863  11
   3   1 -16 14.4952 3.72309  11
   3   1 -16 16.2385 2.86216   9
   2   1 -16 2.92986 1.81529   8
   2   1 -16 1.82459 2.33530   9
   2   1 -16 4.25997 2.37997  11
   1   1 -16 18.1283 3.26166   8
   0   1 -16 7.21092 3.28261   8
   0  -1  16 11.1888 2.72598   8
   1  -1  16 3.70258 2.33305   8
   1  -1  16 1.49309 3.11121  15
   2  -1  16 27.1349 5.27857  15
   2  -1  16 24.8659 4.01516   9
   2  -1  16 22.0948 3.33355   8
   3  -1  16 72.2203 8.02752  15
   3  -1  16 73.2225 6.53974   9
   3  -1  16 60.6986 7.42607  16
   3  -1  16 65.8431 7.14785  10
   4  -1  16 4.36017 2.34201   9
   4  -1  16 -2.1155 2.92606  15
   4  -1  16 5.65668 2.16152  10
   5  -1  16 36.9687 3.66911  10
   5  -1  16 28.7917 6.06093  15
   4   0 -16 4.54426 1.78755  10
   4   0 -16 7.30425 2.41329  11
   3   0 -16 -1.1544 2.14272  11
   3   0 -16 1.51436 2.04547   9
   2   0 -16 11.1625 3.12865  11
   2   0 -16 15.6088 3.32635   9
   2   0 -16 16.4097 2.58980   8
   1   0 -16 27.7732 3.90410   8
   0   0 -16 1.55864 2.10744   8
   0   0  16 2.61821 2.83695   8
   1   0  16 44.6497 5.83354   8
   2   0  16 5.28417 3.46947   9
   2   0  16 7.22489 3.64609  15
   2   0  16 8.31951 2.04480   8
   3   0  16 2.94610 2.23580   9
   3   0  16 -0.2531 2.93246  10
   3   0  16 3.26041 3.09530  15
   3   0  16 0.90504 1.15163   8
   4   0  16 1.18406 2.56006  10
   4   0  16 0.42804 1.72766   9
   4   0  16 3.47214 2.99490  15
   5   0  16 68.8333 8.25922  15
   5   0  16 81.1786 6.64298  10
   6   0  16 263.362 15.8318  10
   6   0  16 225.705 19.9465  15
   4  -1 -16 3.04390 2.08062  11
   4  -1 -16 2.95510 1.11935   9
   4  -1 -16 7.00648 1.84662  10
   3  -1 -16 -3.4166 2.66557   9
   3  -1 -16 3.36930 2.49083  11
   2  -1 -16 15.4034 2.56917   8
   2  -1 -16 12.8746 3.86994   9
   1  -1 -16 93.9398 7.51620   8
   0  -1 -16 25.9144 4.38309   8
   0   1  16 25.1684 4.26955   8
   1   1  16 25.0624 3.96101   8
   2   1  16 17.7533 3.12918   8
   2   1  16 25.7966 4.62404   9
   3   1  16 -0.4053 1.50537   8
   3   1  16 0.18668 2.96051  10
   3   1  16 1.19736 3.02497   9
   3   1  16 -0.8695 2.93377  15
   4   1  16 0.73311 1.85391   9
   4   1  16 3.67500 2.79507  10
   4   1  16 -3.4703 3.88444  15
   5   1  16 -1.2254 1.90906  10
   5   1  16 5.17858 4.52066  15
   6   1  16 109.237 7.63739  10
   6   1  16 108.965 10.4674  15
   4  -2 -16 34.6170 3.65178  10
   4  -2 -16 36.2032 4.12319  11
   3  -2 -16 -2.2871 2.50372   9
   3  -2 -16 -2.4753 2.18196  11
   2  -2 -16 15.9974 2.55795   8
   2  -2 -16 19.4491 3.38521   9
   1  -2 -16 1.93522 2.65081   8
   0  -2 -16 27.9528 3.89281   8
   0   2  16 27.7552 4.30016   8
   1   2  16 17.1626 3.47099   8
   2   2  16 130.286 11.4882   9
   2   2  16 130.222 9.46578   8
   3   2  16 126.332 11.9710  15
   3   2  16 112.093 7.93353   8
   3   2  16 111.526 9.39579  10
   3   2  16 119.976 9.60811   9
   4   2  16 15.0311 4.24543  15
   4   2  16 11.2786 2.97150   9
   4   2  16 12.3721 2.84794  10
   5   2  16 11.6013 3.94027  15
   5   2  16 9.89636 2.82078  10
   6   2  16 13.2945 3.72730  15
   6   2  16 12.5530 2.07625  10
   7   2  16 4.13586 2.29690  15
   3  -3 -16 19.1094 3.10079   9
   3  -3 -16 8.85489 2.64603  11
   2  -3 -16 32.1635 4.89401   9
   2  -3 -16 38.4727 3.43979   8
   1  -3 -16 37.9815 5.28478   8
   0  -3 -16 -0.8716 3.00193   8
   0   3  16 -2.0841 2.66202   8
   1   3  16 -0.5259 1.70881   8
   2   3  16 -0.4366 3.30658   9
   2   3  16 -0.1658 1.44767   8
   3   3  16 10.9268 2.95410  10
   3   3  16 17.5491 4.51436  15
   3   3  16 10.9908 3.64079   9
   4   3  16 29.4433 5.01651  10
   4   3  16 31.9328 6.11388  15
   4   3  16 23.8547 3.65521   9
   5   3  16 2.92007 1.77612  10
   5   3  16 2.77728 3.18404  15
   6   3  16 74.3588 7.44278  14
   6   3  16 90.4040 9.29700  15
   6   3  16 84.9106 6.28209  10
   7   3  16 4.48692 2.44589  15
   3  -4 -16 18.4804 2.92369   9
   2  -4 -16 5.79084 1.61578   8
   2  -4 -16 10.4593 3.50295   9
   1  -4 -16 23.2101 3.79497   8
   0  -4 -16 0.15679 2.12599   8
   0   4  16 1.13921 1.86842   8
   1   4  16 24.0091 3.77785   8
   2   4  16 8.93598 2.94369   9
   2   4  16 10.3908 2.51772   8
   3   4  16 14.7566 4.91588  15
   3   4  16 16.5257 3.35111   9
   3   4  16 17.1224 3.89215  10
   3   4  16 18.9930 2.50260   8
   4   4  16 5.31251 1.99437   9
   4   4  16 -1.7961 2.88070  14
   4   4  16 6.60599 3.04122  10
   4   4  16 1.31922 4.09916  15
   5   4  16 27.1227 6.34148  15
   5   4  16 35.9368 5.65515  14
   5   4  16 35.5933 4.75809  10
   6   4  16 56.0353 6.37509  14
   6   4  16 71.2206 5.44876  10
   6   4  16 73.1670 7.96408  15
   7   4  16 11.2918 2.86327  15
   7   4  16 1.87301 1.77982  14
   2  -5 -16 3.52421 2.25581   9
   2  -5 -16 5.60478 2.12152  11
   1  -5 -16 12.9818 2.39174   8
  -1   5  16 10.1238 2.58780   8
   0  -5 -16 28.7285 4.21780   8
   0   5  16 24.1730 3.86941   8
   1   5  16 21.7735 3.45785   8
   2   5  16 40.1243 3.99026   8
   2   5  16 41.4307 5.45581   9
   3   5  16 59.8553 6.45116   9
   3   5  16 42.9077 6.36234  14
   3   5  16 42.3550 5.51597  10
   3   5  16 49.8376 6.80962  15
   3   5  16 48.9397 3.91252   8
   4   5  16 -0.4361 1.94264  10
   4   5  16 0.12446 4.05158  15
   4   5  16 -0.0672 2.23621   9
   4   5  16 -0.1509 2.10651  14
   5   5  16 3.97803 2.98413  15
   5   5  16 0.66262 1.51149  10
   5   5  16 -2.3466 2.13794  14
   6   5  16 8.21143 1.51733  10
   6   5  16 1.74685 3.48687  15
   6   5  16 3.49789 2.32363  14
   7   5  16 -2.4157 2.45493  14
   2  -6 -16 2.85293 2.02296   9
   1  -6 -16 4.20449 1.93894   8
  -1   6  16 -1.3631 1.63031   8
   0  -6 -16 31.2989 4.31177   8
   0   6  16 35.1565 4.07649   8
   1   6  16 15.7697 2.95754   8
   2   6  16 15.4952 2.54495   8
   2   6  16 11.2132 3.76628   9
   2   6  16 15.6946 3.23742  14
   3   6  16 37.3265 4.72611   9
   3   6  16 27.5231 4.98675  14
   3   6  16 42.6290 6.45711  15
   4   6  16 7.10916 2.51012   9
   4   6  16 5.50185 2.58189  14
   4   6  16 3.21396 2.67870  15
   4   6  16 4.33244 2.79357  10
   5   6  16 12.6803 2.31130  10
   5   6  16 7.33236 2.85686  14
   5   6  16 3.71319 3.49268  15
   6   6  16 30.7921 3.24766  10
   6   6  16 30.2541 5.23426  14
   1  -7 -16 39.2921 3.21484   8
  -1   7  16 34.9675 3.76893   8
   0  -7 -16 19.3679 3.26180   8
   0   7  16 19.6815 2.99579   8
  -1  -7 -16 2.88566 2.95552   8
   1   7  16 5.04990 2.07197   8
   1   7  16 1.81969 2.14747  14
   2   7  16 7.12223 1.69058   8
   2   7  16 8.77857 2.59018   9
   2   7  16 6.43328 2.66370  14
   3   7  16 61.5762 5.63014   9
   3   7  16 49.1529 6.05383  14
   4   7  16 66.2204 7.05627  14
   4   7  16 63.5401 6.05942  10
   4   7  16 72.4416 6.04033   9
   5   7  16 47.5660 5.88457  14
   5   7  16 56.0771 5.25532  10
   6   7  16 60.3300 6.57475  14
   6   7  16 53.0242 4.27835  10
   0  -8 -16 7.32760 1.50015   8
   0   8  16 10.0905 1.90040   8
  -1  -8 -16 0.17120 1.79305   8
   1   8  16 3.11642 1.89215  14
   1   8  16 0.73044 1.53324   8
   2   8  16 34.9401 4.73104  14
   2   8  16 39.6453 4.55436   9
   3   8  16 7.72833 2.51754  14
   3   8  16 7.73326 2.19098   9
   4   8  16 -1.2779 1.99167  14
   4   8  16 2.10282 1.23381   9
   4   8  16 0.41487 1.69483  10
   5   8  16 3.92582 2.30669  14
   5   8  16 7.33398 1.80742  10
   2   9  16 12.3667 2.29072   9
   3   9  16 4.30437 1.56630   9
   3   9  16 4.06391 1.97120  14
   4   9  16 1.63139 1.87945  14
   1   4 -17 13.5823 2.21270   8
  -1  -4  17 7.75291 1.91129   8
   0   4 -17 4.13512 1.97631   8
   0  -4  17 5.25665 1.68163   8
  -1   4 -17 26.8953 3.51815   8
   1  -4  17 30.6723 2.91854   8
   1  -4  17 32.3637 4.31477   9
   2  -4  17 4.52506 2.42018   9
   2  -4  17 0.48733 1.96470  16
   3   3 -17 72.4606 5.35659   9
   2   3 -17 2.03500 1.68284   9
   1   3 -17 6.18143 1.84385   8
  -1  -3  17 7.02158 2.20691   8
   0   3 -17 2.34973 1.54724   8
   0  -3  17 4.42921 2.42737   8
  -1   3 -17 -1.6130 2.23363   8
   1  -3  17 0.11580 3.40030   9
   1  -3  17 0.69028 1.81896   8
   2  -3  17 -3.9488 2.28359  16
   2  -3  17 -5.0977 2.46666   9
   3  -3  17 16.4230 3.11104  16
   3  -3  17 18.7401 2.79464   9
   3   2 -17 -0.0085 1.87412  11
   2   2 -17 4.39379 2.24241   9
   2   2 -17 4.02232 0.98780   8
   2   2 -17 3.37516 2.02832  11
   1   2 -17 9.87074 3.08912  11
   1   2 -17 6.38418 1.83988   8
  -1  -2  17 17.1982 2.93394   8
   0   2 -17 -0.7785 1.64729   8
   0  -2  17 -1.1112 1.84284   8
  -1   2 -17 60.4963 6.18761   8
   1  -2  17 46.6063 5.58510   8
   2  -2  17 29.6128 3.01236   8
   2  -2  17 32.6246 4.55924   9
   2  -2  17 31.1035 4.92807  16
   3  -2  17 2.36782 2.54672   9
   3  -2  17 0.59217 2.29801  16
   4  -2  17 2.12961 1.60990  10
   4  -2  17 1.35943 0.83656   9
   3   1 -17 20.5103 2.67310   9
   3   1 -17 18.5665 3.32183  11
   2   1 -17 20.7211 3.58861  11
   2   1 -17 20.6599 3.16478   9
   2   1 -17 13.5401 1.74907   8
   1   1 -17 -1.7985 1.31766   8
   1   1 -17 0.87581 2.01833  11
  -1  -1  17 2.35767 2.89514   8
   0   1 -17 94.5034 7.55297   8
   1  -1  17 87.7162 8.93923  15
   1  -1  17 85.9113 7.64524   8
   2  -1  17 11.3629 3.02982   9
   2  -1  17 9.21013 1.98044   8
   2  -1  17 6.80098 3.34332  15
   3  -1  17 3.10939 2.05874   9
   3  -1  17 -3.3732 2.73637  15
   4  -1  17 22.0993 3.57358  10
   4  -1  17 31.2166 3.33148   9
   4  -1  17 30.5514 4.68382  15
   3   0 -17 103.595 8.83764  11
   2   0 -17 10.6530 2.89576  11
   2   0 -17 6.87813 1.59883   8
   2   0 -17 6.50341 3.42657   9
   1   0 -17 23.1822 3.37337   8
  -1   0  17 18.6305 3.14425   8
   0   0 -17 9.20030 3.02026   8
   0   0  17 5.76322 2.24454   8
   2   0  17 15.7135 2.24099   8
   2   0  17 11.2770 3.93089   9
   2   0  17 15.5629 4.91000  15
   3   0  17 70.1069 7.45559  10
   3   0  17 76.7358 6.83615   9
   3   0  17 77.3958 8.39493  15
   4   0  17 311.715 20.5733   9
   4   0  17 312.773 25.3638  15
   4   0  17 297.050 20.5909  10
   5   0  17 0.69794 1.34079  10
   5   0  17 -1.1964 2.40391  15
   3  -1 -17 17.5821 3.62998  11
   3  -1 -17 13.6830 2.32156   9
   2  -1 -17 10.0623 2.85297  11
   2  -1 -17 19.2826 3.31947   9
   2  -1 -17 19.5102 2.70296   8
   1  -1 -17 18.3886 2.63061   8
  -1   1  17 9.05136 3.66797   8
   0  -1 -17 47.2132 6.39795   8
   0   1  17 64.6182 6.62684   8
   1   1  17 1.63816 2.49005   8
   2   1  17 6.81612 3.28498  15
   2   1  17 4.84580 2.16316   8
   2   1  17 4.81059 2.58951   9
   3   1  17 2.52537 4.09361  15
   3   1  17 8.89823 3.24151   9
   3   1  17 7.36447 2.54795  10
   4   1  17 70.2071 7.22144  10
   4   1  17 73.9489 8.52040  15
   4   1  17 83.1971 6.69801   9
   5   1  17 2.65000 2.88091  15
   5   1  17 7.82347 2.35669  10
   6   1  17 19.8473 3.80857  15
   3  -2 -17 11.4681 2.65764  11
   3  -2 -17 25.1225 2.92154   9
   2  -2 -17 22.6741 2.69480   8
   2  -2 -17 32.7450 4.52265  11
   2  -2 -17 28.6143 4.24807   9
   1  -2 -17 15.1117 2.91226   8
  -1   2  17 7.63060 2.58753   8
   0  -2 -17 50.0518 5.28644   8
   0   2  17 45.0289 5.23508   8
   1   2  17 3.26813 2.54249   8
   2   2  17 39.6443 3.93940   8
   2   2  17 39.2357 5.31829   9
   3   2  17 6.37483 2.38419   9
   3   2  17 10.3747 4.50798  15
   3   2  17 7.80050 3.27254  10
   4   2  17 7.02633 2.49439   9
   4   2  17 5.99294 2.24054  10
   4   2  17 2.73528 3.08502  15
   5   2  17 55.0466 6.92722  15
   5   2  17 51.1272 4.73514  10
   6   2  17 21.8876 4.32824  15
   6   2  17 24.0204 2.46991  10
   3  -3 -17 27.2794 2.95448   9
   2  -3 -17 3.70659 1.07635   8
   2  -3 -17 3.30296 2.32750   9
   2  -3 -17 4.04159 3.23893  11
   1  -3 -17 16.2490 2.89551   8
  -1   3  17 12.4892 2.70310   8
   0  -3 -17 32.7457 4.31378   8
   0   3  17 26.1319 4.01809   8
   1   3  17 44.7891 4.68745   8
   2   3  17 9.30568 2.26048   8
   2   3  17 11.6470 3.13380   9
   3   3  17 4.75604 2.20826   9
   3   3  17 1.22269 3.08691  10
   3   3  17 2.36984 3.87525  15
   4   3  17 82.4364 6.92804   9
   4   3  17 81.3992 9.01341  15
   4   3  17 73.6320 6.76059  10
   5   3  17 8.89699 2.64816  10
   5   3  17 8.89420 3.41520  15
   6   3  17 6.33222 2.88834  15
   2  -4 -17 1.26544 1.90155  11
   2  -4 -17 0.32895 1.98961   9
   1  -4 -17 31.9352 4.13989   8
  -1   4  17 19.1058 3.02386   8
   0  -4 -17 7.43582 2.37382   8
   0   4  17 8.61310 2.18398   8
   1   4  17 -2.9639 1.37588   8
   2   4  17 21.2302 2.85279   8
   2   4  17 17.5718 4.36068   9
   3   4  17 8.43924 3.26916  15
   3   4  17 9.09149 3.18736   9
   4   4  17 9.56468 3.03184  10
   4   4  17 14.6681 2.80473   9
   4   4  17 11.8430 3.68362  15
   5   4  17 -0.3349 2.02940  10
   5   4  17 1.18753 2.69429  15
   6   4  17 46.9450 6.07834  15
   6   4  17 49.5675 3.78846  10
   2  -5 -17 36.0278 4.77503   9
   1  -5 -17 2.00880 1.32037   8
  -1   5  17 5.19917 2.41516   8
   0  -5 -17 65.6249 5.98219   8
   0   5  17 75.3901 6.42366   8
  -1  -5 -17 8.06367 2.64408   8
   1   5  17 5.65317 2.29088   8
   2   5  17 -0.8657 2.08529   9
   2   5  17 -0.4169 1.65963   8
   3   5  17 34.3566 6.40681  15
   3   5  17 29.2716 5.19787   9
   4   5  17 9.58906 3.18294  15
   4   5  17 9.55017 2.30661  10
   4   5  17 6.38346 2.34256   9
   5   5  17 107.317 10.1609  15
   5   5  17 100.216 9.53442  14
   5   5  17 109.694 7.89591  10
   6   5  17 2.79744 1.95595  14
   6   5  17 3.13557 2.20249  15
   6   5  17 7.13028 1.45682  10
   1  -6 -17 14.2626 2.14676   8
  -1   6  17 10.8526 2.41964   8
   0  -6 -17 11.7052 2.69730   8
   0   6  17 12.0176 2.50929   8
  -1  -6 -17 45.2375 5.12333   8
   1   6  17 50.5647 4.31357   8
   2   6  17 -0.0968 2.96854   9
   2   6  17 1.40213 1.33736   8
   3   6  17 18.7729 3.08410   9
   3   6  17 21.8504 4.20401  15
   3   6  17 14.4694 3.00902  14
   4   6  17 45.1690 5.44044  14
   4   6  17 49.7682 5.73863  10
   4   6  17 39.6624 6.63897  15
   4   6  17 60.7335 4.86096   9
   5   6  17 19.1554 3.61548  14
   5   6  17 25.5243 2.99568  10
   6   6  17 1.11490 1.86681  14
   6   6  17 0.80503 0.71155  10
   0  -7 -17 2.13536 1.36839   8
   0   7  17 3.88004 1.33391   8
  -1  -7 -17 43.4580 4.59378   8
   1   7  17 47.7185 4.11411   8
   2   7  17 -1.2340 1.84861   9
   3   7  17 60.0484 5.76961   9
   3   7  17 45.8095 5.37881  14
   4   7  17 10.7546 2.78425  10
   4   7  17 10.7981 2.68038  14
   4   7  17 11.2322 1.87991   9
   5   7  17 3.82835 1.49523  10
   5   7  17 7.91041 2.30135  14
   2   8  17 48.7444 5.39185   9
   3   8  17 11.3202 1.94924   9
   3   8  17 10.4950 2.38920  14
   4   8  17 21.8276 3.24269  10
   4   8  17 27.5419 3.60271  14
   1   3 -18 25.8829 2.21554   8
   0   3 -18 20.0112 2.55224   8
   0  -3  18 20.8609 2.61669   8
  -1   3 -18 19.2169 2.90868   8
   1  -3  18 16.4659 1.93274   8
   1   2 -18 -1.3237 0.92266   8
  -1  -2  18 2.02617 1.72168   8
   0   2 -18 2.07278 2.00422   8
   0  -2  18 1.83705 1.70391   8
  -1   2 -18 5.12763 1.91408   8
   1  -2  18 4.83032 1.67278   8
   1  -2  18 4.30243 2.42461   9
   2  -2  18 13.6461 3.12870   9
   3  -2  18 30.4040 3.66406   9
   2   1 -18 -0.5228 1.73441  11
   2   1 -18 1.27392 1.76070   9
   1   1 -18 0.58277 1.75948  11
   1   1 -18 2.60662 1.85832   8
  -1  -1  18 2.29810 2.67475   8
   0   1 -18 3.29719 1.63678   8
   0  -1  18 1.30404 2.41278  15
   0  -1  18 -3.6239 1.51644   8
  -1   1 -18 31.1139 4.29603   8
   1  -1  18 38.0451 4.39162   8
   1  -1  18 36.1458 4.98448  15
   2  -1  18 14.5955 3.27115  15
   2  -1  18 8.62816 1.45006   8
   2  -1  18 16.0036 3.42583   9
   3  -1  18 1.21954 1.58535   9
   3  -1  18 3.68473 3.58373  15
   4  -1  18 0.62308 1.50806  10
   2   0 -18 5.03682 1.97456  11
   2   0 -18 -1.2648 1.82205   9
   1   0 -18 2.78682 1.91536   8
   1   0 -18 8.79457 2.44583  11
  -1   0  18 2.80759 1.90289   8
   0   0 -18 82.6947 7.19079   8
  -1   0 -18 28.2099 4.12666   8
   1   0  18 32.5275 4.46398   8
   1   0  18 28.3222 5.05057  15
   2   0  18 6.73447 3.10706  15
   2   0  18 4.80344 1.32211   8
   2   0  18 6.49377 3.32831   9
   3   0  18 4.78610 2.85193  15
   3   0  18 -2.5264 2.41565   9
   4   0  18 31.5994 2.84440   9
   4   0  18 24.6295 3.61583  10
   4   0  18 33.3809 5.74939  15
   2  -1 -18 72.6152 6.44411   9
   2  -1 -18 79.9403 7.01148  11
   1  -1 -18 5.56540 2.05165   8
  -1   1  18 3.21675 2.61210   8
   0  -1 -18 107.909 8.75781   8
   0   1  18 110.794 8.78231   8
  -1  -1 -18 7.60456 2.48942   8
   2   1  18 19.2303 3.94952  15
   2   1  18 14.4637 2.25124   8
   2   1  18 24.5085 4.26471   9
   3   1  18 28.1968 5.37211  15
   3   1  18 40.0969 4.39087   9
   4   1  18 13.0256 2.05000   9
   4   1  18 12.1252 2.46503  10
   4   1  18 14.9035 3.48098  15
   5   1  18 96.4444 6.90330  10
   5   1  18 86.5856 8.55827  15
   2  -2 -18 0.10191 1.94532   9
   2  -2 -18 -2.0147 1.72404  11
   1  -2 -18 -0.0330 1.85892   8
  -1   2  18 0.26164 1.72283   8
   0  -2 -18 20.2314 2.90186   8
   0   2  18 17.8304 2.82080   8
  -1  -2 -18 3.80562 3.13335   8
   1   2  18 0.14447 2.11934   8
   2   2  18 9.29175 3.52835   9
   2   2  18 10.1441 1.92340   8
   2   2  18 5.63890 4.12140  15
   3   2  18 29.5270 4.72425   9
   3   2  18 18.0678 4.65633  15
   4   2  18 0.35993 1.19527   9
   4   2  18 -4.6766 2.20294  15
   4   2  18 1.48336 1.78760  10
   5   2  18 19.7360 3.81596  15
   5   2  18 25.5588 3.45804  10
   2  -3 -18 14.3285 2.97364   9
   2  -3 -18 7.80776 2.25909  11
   1  -3 -18 45.3242 4.28290   8
  -1   3  18 40.0361 4.50814   8
   0  -3 -18 -0.6821 1.67815   8
   0   3  18 1.10161 1.56970   8
  -1  -3 -18 9.71227 2.50870   8
   1   3  18 9.50501 2.13642   8
   2   3  18 13.6621 3.79603   9
   2   3  18 19.7800 4.73354  15
   3   3  18 15.6001 4.47720  15
   3   3  18 18.1816 2.95331   9
   4   3  18 32.4161 3.23568   9
   4   3  18 30.5898 5.27428  15
   4   3  18 32.8872 4.07082  10
   5   3  18 -0.8608 2.25369  15
   5   3  18 1.48948 1.43812  10
   1  -4 -18 18.9153 2.22680   8
   1  -4 -18 15.4106 3.90153   9
  -1   4  18 13.9619 2.36877   8
   0  -4 -18 10.8641 2.20916   8
   0   4  18 6.29395 1.92168   8
  -1  -4 -18 6.39453 2.32211   8
   1   4  18 9.76473 2.21378   8
   2   4  18 16.3032 2.52599   8
   2   4  18 14.0787 3.87230   9
   3   4  18 1.04116 2.62550   9
   3   4  18 5.28214 2.93168  15
   4   4  18 5.41344 1.93800  10
   4   4  18 -0.7084 3.53176  15
   4   4  18 1.83598 1.70105   9
   5   4  18 61.8690 7.10807  15
   5   4  18 67.6003 5.64724  10
   1  -5 -18 -0.7483 0.88908   8
   0  -5 -18 56.4790 5.67563   8
   0   5  18 68.6783 5.59005   8
  -1  -5 -18 9.30383 2.41249   8
   1   5  18 10.1475 2.17075   8
   2   5  18 31.0514 2.95282   8
   2   5  18 30.5387 4.37461   9
   2   5  18 32.3270 5.03422  15
   3   5  18 1.94206 3.39048  15
   3   5  18 2.50011 2.53550   9
   4   5  18 10.0274 2.26817  10
   4   5  18 8.02174 1.82495   9
   4   5  18 7.45209 2.87317  15
   5   5  18 31.2697 4.61007  15
   5   5  18 36.3751 3.48926  10
   0  -6 -18 0.79209 1.16806   8
   0   6  18 1.58892 1.58917   8
  -1  -6 -18 11.1017 2.79257   8
   1   6  18 16.1424 2.50185   8
   1   6  18 11.0855 2.94671   9
   2   6  18 2.82464 2.09235   9
   2   6  18 2.61144 3.11472  15
   3   6  18 46.7461 5.64980  15
   3   6  18 53.5309 5.41123   9
   4   6  18 84.4566 6.12834   9
   4   6  18 96.3813 7.23215  10
   5   6  18 65.7588 5.32989  10
   2   7  18 11.7875 2.19528   9
   3   7  18 5.25571 2.06580   9
   0   1 -19 21.7287 3.22503   8
   0  -1  19 15.4363 2.57922   8
  -1   1 -19 55.5946 4.98558   8
   1  -1  19 61.0175 4.28926   8
   2  -1  19 1.76053 1.87174   9
   1   0 -19 -0.3656 0.62312   8
   1   0 -19 1.56930 1.81152  11
  -1   0  19 -0.9212 1.48060   8
   0   0 -19 3.02468 2.49922  11
   0   0 -19 4.10212 1.53204   8
   0   0  19 1.92174 1.55669   8
   0   0  19 6.87948 2.37040  15
  -1   0 -19 -6.1837 2.25855   8
   1   0  19 2.10251 2.53411  15
   1   0  19 1.13434 1.10162   8
   1   0  19 -3.4215 2.26323   9
   2   0  19 4.28206 3.46187  15
   2   0  19 6.31230 2.53298   9
   3   0  19 25.1077 2.98677   9
   1  -1 -19 60.1419 4.50030   8
   1  -1 -19 84.7098 6.33644  11
   0  -1 -19 32.7362 3.55416   8
  -1  -1 -19 1.04593 1.82345   8
   1   1  19 0.08582 2.31476  15
   1   1  19 0.63083 1.67997   8
   1   1  19 -1.9556 2.32905   9
   2   1  19 3.24014 2.57247  15
   2   1  19 -0.5997 1.91114   9
   3   1  19 41.8150 3.79963   9
   3   1  19 27.2944 4.60858  15
   4   1  19 1.89366 2.24257  15
   4   1  19 0.84878 1.50846  10
   1  -2 -19 9.86028 1.37807   8
   1  -2 -19 12.4813 2.56583  11
  -1   2  19 12.1695 1.98367   8
   0  -2 -19 3.59327 2.20088   8
   0   2  19 2.36498 2.08528   8
  -1  -2 -19 33.5486 5.21556   8
   1   2  19 43.6192 5.52298  15
   1   2  19 39.3563 6.00321   9
   2   2  19 23.1259 4.49286  15
   2   2  19 27.8340 3.98625   9
   3   2  19 -2.3221 1.37796   9
   3   2  19 2.10499 2.25151  15
   4   2  19 0.10017 1.46275  10
   4   2  19 -3.7357 2.06370  15
   1  -3 -19 25.3745 3.55190  11
   0  -3 -19 0.05133 1.96973   8
   0   3  19 3.11002 1.93679   8
  -1  -3 -19 79.1877 6.66719   8
   1   3  19 59.3620 6.37159   9
   2   3  19 61.8448 6.48115  15
   2   3  19 48.1940 5.31140   9
   3   3  19 6.32444 2.70144  15
   3   3  19 14.5341 2.38465   9
   4   3  19 0.89982 1.02328   9
   4   3  19 3.79185 2.43930  15
   4   3  19 -0.4003 1.60660  10
   0  -4 -19 6.73792 1.94657   8
   0   4  19 6.71588 1.82666   8
  -1  -4 -19 2.12679 1.70153   8
   1   4  19 0.15247 0.99873   8
   1   4  19 2.37594 3.13628   9
   2   4  19 0.22755 1.85440   9
   2   4  19 0.47603 2.32579  15
   3   4  19 3.23288 2.62200  15
   3   4  19 2.35463 1.64355   9
   4   4  19 33.9182 4.42453  10
   1   5  19 119.238 9.95777  15
   1   5  19 108.695 7.26754   8
   2   5  19 -0.4959 2.38779   9
   2   5  19 1.91957 2.94089  15
   3   5  19 2.02272 2.03585   9
   3   5  19 5.52388 2.46490  15
   4   5  19 3.74861 2.47065  15
   2   2  20 3.44926 2.19587  15
   0   0   0    0.00    0.00   0
;
_shelx_hkl_checksum   48506

