 
data_x14342t 
 
_audit_creation_method            SHELXL-2014 
# CIF file edited on-the-fly by script CIFFIX (S. Parkin, 2000-2014). 
# CIFFIX: http://xray.uky.edu/people/parkin/programs/ciffix 
 
_publ_section_exptl_refinement 
; 
H atoms were included in the refinement using riding models, with constrained 
distances set to 0.95 %A (C~sp2~H), 0.98 %A (RCH~3~), 0.99 %A (R~2~CH~2~) and 
1.00 %A (R~3~CH).  U~iso~(H) parameters were set to values of either 1.2U~eq~ 
or 1.5U~eq~ (RCH~3~ only) of the attached atom. 
 
To ensure satisfactory refinement of disordered groups in the structure, 
a combination of constraints and restraints were employed. The constraints 
(SHELXL commands EXYZ and EADP) were used to fix overlapping fragments. 
Restraints were used to maintain the integrity of ill-defined disordered 
groups (SHELXL commands SAME and RIGU). 
 
The crystal was twinned by non-merohedry, which was handled using standard 
SHELXL methods (an HKLF 5 format *.hkl file, the BASF command, and MERG 0). 

The data are quite weak, and the model given here is clearly an approximation 
that does not account for all aspects of the structure.  Nevertheless, the 
atom connectivity is well established, and the packing is beyond any doubt. 
; 
 
_publ_section_references 
; 
Bruker-AXS (2006). 
  <i>APEX2</i> Bruker-AXS Inc., Madison, Wisconsin, USA. 
 
Hope, H. (1994). 
  <i>Prog. Inorg. Chem.</i> <b>41</b>, 1--19. 
 
Parkin, S. & Hope, H. (1998). 
  <i>J. Appl. Cryst.</i> <b>31</b>, 945--953. 
 
Parkin, S. (2000). 
  <i>Acta Cryst.</i> A<b>56</b>, 157--162. 
 
Parkin, S. (2013). 
  <i>CIFFIX</i>, http://xray.uky.edu/people/parkin/programs/ciffix 
 
Sheldrick, G.M. (2008a). 
  <i>Acta Cryst.</i> A<b>64</b>, 112--122. 
 
Sheldrick, G.M. (2008b). 
  <i>TWINABS</i> University of G\"ottingen, Germany. 
 
Spek, A.L. (2009). 
  <i>Acta Cryst.</i> D<b>65</b>, 148--155. 
; 
 
_chemical_name_systematic 
; 
 ? 
; 
_chemical_name_common             ? 
_chemical_melting_point           ? 
_chemical_formula_moiety          'C46 H60 F2 S2 Si2' 
_chemical_formula_sum             'C46 H60 F2 S2 Si2' 
_chemical_formula_weight          771.24 
 
loop_ 
 _atom_type_symbol 
 _atom_type_description 
 _atom_type_scat_dispersion_real 
 _atom_type_scat_dispersion_imag 
 _atom_type_scat_source 
 'C'  'C'   0.0181   0.0091 
 'International Tables Vol C Tables 4.2.6.8 and 6.1.1.4' 
 'H'  'H'   0.0000   0.0000 
 'International Tables Vol C Tables 4.2.6.8 and 6.1.1.4' 
 'F'  'F'   0.0727   0.0534 
 'International Tables Vol C Tables 4.2.6.8 and 6.1.1.4' 
 'Si'  'Si'   0.2541   0.3302 
 'International Tables Vol C Tables 4.2.6.8 and 6.1.1.4' 
 'S'  'S'   0.3331   0.5567 
 'International Tables Vol C Tables 4.2.6.8 and 6.1.1.4' 
 
_space_group_crystal_system       triclinic 
_space_group_IT_number            2 
_space_group_name_H-M_alt         'P -1' 
_space_group_name_Hall            '-P 1' 
 
_shelx_space_group_comment 
; 
The symmetry employed for this shelxl refinement is uniquely defined 
by the following loop, which should always be used as a source of 
symmetry information in preference to the above space-group names. 
They are only intended as comments. 
; 
 
loop_ 
 _space_group_symop_operation_xyz 
 'x, y, z' 
 '-x, -y, -z' 
 
_cell_length_a                    15.8557(4) 
_cell_length_b                    17.5077(6) 
_cell_length_c                    17.5421(6) 
_cell_angle_alpha                 84.941(2) 
_cell_angle_beta                  72.851(2) 
_cell_angle_gamma                 71.326(2) 
_cell_volume                      4408.1(3) 
_cell_formula_units_Z             4 
_cell_measurement_temperature     90.0(2) 
_cell_measurement_reflns_used     9342 
_cell_measurement_theta_min       3.07 
_cell_measurement_theta_max       67.93 
 
_exptl_crystal_description        needle 
_exptl_crystal_colour             orange 
_exptl_crystal_density_meas       ? 
_exptl_crystal_density_method     ? 
_exptl_crystal_density_diffrn     1.162 
_exptl_crystal_F_000              1656 
_exptl_transmission_factor_min    ? 
_exptl_transmission_factor_max    ? 
_exptl_crystal_size_max           0.180 
_exptl_crystal_size_mid           0.030 
_exptl_crystal_size_min           0.020 
_exptl_absorpt_coefficient_mu     1.910 
_shelx_estimated_absorpt_T_min    0.725 
_shelx_estimated_absorpt_T_max    0.963 
_exptl_absorpt_correction_type    multi-scan 
_exptl_absorpt_correction_T_min   0.576 
_exptl_absorpt_correction_T_max   0.936 
_exptl_absorpt_process_details    '<i>TWINABS</i> (Sheldrick, 2008b)' 
 
_exptl_special_details 
; 
The crystal was mounted with polyisobutene oil on the tip of a fine glass 
fibre, which was fastened in a copper mounting pin with electrical solder. 
It was placed directly into the cold gas stream of a liquid nitrogen based 
cryostat, according to published methods (Hope, 1994; Parkin & Hope, 1998). 
 
Diffraction data were collected with the crystal at 90K, which is standard 
practice in this laboratory for the majority of flash-cooled crystals. 
; 
 
_diffrn_ambient_temperature       90.0(2) 
_diffrn_radiation_wavelength      1.54178 
_diffrn_radiation_type            CuK\a 
_diffrn_source                    'fine-focus rotating anode' 
_diffrn_measurement_device_type   'Bruker X8 Proteum diffractometer' 
_diffrn_measurement_method        '\f and \w scans' 
_diffrn_detector_area_resol_mean  5.6 
_diffrn_reflns_number             15822 
_diffrn_reflns_av_unetI/netI      0.1325 
_diffrn_reflns_av_R_equivalents   ? 
_diffrn_reflns_limit_h_min        -17 
_diffrn_reflns_limit_h_max        19 
_diffrn_reflns_limit_k_min        -21 
_diffrn_reflns_limit_k_max        21 
_diffrn_reflns_limit_l_min        -21 
_diffrn_reflns_limit_l_max        21 
_diffrn_reflns_theta_min          2.636 
_diffrn_reflns_theta_max          68.268 
_diffrn_reflns_theta_full         67.679 
_diffrn_measured_fraction_theta_max                0.982 
_diffrn_measured_fraction_theta_full               0.987 
_diffrn_reflns_Laue_measured_fraction_max          0.982 
_diffrn_reflns_Laue_measured_fraction_full         0.987 
_diffrn_reflns_point_group_measured_fraction_max   0.982 
_diffrn_reflns_point_group_measured_fraction_full  0.987 
 
_reflns_number_total              15822 
_reflns_number_gt                 8889 
_reflns_threshold_expression      'I > 2\s(I)' 
_reflns_Friedel_coverage          0.000 
_reflns_Friedel_fraction_max      . 
_reflns_Friedel_fraction_full     . 
 
_reflns_special_details 
; 
_reflns_Friedel_fraction is defined as the number of unique 
Friedel pairs measured divided by the number that would be 
possible theoretically, ignoring centric projections and 
systematic absences. 
; 
 
_computing_data_collection        '<i>APEX2</i> (Bruker-AXS, 2006)' 
_computing_cell_refinement        '<i>APEX2</i> (Bruker-AXS, 2006)' 
_computing_data_reduction         '<i>APEX2</i> (Bruker-AXS, 2006)' 
_computing_structure_solution     '<i>SHELXS-97</i> (Sheldrick, 2008a)' 
_computing_structure_refinement   '<i>SHELXL-2014</i> (Sheldrick, 2008a)' 
_computing_molecular_graphics     '<i>XP in SHELXTL</i> (Sheldrick, 2008a)' 
_computing_publication_material 
'<i>SHELX</i> (Sheldrick, 2008a) and <i>CIFFIX</i> (Parkin, 2013)' 
 
_refine_special_details 
; 
Refinement progress was checked using <i>Platon</i> (Spek, 2009) and by 
an <i>R</i>-tensor (Parkin, 2000). The final model was further checked 
with the IUCr utility <i>checkCIF</i>. 
; 
 
_refine_ls_structure_factor_coef  Fsqd 
_refine_ls_matrix_type            full 
_refine_ls_weighting_scheme       calc 
_refine_ls_weighting_details 
'w=1/[\s^2^(Fo^2^)+(0.1608P)^2^+17.5085P] where P=(Fo^2^+2Fc^2^)/3' 
_atom_sites_solution_primary      direct 
_atom_sites_solution_secondary    difmap 
_atom_sites_solution_hydrogens    difmap 
_refine_ls_hydrogen_treatment     constr 
_refine_ls_extinction_method      none 
_refine_ls_extinction_coef        . 
_refine_ls_number_reflns          15822 
_refine_ls_number_parameters      1074 
_refine_ls_number_restraints      472 
_refine_ls_R_factor_all           0.1821 
_refine_ls_R_factor_gt            0.1190 
_refine_ls_wR_factor_ref          0.3557 
_refine_ls_wR_factor_gt           0.3099 
_refine_ls_goodness_of_fit_ref    0.996 
_refine_ls_restrained_S_all       0.983 
_refine_ls_shift/su_max           0.000 
_refine_ls_shift/su_mean          0.000 
 
loop_ 
 _atom_site_label 
 _atom_site_type_symbol 
 _atom_site_fract_x 
 _atom_site_fract_y 
 _atom_site_fract_z 
 _atom_site_U_iso_or_equiv 
 _atom_site_adp_type 
 _atom_site_occupancy 
 _atom_site_site_symmetry_order 
 _atom_site_calc_flag 
 _atom_site_refinement_flags_posn 
 _atom_site_refinement_flags_adp 
 _atom_site_refinement_flags_occupancy 
 _atom_site_disorder_assembly 
 _atom_site_disorder_group 
Si1A Si 0.14558(15) 0.29716(15) -0.19417(13) 0.0413(5) Uani 1 1 d . . . . . 
Si2A Si 0.29236(15) -0.19803(14) 0.28976(13) 0.0384(5) Uani 1 1 d . . . . . 
C1A C 0.1915(5) 0.1214(4) 0.0032(4) 0.0332(15) Uani 1 1 d . . . . . 
C2A C 0.2757(5) 0.1052(4) 0.0233(4) 0.0327(15) Uani 1 1 d . . . . . 
C3A C 0.3431(5) 0.1431(5) -0.0145(5) 0.0407(18) Uani 1 1 d . . . . . 
H3A H 0.3325 0.1809 -0.0557 0.049 Uiso 1 1 calc R U . A 1 
C4A C 0.4231(5) 0.1270(5) 0.0064(5) 0.0402(16) Uani 0.609(6) 1 d D U P B 1 
S5A S 0.5102(3) 0.1689(3) -0.0376(3) 0.0411(10) Uani 0.609(6) 1 d D U P B 1 
C6A C 0.5676(13) 0.1144(18) 0.0309(16) 0.037(2) Uani 0.609(6) 1 d D U P B 1 
F1A F 0.6501(10) 0.1238(13) 0.0269(12) 0.049(3) Uani 0.609(6) 1 d D U P B 1 
C7A C 0.5285(16) 0.0677(16) 0.0801(14) 0.0411(14) Uani 0.609(6) 1 d D U P B 1 
H7A H 0.5555 0.0345 0.1179 0.049 Uiso 0.609(6) 1 calc R U P B 1 
C8A C 0.4386(5) 0.0716(5) 0.0711(4) 0.0365(15) Uani 0.609(6) 1 d D U P B 1 
C4C C 0.4231(5) 0.1270(5) 0.0064(5) 0.0402(16) Uani 0.391(6) 1 d D U P B 2 
C5C C 0.505(2) 0.156(2) -0.019(2) 0.0411(10) Uani 0.391(6) 1 d D U P B 2 
H5C H 0.5117 0.1942 -0.0605 0.049 Uiso 0.391(6) 1 calc R U P B 2 
F1C F 0.6463(17) 0.142(2) 0.008(2) 0.049(3) Uani 0.391(6) 1 d D U P B 2 
C6C C 0.566(2) 0.125(3) 0.019(2) 0.037(2) Uani 0.391(6) 1 d D U P B 2 
S7C S 0.5422(6) 0.0578(6) 0.0970(4) 0.0411(14) Uani 0.391(6) 1 d D U P B 2 
C8C C 0.4386(5) 0.0716(5) 0.0711(4) 0.0365(15) Uani 0.391(6) 1 d D U P B 2 
C9A C 0.3757(5) 0.0328(5) 0.1075(4) 0.0358(16) Uani 1 1 d . . . . . 
H9A H 0.3871 -0.0044 0.1489 0.043 Uiso 1 1 calc R U . B 1 
C10A C 0.2926(5) 0.0470(4) 0.0845(4) 0.0310(15) Uani 1 1 d . . . . . 
C11A C 0.2284(5) 0.0051(5) 0.1210(4) 0.0358(16) Uani 1 1 d . . . . . 
C12A C 0.1422(5) 0.0257(4) 0.1031(4) 0.0311(15) Uani 1 1 d . . . . . 
C13A C 0.0750(5) -0.0129(5) 0.1406(4) 0.0358(16) Uani 1 1 d . . . . . 
H13A H 0.0886 -0.0554 0.1770 0.043 Uiso 1 1 calc R U . C 1 
C14A C -0.0094(5) 0.0101(5) 0.1254(4) 0.0393(16) Uani 0.536(8) 1 d D U P D 1 
S15A S -0.0968(4) -0.0332(3) 0.1707(3) 0.0408(13) Uani 0.536(8) 1 d D U P D 1 
C16A C -0.1641(13) 0.036(2) 0.1160(18) 0.042(2) Uani 0.536(8) 1 d D U P D 1 
F2A F -0.2500(9) 0.0321(13) 0.1246(9) 0.052(3) Uani 0.536(8) 1 d D U P D 1 
C17A C -0.1249(16) 0.0846(17) 0.0691(18) 0.0438(14) Uani 0.536(8) 1 d D U P D 1 
H17A H -0.1557 0.1247 0.0378 0.053 Uiso 0.536(8) 1 calc R U P D 1 
C18A C -0.0304(5) 0.0717(5) 0.0690(4) 0.0367(15) Uani 0.536(8) 1 d D U P D 1 
C14C C -0.0094(5) 0.0101(5) 0.1254(4) 0.0393(16) Uani 0.464(8) 1 d D U P D 2 
C15C C -0.0925(19) -0.0136(18) 0.1579(18) 0.0408(13) Uani 0.464(8) 1 d D U P D 2 
H15C H -0.0967 -0.0544 0.1970 0.049 Uiso 0.464(8) 1 calc R U P D 2 
F2C F -0.2472(11) 0.0174(16) 0.1511(11) 0.052(3) Uani 0.464(8) 1 d D U P D 2 
C16C C -0.1613(15) 0.026(2) 0.129(2) 0.042(2) Uani 0.464(8) 1 d D U P D 2 
S17C S -0.1430(4) 0.1009(4) 0.0589(4) 0.0438(14) Uani 0.464(8) 1 d D U P D 2 
C18C C -0.0304(5) 0.0717(5) 0.0690(4) 0.0367(15) Uani 0.464(8) 1 d D U P D 2 
C19A C 0.0350(5) 0.1088(5) 0.0285(5) 0.0364(16) Uani 1 1 d . . . . . 
H19A H 0.0212 0.1499 -0.0091 0.044 Uiso 1 1 calc R U . D 1 
C20A C 0.1238(5) 0.0848(4) 0.0440(4) 0.0315(15) Uani 1 1 d . . . . . 
C21A C 0.1756(5) 0.1766(5) -0.0607(4) 0.0377(17) Uani 1 1 d . . . . . 
C22A C 0.1631(5) 0.2230(5) -0.1153(5) 0.0421(18) Uani 1 1 d . . . . . 
C23A C 0.0240(7) 0.3694(6) -0.1600(6) 0.056(2) Uani 1 1 d . . . . . 
H23A H 0.0097 0.3786 -0.1020 0.068 Uiso 1 1 calc R U . . . 
H23B H 0.0244 0.4215 -0.1867 0.068 Uiso 1 1 calc R U . . . 
C24A C -0.0548(6) 0.3470(6) -0.1734(7) 0.060(3) Uani 1 1 d . . . . . 
H24A H -0.0396 0.3362 -0.2318 0.072 Uiso 1 1 calc R U . . . 
C25A C -0.1453(6) 0.4137(7) -0.1501(7) 0.066(3) Uani 1 1 d . . . . . 
H25A H -0.1949 0.3955 -0.1571 0.099 Uiso 1 1 calc R U . . . 
H25B H -0.1406 0.4607 -0.1839 0.099 Uiso 1 1 calc R U . . . 
H25C H -0.1594 0.4286 -0.0942 0.099 Uiso 1 1 calc R U . . . 
C26A C -0.0647(7) 0.2688(7) -0.1284(8) 0.074(3) Uani 1 1 d . . . . . 
H26A H -0.0785 0.2773 -0.0710 0.111 Uiso 1 1 calc R U . . . 
H26B H -0.0065 0.2248 -0.1467 0.111 Uiso 1 1 calc R U . . . 
H26C H -0.1152 0.2547 -0.1390 0.111 Uiso 1 1 calc R U . . . 
C27A C 0.1578(7) 0.2466(7) -0.2875(6) 0.059(2) Uani 1 1 d . . . . . 
H27A H 0.1162 0.2127 -0.2735 0.071 Uiso 1 1 calc R U . . . 
H27B H 0.1336 0.2893 -0.3235 0.071 Uiso 1 1 calc R U . . . 
C28A C 0.2533(7) 0.1938(7) -0.3359(6) 0.063(3) Uani 1 1 d . . . . . 
H28A H 0.2979 0.2249 -0.3421 0.076 Uiso 1 1 calc R U . . . 
C29A C 0.2555(9) 0.1742(9) -0.4178(6) 0.091(4) Uani 1 1 d . . . . . 
H29A H 0.2235 0.1339 -0.4144 0.136 Uiso 1 1 calc R U . . . 
H29B H 0.3201 0.1526 -0.4501 0.136 Uiso 1 1 calc R U . . . 
H29C H 0.2243 0.2231 -0.4427 0.136 Uiso 1 1 calc R U . . . 
C30A C 0.2883(8) 0.1158(7) -0.2931(7) 0.079(3) Uani 1 1 d . . . . . 
H30A H 0.2888 0.1284 -0.2399 0.119 Uiso 1 1 calc R U . . . 
H30B H 0.3514 0.0860 -0.3238 0.119 Uiso 1 1 calc R U . . . 
H30C H 0.2474 0.0828 -0.2880 0.119 Uiso 1 1 calc R U . . . 
C31A C 0.2358(8) 0.3493(7) -0.2108(7) 0.068(3) Uani 1 1 d . . . . . 
H31A H 0.2936 0.3145 -0.2468 0.082 Uiso 1 1 calc R U . . . 
H31B H 0.2155 0.3995 -0.2403 0.082 Uiso 1 1 calc R U . . . 
C32A C 0.2611(8) 0.3721(7) -0.1406(7) 0.067(3) Uani 1 1 d . . . . . 
H32A H 0.2871 0.3212 -0.1133 0.081 Uiso 1 1 calc R U . . . 
C33A C 0.3374(12) 0.4128(13) -0.1714(9) 0.128(7) Uani 1 1 d . . . . . 
H33A H 0.3307 0.4417 -0.2209 0.192 Uiso 1 1 calc R U . . . 
H33B H 0.3984 0.3717 -0.1819 0.192 Uiso 1 1 calc R U . . . 
H33C H 0.3316 0.4511 -0.1312 0.192 Uiso 1 1 calc R U . . . 
C34A C 0.1796(10) 0.4235(10) -0.0814(8) 0.101(5) Uani 1 1 d . . . . . 
H34A H 0.1774 0.4801 -0.0902 0.152 Uiso 1 1 calc R U . . . 
H34B H 0.1845 0.4078 -0.0275 0.152 Uiso 1 1 calc R U . . . 
H34C H 0.1228 0.4168 -0.0874 0.152 Uiso 1 1 calc R U . . . 
C35A C 0.2499(5) -0.0579(5) 0.1753(4) 0.0369(17) Uani 1 1 d . . . . . 
C36A C 0.2704(5) -0.1145(5) 0.2196(5) 0.0409(18) Uani 1 1 d . . . . . 
C37A C 0.1775(6) -0.2176(5) 0.3329(5) 0.047(2) Uani 1 1 d . . . . . 
H37A H 0.1680 -0.2471 0.2921 0.057 Uiso 1 1 calc R U . . . 
H37B H 0.1827 -0.2544 0.3787 0.057 Uiso 1 1 calc R U . . . 
C38A C 0.0902(6) -0.1464(6) 0.3613(5) 0.051(2) Uani 1 1 d . . . . . 
H38A H 0.0872 -0.1067 0.3167 0.061 Uiso 1 1 calc R U . . . 
C39A C 0.0059(8) -0.1756(8) 0.3794(9) 0.092(4) Uani 1 1 d . . . . . 
H39A H -0.0017 -0.2028 0.4311 0.137 Uiso 1 1 calc R U . . . 
H39B H 0.0146 -0.2133 0.3376 0.137 Uiso 1 1 calc R U . . . 
H39C H -0.0495 -0.1294 0.3812 0.137 Uiso 1 1 calc R U . . . 
C40A C 0.0878(8) -0.1040(8) 0.4328(7) 0.078(3) Uani 1 1 d . . . . . 
H40A H 0.1112 -0.1439 0.4704 0.116 Uiso 1 1 calc R U . . . 
H40B H 0.0238 -0.0718 0.4586 0.116 Uiso 1 1 calc R U . . . 
H40C H 0.1267 -0.0685 0.4160 0.116 Uiso 1 1 calc R U . . . 
C41A C 0.3363(6) -0.1658(6) 0.3665(5) 0.050(2) Uani 1 1 d . . . . . 
H41A H 0.2987 -0.1094 0.3819 0.060 Uiso 1 1 calc R U . . . 
H41B H 0.3237 -0.1992 0.4146 0.060 Uiso 1 1 calc R U . . . 
C42A C 0.4381(7) -0.1702(7) 0.3451(6) 0.058(2) Uani 1 1 d . . . . . 
H42A H 0.4748 -0.2286 0.3368 0.070 Uiso 1 1 calc R U . . . 
C43A C 0.4705(8) -0.1290(8) 0.2700(6) 0.070(3) Uani 1 1 d . . . . . 
H43A H 0.4386 -0.0709 0.2762 0.105 Uiso 1 1 calc R U . . . 
H43B H 0.4568 -0.1498 0.2265 0.105 Uiso 1 1 calc R U . . . 
H43C H 0.5376 -0.1391 0.2576 0.105 Uiso 1 1 calc R U . . . 
C44A C 0.4592(7) -0.1418(8) 0.4140(6) 0.067(3) Uani 1 1 d . . . . . 
H44A H 0.5265 -0.1539 0.4028 0.101 Uiso 1 1 calc R U . . . 
H44B H 0.4357 -0.1696 0.4627 0.101 Uiso 1 1 calc R U . . . 
H44C H 0.4292 -0.0836 0.4213 0.101 Uiso 1 1 calc R U . . . 
C45A C 0.3804(6) -0.2916(5) 0.2381(5) 0.046(2) Uani 1 1 d . . . . . 
H45A H 0.4335 -0.2760 0.2026 0.056 Uiso 1 1 calc R U . . . 
H45B H 0.4036 -0.3275 0.2793 0.056 Uiso 1 1 calc R U . . . 
C46A C 0.3527(6) -0.3409(5) 0.1890(6) 0.050(2) Uani 1 1 d . . . . . 
H46A H 0.2967 -0.3543 0.2234 0.060 Uiso 1 1 calc R U . . . 
C47A C 0.3288(7) -0.2962(6) 0.1157(6) 0.060(2) Uani 1 1 d . . . . . 
H47A H 0.2748 -0.2482 0.1327 0.089 Uiso 1 1 calc R U . . . 
H47B H 0.3144 -0.3318 0.0846 0.089 Uiso 1 1 calc R U . . . 
H47C H 0.3818 -0.2799 0.0827 0.089 Uiso 1 1 calc R U . . . 
C48A C 0.4295(7) -0.4199(6) 0.1594(7) 0.066(3) Uani 1 1 d . . . . . 
H48A H 0.4866 -0.4082 0.1291 0.099 Uiso 1 1 calc R U . . . 
H48B H 0.4104 -0.4484 0.1250 0.099 Uiso 1 1 calc R U . . . 
H48C H 0.4407 -0.4538 0.2052 0.099 Uiso 1 1 calc R U . . . 
Si1B Si 0.52769(14) 0.69785(13) 0.79512(12) 0.0341(5) Uani 1 1 d . . . . . 
Si2B Si 0.97004(16) 0.19475(17) 0.30825(15) 0.0532(7) Uani 1 1 d . . . . . 
C1B C 0.6929(5) 0.4939(4) 0.6227(4) 0.0315(15) Uani 1 1 d . . . . . 
C2B C 0.7907(5) 0.4726(4) 0.6046(4) 0.0294(15) Uani 1 1 d . . . . . 
C3B C 0.8341(5) 0.5110(5) 0.6430(4) 0.0365(17) Uani 1 1 d . . . . . 
H3B H 0.7965 0.5523 0.6813 0.044 Uiso 1 1 calc R U . E 1 
C4B C 0.9275(5) 0.4902(5) 0.6266(4) 0.0375(15) Uani 0.590(9) 1 d D U P F 1 
S5B S 0.9877(3) 0.5337(3) 0.6694(3) 0.0407(12) Uani 0.590(9) 1 d D U P F 1 
C6B C 1.0901(10) 0.4650(16) 0.6116(15) 0.040(2) Uani 0.590(9) 1 d D U P F 1 
F1B F 1.1700(7) 0.4720(13) 0.6192(12) 0.048(3) Uani 0.590(9) 1 d D U P F 1 
C7B C 1.0818(14) 0.4172(19) 0.5639(17) 0.0434(16) Uani 0.590(9) 1 d D U P F 1 
H7B H 1.1333 0.3795 0.5294 0.052 Uiso 0.590(9) 1 calc R U P F 1 
C8B C 0.9856(5) 0.4269(5) 0.5686(4) 0.0338(15) Uani 0.590(9) 1 d D U P F 1 
C4D C 0.9275(5) 0.4902(5) 0.6266(4) 0.0375(15) Uani 0.410(9) 1 d D U P F 2 
C5D C 0.991(2) 0.514(2) 0.659(2) 0.0407(12) Uani 0.410(9) 1 d D U P F 2 
H5D H 0.9703 0.5516 0.7014 0.049 Uiso 0.410(9) 1 calc R U P F 2 
F1D F 1.1518(12) 0.490(2) 0.6385(18) 0.048(3) Uani 0.410(9) 1 d D U P F 2 
C6D C 1.0780(13) 0.477(2) 0.624(2) 0.040(2) Uani 0.410(9) 1 d D U P F 2 
S7D S 1.1047(5) 0.4042(6) 0.5510(6) 0.0434(16) Uani 0.410(9) 1 d D U P F 2 
C8D C 0.9856(5) 0.4269(5) 0.5686(4) 0.0338(15) Uani 0.410(9) 1 d D U P F 2 
C9B C 0.9470(5) 0.3903(4) 0.5292(4) 0.0358(16) Uani 1 1 d . . . . . 
H9B H 0.9858 0.3501 0.4902 0.043 Uiso 1 1 calc R U . F 1 
C10B C 0.8486(5) 0.4118(4) 0.5458(4) 0.0302(15) Uani 1 1 d . . . . . 
C11B C 0.8063(5) 0.3750(4) 0.5054(4) 0.0300(15) Uani 1 1 d . . . . . 
C12B C 0.7097(5) 0.3929(4) 0.5263(4) 0.0298(15) Uani 1 1 d . . . . . 
C13B C 0.6667(6) 0.3542(4) 0.4874(4) 0.0364(17) Uani 1 1 d . . . . . 
H13B H 0.7043 0.3154 0.4467 0.044 Uiso 1 1 calc R U . G 1 
C14B C 0.5792(17) 0.371(3) 0.506(2) 0.037(2) Uani 0.566(9) 1 d D U P H 1 
S15B S 0.5137(4) 0.3297(4) 0.4651(3) 0.0432(12) Uani 0.566(9) 1 d D U P H 1 
C16B C 0.4122(12) 0.3871(16) 0.530(2) 0.039(3) Uani 0.566(9) 1 d D U P H 1 
F2B F 0.3322(9) 0.3758(14) 0.5289(12) 0.055(3) Uani 0.566(9) 1 d D U P H 1 
C17B C 0.4220(14) 0.4311(18) 0.5834(16) 0.0436(16) Uani 0.566(9) 1 d D U P H 1 
H17B H 0.3718 0.4642 0.6230 0.052 Uiso 0.566(9) 1 calc R U P H 1 
C18B C 0.516(2) 0.423(2) 0.573(3) 0.028(6) Uani 0.566(9) 1 d D U P H 1 
C14D C 0.565(2) 0.373(4) 0.510(3) 0.037(2) Uani 0.434(9) 1 d D U P H 2 
C15D C 0.508(2) 0.342(2) 0.4836(19) 0.0432(12) Uani 0.434(9) 1 d D U P H 2 
H15D H 0.5302 0.3044 0.4407 0.052 Uiso 0.434(9) 1 calc R U P H 2 
F2D F 0.3478(12) 0.3555(19) 0.5090(17) 0.055(3) Uani 0.434(9) 1 d D U P H 2 
C16D C 0.4202(14) 0.370(2) 0.525(3) 0.039(3) Uani 0.434(9) 1 d D U P H 2 
S17D S 0.3933(4) 0.4419(5) 0.5971(4) 0.0436(16) Uani 0.434(9) 1 d D U P H 2 
C18D C 0.512(2) 0.437(3) 0.570(5) 0.028(6) Uani 0.434(9) 1 d D U P H 2 
C19B C 0.5541(5) 0.4684(5) 0.6086(4) 0.0344(16) Uani 1 1 d . . . . . 
H19B H 0.5149 0.5093 0.6469 0.041 Uiso 1 1 calc R U . H 1 
C20B C 0.6515(5) 0.4524(4) 0.5858(4) 0.0301(15) Uani 1 1 d . . . . . 
C21B C 0.6359(5) 0.5578(5) 0.6770(4) 0.0346(16) Uani 1 1 d . . . . . 
C22B C 0.5900(5) 0.6137(5) 0.7225(5) 0.0381(17) Uani 1 1 d . . . . . 
C23B C 0.4306(6) 0.6707(5) 0.8715(5) 0.047(2) Uani 1 1 d . . . . . 
H23C H 0.4544 0.6135 0.8860 0.056 Uiso 1 1 calc R U . . . 
H23D H 0.4138 0.7035 0.9200 0.056 Uiso 1 1 calc R U . . . 
C24B C 0.3425(6) 0.6818(6) 0.8479(5) 0.052(2) Uani 1 1 d . . . . . 
H24B H 0.3188 0.7397 0.8335 0.063 Uiso 1 1 calc R U . . . 
C25B C 0.2684(7) 0.6644(9) 0.9181(6) 0.080(4) Uani 1 1 d . . . . . 
H25D H 0.2111 0.6745 0.9029 0.120 Uiso 1 1 calc R U . . . 
H25E H 0.2566 0.6996 0.9631 0.120 Uiso 1 1 calc R U . . . 
H25F H 0.2896 0.6079 0.9337 0.120 Uiso 1 1 calc R U . . . 
C26B C 0.3590(6) 0.6319(7) 0.7766(5) 0.056(2) Uani 1 1 d . . . . . 
H26D H 0.3974 0.6515 0.7294 0.083 Uiso 1 1 calc R U . . . 
H26E H 0.2993 0.6362 0.7678 0.083 Uiso 1 1 calc R U . . . 
H26F H 0.3909 0.5754 0.7859 0.083 Uiso 1 1 calc R U . . . 
C27B C 0.4747(6) 0.7933(5) 0.7465(5) 0.046(2) Uani 1 1 d . . . . . 
H27C H 0.4412 0.7800 0.7126 0.056 Uiso 1 1 calc R U . . . 
H27D H 0.4275 0.8300 0.7892 0.056 Uiso 1 1 calc R U . . . 
C28B C 0.5373(6) 0.8409(6) 0.6950(5) 0.049(2) Uani 1 1 d . . . . . 
H28B H 0.5752 0.8500 0.7278 0.059 Uiso 1 1 calc R U . . . 
C29B C 0.4804(10) 0.9208(7) 0.6754(9) 0.092(4) Uani 1 1 d . . . . . 
H29D H 0.5196 0.9559 0.6563 0.138 Uiso 1 1 calc R U . . . 
H29E H 0.4307 0.9448 0.7232 0.138 Uiso 1 1 calc R U . . . 
H29F H 0.4532 0.9148 0.6338 0.138 Uiso 1 1 calc R U . . . 
C30B C 0.6033(7) 0.7934(7) 0.6225(6) 0.068(3) Uani 1 1 d . . . . . 
H30D H 0.5683 0.7783 0.5919 0.102 Uiso 1 1 calc R U . . . 
H30E H 0.6452 0.7446 0.6389 0.102 Uiso 1 1 calc R U . . . 
H30F H 0.6397 0.8263 0.5891 0.102 Uiso 1 1 calc R U . . . 
C31B C 0.6186(6) 0.7110(5) 0.8353(5) 0.0431(18) Uani 1 1 d . . . . . 
H31C H 0.6579 0.7363 0.7931 0.052 Uiso 1 1 calc R U . . . 
H31D H 0.5870 0.7500 0.8802 0.052 Uiso 1 1 calc R U . . . 
C32B C 0.6833(5) 0.6367(6) 0.8649(5) 0.045(2) Uani 1 1 d . . . . . 
H32B H 0.7041 0.5924 0.8249 0.054 Uiso 1 1 calc R U . . . 
C33B C 0.7683(7) 0.6540(7) 0.8712(7) 0.070(3) Uani 1 1 d . . . . . 
H33D H 0.7498 0.6965 0.9111 0.105 Uiso 1 1 calc R U . . . 
H33E H 0.8002 0.6719 0.8193 0.105 Uiso 1 1 calc R U . . . 
H33F H 0.8102 0.6050 0.8872 0.105 Uiso 1 1 calc R U . . . 
C34B C 0.6336(7) 0.6075(7) 0.9449(6) 0.064(3) Uani 1 1 d . . . . . 
H34D H 0.6771 0.5607 0.9624 0.097 Uiso 1 1 calc R U . . . 
H34E H 0.5815 0.5923 0.9390 0.097 Uiso 1 1 calc R U . . . 
H34F H 0.6103 0.6509 0.9847 0.097 Uiso 1 1 calc R U . . . 
C35B C 0.8631(5) 0.3177(5) 0.4436(5) 0.0383(17) Uani 1 1 d . . . . . 
C36B C 0.9098(6) 0.2691(5) 0.3901(5) 0.047(2) Uani 1 1 d . . . . . 
C37B C 0.9150(9) 0.1046(9) 0.3429(8) 0.047(3) Uani 0.609(6) 1 d D U P B 1 
H37C H 0.9288 0.0716 0.2951 0.056 Uiso 0.609(6) 1 calc R U P B 1 
H37D H 0.9479 0.0700 0.3795 0.056 Uiso 0.609(6) 1 calc R U P B 1 
C38B C 0.8119(10) 0.1260(9) 0.3836(10) 0.046(4) Uani 0.609(6) 1 d D U P B 1 
H38B H 0.7981 0.1593 0.4318 0.055 Uiso 0.609(6) 1 calc R U P B 1 
C39B C 0.7522(11) 0.1760(10) 0.3305(9) 0.056(4) Uani 0.609(6) 1 d D U P B 1 
H39D H 0.6863 0.1880 0.3598 0.084 Uiso 0.609(6) 1 calc R U P B 1 
H39E H 0.7669 0.2265 0.3159 0.084 Uiso 0.609(6) 1 calc R U P B 1 
H39F H 0.7652 0.1452 0.2821 0.084 Uiso 0.609(6) 1 calc R U P B 1 
C40B C 0.7829(14) 0.0512(11) 0.4115(11) 0.076(5) Uani 0.609(6) 1 d D U P B 1 
H40D H 0.7159 0.0671 0.4375 0.114 Uiso 0.609(6) 1 calc R U P B 1 
H40E H 0.7978 0.0164 0.3655 0.114 Uiso 0.609(6) 1 calc R U P B 1 
H40F H 0.8162 0.0219 0.4495 0.114 Uiso 0.609(6) 1 calc R U P B 1 
C37D C 0.8800(13) 0.1642(11) 0.2890(11) 0.044(4) Uani 0.391(6) 1 d D U P B 2 
H37E H 0.8389 0.2111 0.2680 0.052 Uiso 0.391(6) 1 calc R U P B 2 
H37F H 0.9090 0.1220 0.2470 0.052 Uiso 0.391(6) 1 calc R U P B 2 
C38D C 0.8214(13) 0.1321(13) 0.3611(14) 0.053(6) Uani 0.391(6) 1 d D U P B 2 
H38D H 0.8045 0.1694 0.4070 0.063 Uiso 0.391(6) 1 calc R U P B 2 
C39D C 0.7307(15) 0.128(2) 0.3484(16) 0.071(7) Uani 0.391(6) 1 d D U P B 2 
H39G H 0.6954 0.1073 0.3966 0.106 Uiso 0.391(6) 1 calc R U P B 2 
H39H H 0.6936 0.1826 0.3376 0.106 Uiso 0.391(6) 1 calc R U P B 2 
H39I H 0.7454 0.0928 0.3031 0.106 Uiso 0.391(6) 1 calc R U P B 2 
C40D C 0.875(2) 0.0490(15) 0.3838(19) 0.080(8) Uani 0.391(6) 1 d D U P B 2 
H40G H 0.8350 0.0299 0.4304 0.120 Uiso 0.391(6) 1 calc R U P B 2 
H40H H 0.8936 0.0116 0.3390 0.120 Uiso 0.391(6) 1 calc R U P B 2 
H40I H 0.9299 0.0516 0.3964 0.120 Uiso 0.391(6) 1 calc R U P B 2 
C41B C 1.0778(10) 0.1241(10) 0.3306(10) 0.051(3) Uani 0.609(6) 1 d D U P B 1 
H41C H 1.0600 0.1087 0.3874 0.061 Uiso 0.609(6) 1 calc R U P B 1 
H41D H 1.0968 0.0745 0.2986 0.061 Uiso 0.609(6) 1 calc R U P B 1 
C42B C 1.1623(9) 0.1510(9) 0.3168(10) 0.053(3) Uani 0.609(6) 1 d D U P B 1 
H42B H 1.1805 0.1662 0.2593 0.063 Uiso 0.609(6) 1 calc R U P B 1 
C43B C 1.2445(13) 0.0860(14) 0.332(2) 0.074(8) Uani 0.609(6) 1 d D U P B 1 
H43D H 1.2970 0.1072 0.3220 0.110 Uiso 0.609(6) 1 calc R U P B 1 
H43E H 1.2284 0.0685 0.3876 0.110 Uiso 0.609(6) 1 calc R U P B 1 
H43F H 1.2616 0.0401 0.2963 0.110 Uiso 0.609(6) 1 calc R U P B 1 
C44B C 1.137(3) 0.2289(15) 0.368(3) 0.067(5) Uani 0.609(6) 1 d D U P B 1 
H44D H 1.0837 0.2701 0.3567 0.101 Uiso 0.609(6) 1 calc R U P B 1 
H44E H 1.1222 0.2155 0.4246 0.101 Uiso 0.609(6) 1 calc R U P B 1 
H44F H 1.1904 0.2497 0.3539 0.101 Uiso 0.609(6) 1 calc R U P B 1 
C41D C 1.0960(16) 0.1536(16) 0.2948(14) 0.051(3) Uani 0.391(6) 1 d D . P B 2 
H41E H 1.1168 0.0987 0.2721 0.061 Uiso 0.391(6) 1 calc R U P B 2 
H41F H 1.1260 0.1867 0.2538 0.061 Uiso 0.391(6) 1 calc R U P B 2 
C42D C 1.1342(15) 0.1479(14) 0.3649(14) 0.053(3) Uani 0.391(6) 1 d D . P B 2 
H42D H 1.0871 0.1399 0.4146 0.063 Uiso 0.391(6) 1 calc R U P B 2 
C43D C 1.223(2) 0.079(2) 0.356(4) 0.074(8) Uani 0.391(6) 1 d D . P B 2 
H43G H 1.2457 0.0778 0.4027 0.110 Uiso 0.391(6) 1 calc R U P B 2 
H43H H 1.2120 0.0283 0.3515 0.110 Uiso 0.391(6) 1 calc R U P B 2 
H43I H 1.2702 0.0873 0.3078 0.110 Uiso 0.391(6) 1 calc R U P B 2 
C44D C 1.154(4) 0.229(2) 0.373(5) 0.067(5) Uani 0.391(6) 1 d D . P B 2 
H44G H 1.1794 0.2261 0.4181 0.101 Uiso 0.391(6) 1 calc R U P B 2 
H44H H 1.1998 0.2381 0.3236 0.101 Uiso 0.391(6) 1 calc R U P B 2 
H44I H 1.0967 0.2744 0.3808 0.101 Uiso 0.391(6) 1 calc R U P B 2 
C45B C 0.9535(11) 0.2341(10) 0.2146(9) 0.058(3) Uani 0.609(6) 1 d D U P B 1 
H45C H 0.9914 0.1929 0.1726 0.070 Uiso 0.609(6) 1 calc R U P B 1 
H45D H 0.8875 0.2453 0.2169 0.070 Uiso 0.609(6) 1 calc R U P B 1 
C46B C 0.9806(12) 0.3132(10) 0.1914(11) 0.064(3) Uani 0.609(6) 1 d D U P B 1 
H46B H 1.0310 0.3115 0.2155 0.077 Uiso 0.609(6) 1 calc R U P B 1 
C47B C 0.898(2) 0.3845(15) 0.2256(19) 0.070(7) Uani 0.609(6) 1 d D U P B 1 
H47D H 0.8755 0.3778 0.2833 0.105 Uiso 0.609(6) 1 calc R U P B 1 
H47E H 0.9168 0.4337 0.2151 0.105 Uiso 0.609(6) 1 calc R U P B 1 
H47F H 0.8493 0.3888 0.2008 0.105 Uiso 0.609(6) 1 calc R U P B 1 
C48B C 1.015(2) 0.3250(19) 0.1030(12) 0.080(6) Uani 0.609(6) 1 d D U P B 1 
H48D H 1.0683 0.2788 0.0797 0.121 Uiso 0.609(6) 1 calc R U P B 1 
H48E H 0.9649 0.3294 0.0786 0.121 Uiso 0.609(6) 1 calc R U P B 1 
H48F H 1.0324 0.3744 0.0930 0.121 Uiso 0.609(6) 1 calc R U P B 1 
C45D C 1.0191(16) 0.2570(15) 0.2085(13) 0.058(3) Uani 0.391(6) 1 d D U P B 2 
H45E H 1.0489 0.2924 0.2243 0.070 Uiso 0.391(6) 1 calc R U P B 2 
H45F H 1.0682 0.2173 0.1694 0.070 Uiso 0.391(6) 1 calc R U P B 2 
C46D C 0.9480(17) 0.3095(15) 0.1654(15) 0.064(3) Uani 0.391(6) 1 d D U P B 2 
H46D H 0.9101 0.2765 0.1575 0.077 Uiso 0.391(6) 1 calc R U P B 2 
C47D C 0.885(4) 0.380(2) 0.218(3) 0.070(7) Uani 0.391(6) 1 d D U P B 2 
H47G H 0.8553 0.3610 0.2697 0.105 Uiso 0.391(6) 1 calc R U P B 2 
H47H H 0.9204 0.4142 0.2246 0.105 Uiso 0.391(6) 1 calc R U P B 2 
H47I H 0.8365 0.4117 0.1927 0.105 Uiso 0.391(6) 1 calc R U P B 2 
C48D C 0.993(3) 0.338(3) 0.0857(19) 0.080(6) Uani 0.391(6) 1 d D U P B 2 
H48G H 1.0343 0.2918 0.0518 0.121 Uiso 0.391(6) 1 calc R U P B 2 
H48H H 0.9450 0.3698 0.0606 0.121 Uiso 0.391(6) 1 calc R U P B 2 
H48I H 1.0288 0.3722 0.0925 0.121 Uiso 0.391(6) 1 calc R U P B 2 
 
loop_ 
 _atom_site_aniso_label 
 _atom_site_aniso_U_11 
 _atom_site_aniso_U_22 
 _atom_site_aniso_U_33 
 _atom_site_aniso_U_23 
 _atom_site_aniso_U_13 
 _atom_site_aniso_U_12 
Si1A 0.0446(12) 0.0490(13) 0.0378(11) 0.0156(10) -0.0193(9) -0.0214(10) 
Si2A 0.0458(12) 0.0417(12) 0.0372(11) 0.0091(9) -0.0202(9) -0.0207(10) 
C1A 0.038(4) 0.033(4) 0.030(4) 0.004(3) -0.014(3) -0.009(3) 
C2A 0.042(4) 0.033(4) 0.023(3) 0.005(3) -0.007(3) -0.015(3) 
C3A 0.046(4) 0.041(4) 0.037(4) 0.003(3) -0.011(3) -0.016(4) 
C4A 0.045(4) 0.043(4) 0.036(3) -0.006(3) -0.011(3) -0.017(3) 
S5A 0.0408(16) 0.047(2) 0.040(3) -0.0010(15) -0.0106(16) -0.0201(13) 
C6A 0.039(3) 0.042(6) 0.036(5) -0.005(3) -0.012(3) -0.017(3) 
F1A 0.045(3) 0.062(10) 0.052(9) 0.000(5) -0.018(3) -0.027(4) 
C7A 0.050(3) 0.048(3) 0.033(3) -0.001(2) -0.0158(19) -0.021(2) 
C8A 0.039(3) 0.039(4) 0.035(3) -0.010(3) -0.012(3) -0.013(3) 
C4C 0.045(4) 0.043(4) 0.036(3) -0.006(3) -0.011(3) -0.017(3) 
C5C 0.0408(16) 0.047(2) 0.040(3) -0.0010(15) -0.0106(16) -0.0201(13) 
F1C 0.045(3) 0.062(10) 0.052(9) 0.000(5) -0.018(3) -0.027(4) 
C6C 0.039(3) 0.042(6) 0.036(5) -0.005(3) -0.012(3) -0.017(3) 
S7C 0.050(3) 0.048(3) 0.033(3) -0.001(2) -0.0158(19) -0.021(2) 
C8C 0.039(3) 0.039(4) 0.035(3) -0.010(3) -0.012(3) -0.013(3) 
C9A 0.042(4) 0.042(4) 0.026(4) 0.001(3) -0.014(3) -0.012(3) 
C10A 0.041(4) 0.030(4) 0.024(3) 0.001(3) -0.014(3) -0.010(3) 
C11A 0.045(4) 0.036(4) 0.032(4) -0.008(3) -0.013(3) -0.015(3) 
C12A 0.039(4) 0.033(4) 0.028(3) 0.002(3) -0.014(3) -0.016(3) 
C13A 0.043(4) 0.042(4) 0.027(4) -0.005(3) -0.008(3) -0.018(3) 
C14A 0.044(3) 0.043(4) 0.034(3) 0.001(3) -0.014(3) -0.016(3) 
S15A 0.0413(18) 0.052(3) 0.035(2) 0.0030(18) -0.0120(15) -0.0233(17) 
C16A 0.036(3) 0.053(5) 0.041(6) 0.002(4) -0.013(3) -0.018(3) 
F2A 0.039(3) 0.075(8) 0.049(9) 0.013(6) -0.019(4) -0.026(3) 
C17A 0.042(3) 0.050(3) 0.045(3) 0.001(2) -0.0187(18) -0.017(2) 
C18A 0.042(3) 0.043(4) 0.029(3) -0.006(3) -0.013(3) -0.015(3) 
C14C 0.044(3) 0.043(4) 0.034(3) 0.001(3) -0.014(3) -0.016(3) 
C15C 0.0413(18) 0.052(3) 0.035(2) 0.0030(18) -0.0120(15) -0.0233(17) 
F2C 0.039(3) 0.075(8) 0.049(9) 0.013(6) -0.019(4) -0.026(3) 
C16C 0.036(3) 0.053(5) 0.041(6) 0.002(4) -0.013(3) -0.018(3) 
S17C 0.042(3) 0.050(3) 0.045(3) 0.001(2) -0.0187(18) -0.017(2) 
C18C 0.042(3) 0.043(4) 0.029(3) -0.006(3) -0.013(3) -0.015(3) 
C19A 0.042(4) 0.033(4) 0.039(4) 0.000(3) -0.017(3) -0.013(3) 
C20A 0.038(4) 0.031(4) 0.024(3) -0.002(3) -0.009(3) -0.009(3) 
C21A 0.046(4) 0.040(4) 0.031(4) 0.008(3) -0.015(3) -0.015(3) 
C22A 0.042(4) 0.048(5) 0.043(4) 0.008(4) -0.016(3) -0.022(4) 
C23A 0.072(6) 0.062(6) 0.049(5) 0.013(4) -0.027(5) -0.033(5) 
C24A 0.050(5) 0.064(6) 0.069(6) 0.018(5) -0.022(5) -0.021(5) 
C25A 0.040(5) 0.067(7) 0.082(7) 0.012(6) -0.010(5) -0.014(5) 
C26A 0.050(6) 0.068(7) 0.094(9) 0.022(6) -0.013(5) -0.017(5) 
C27A 0.056(5) 0.072(7) 0.050(5) 0.006(5) -0.021(4) -0.015(5) 
C28A 0.056(6) 0.072(7) 0.051(6) 0.002(5) -0.013(4) -0.009(5) 
C29A 0.090(8) 0.120(11) 0.041(6) 0.000(6) -0.012(5) -0.009(8) 
C30A 0.087(8) 0.077(8) 0.053(6) 0.006(6) -0.011(6) -0.008(6) 
C31A 0.080(7) 0.077(7) 0.068(7) 0.029(6) -0.036(6) -0.047(6) 
C32A 0.082(7) 0.071(7) 0.070(7) 0.022(6) -0.043(6) -0.037(6) 
C33A 0.142(14) 0.21(2) 0.098(11) 0.053(12) -0.066(10) -0.125(14) 
C34A 0.124(12) 0.145(14) 0.084(9) 0.027(9) -0.056(9) -0.088(11) 
C35A 0.044(4) 0.042(4) 0.030(4) 0.002(3) -0.017(3) -0.015(3) 
C36A 0.044(4) 0.044(5) 0.039(4) 0.005(4) -0.016(3) -0.016(4) 
C37A 0.057(5) 0.051(5) 0.041(4) 0.003(4) -0.015(4) -0.027(4) 
C38A 0.054(5) 0.057(6) 0.047(5) 0.011(4) -0.019(4) -0.023(4) 
C39A 0.056(7) 0.089(10) 0.130(12) -0.009(8) -0.019(7) -0.028(6) 
C40A 0.065(7) 0.084(9) 0.083(8) -0.011(7) -0.020(6) -0.018(6) 
C41A 0.068(6) 0.046(5) 0.045(5) 0.013(4) -0.028(4) -0.022(4) 
C42A 0.069(6) 0.078(7) 0.048(5) 0.016(5) -0.035(5) -0.039(5) 
C43A 0.085(7) 0.098(9) 0.060(6) 0.022(6) -0.041(6) -0.059(7) 
C44A 0.067(6) 0.101(9) 0.057(6) 0.018(6) -0.038(5) -0.042(6) 
C45A 0.051(5) 0.048(5) 0.048(5) 0.018(4) -0.026(4) -0.020(4) 
C46A 0.058(5) 0.046(5) 0.055(5) 0.006(4) -0.019(4) -0.027(4) 
C47A 0.069(6) 0.064(6) 0.059(6) -0.006(5) -0.028(5) -0.028(5) 
C48A 0.072(7) 0.047(6) 0.077(7) -0.006(5) -0.015(5) -0.018(5) 
Si1B 0.0393(11) 0.0364(11) 0.0302(10) -0.0069(8) -0.0119(8) -0.0131(9) 
Si2B 0.0414(12) 0.0665(17) 0.0516(14) -0.0336(12) -0.0159(10) -0.0051(11) 
C1B 0.044(4) 0.035(4) 0.026(3) -0.003(3) -0.015(3) -0.019(3) 
C2B 0.042(4) 0.033(4) 0.019(3) -0.003(3) -0.011(3) -0.017(3) 
C3B 0.051(5) 0.039(4) 0.029(4) -0.003(3) -0.018(3) -0.018(4) 
C4B 0.048(3) 0.042(4) 0.029(3) 0.004(3) -0.017(3) -0.018(3) 
S5B 0.0456(17) 0.048(3) 0.036(2) -0.0023(17) -0.0178(14) -0.0194(18) 
C6B 0.041(3) 0.050(6) 0.035(6) 0.004(3) -0.020(3) -0.015(3) 
F1B 0.044(4) 0.061(10) 0.048(9) -0.004(5) -0.023(5) -0.017(6) 
C7B 0.050(4) 0.048(4) 0.039(3) 0.005(2) -0.020(3) -0.017(3) 
C8B 0.043(3) 0.039(4) 0.027(3) 0.006(3) -0.018(3) -0.016(3) 
C4D 0.048(3) 0.042(4) 0.029(3) 0.004(3) -0.017(3) -0.018(3) 
C5D 0.0456(17) 0.048(3) 0.036(2) -0.0023(17) -0.0178(14) -0.0194(18) 
F1D 0.044(4) 0.061(10) 0.048(9) -0.004(5) -0.023(5) -0.017(6) 
C6D 0.041(3) 0.050(6) 0.035(6) 0.004(3) -0.020(3) -0.015(3) 
S7D 0.050(4) 0.048(4) 0.039(3) 0.005(2) -0.020(3) -0.017(3) 
C8D 0.043(3) 0.039(4) 0.027(3) 0.006(3) -0.018(3) -0.016(3) 
C9B 0.055(5) 0.030(4) 0.022(3) -0.001(3) -0.011(3) -0.013(3) 
C10B 0.038(4) 0.028(4) 0.024(3) -0.003(3) -0.010(3) -0.009(3) 
C11B 0.043(4) 0.028(4) 0.021(3) -0.001(3) -0.014(3) -0.008(3) 
C12B 0.044(4) 0.030(4) 0.019(3) 0.000(3) -0.016(3) -0.010(3) 
C13B 0.059(5) 0.030(4) 0.027(4) -0.004(3) -0.019(3) -0.016(3) 
C14B 0.045(5) 0.036(4) 0.039(4) -0.005(3) -0.018(4) -0.017(5) 
S15B 0.0502(19) 0.044(3) 0.046(3) -0.0041(18) -0.0227(18) -0.0196(16) 
C16B 0.047(3) 0.040(8) 0.041(4) 0.005(5) -0.022(3) -0.022(4) 
F2B 0.050(4) 0.079(11) 0.051(9) -0.011(5) -0.018(5) -0.033(6) 
C17B 0.046(4) 0.051(3) 0.041(3) 0.000(2) -0.018(3) -0.019(3) 
C18B 0.044(4) 0.020(13) 0.027(6) 0.010(10) -0.020(3) -0.014(5) 
C14D 0.045(5) 0.036(4) 0.039(4) -0.005(3) -0.018(4) -0.017(5) 
C15D 0.0502(19) 0.044(3) 0.046(3) -0.0041(18) -0.0227(18) -0.0196(16) 
F2D 0.050(4) 0.079(11) 0.051(9) -0.011(5) -0.018(5) -0.033(6) 
C16D 0.047(3) 0.040(8) 0.041(4) 0.005(5) -0.022(3) -0.022(4) 
S17D 0.046(4) 0.051(3) 0.041(3) 0.000(2) -0.018(3) -0.019(3) 
C18D 0.044(4) 0.020(13) 0.027(6) 0.010(10) -0.020(3) -0.014(5) 
C19B 0.043(4) 0.039(4) 0.020(3) -0.002(3) -0.013(3) -0.007(3) 
C20B 0.045(4) 0.032(4) 0.017(3) -0.001(3) -0.014(3) -0.012(3) 
C21B 0.041(4) 0.042(4) 0.028(4) -0.003(3) -0.016(3) -0.015(3) 
C22B 0.039(4) 0.039(4) 0.040(4) -0.007(3) -0.016(3) -0.012(3) 
C23B 0.052(5) 0.047(5) 0.047(5) -0.012(4) -0.022(4) -0.012(4) 
C24B 0.045(5) 0.068(6) 0.045(5) -0.004(4) -0.011(4) -0.019(4) 
C25B 0.050(6) 0.149(12) 0.051(6) 0.006(7) -0.010(5) -0.048(7) 
C26B 0.051(5) 0.087(7) 0.046(5) -0.012(5) -0.017(4) -0.037(5) 
C27B 0.043(4) 0.043(5) 0.056(5) -0.004(4) -0.016(4) -0.015(4) 
C28B 0.059(5) 0.054(5) 0.045(5) 0.001(4) -0.026(4) -0.022(4) 
C29B 0.130(11) 0.066(8) 0.101(10) 0.038(7) -0.057(9) -0.046(8) 
C30B 0.076(7) 0.082(8) 0.056(6) 0.022(5) -0.015(5) -0.045(6) 
C31B 0.051(5) 0.038(4) 0.041(4) -0.012(3) -0.010(4) -0.015(4) 
C32B 0.045(4) 0.065(6) 0.034(4) -0.009(4) -0.021(3) -0.016(4) 
C33B 0.059(6) 0.073(7) 0.093(8) 0.008(6) -0.041(6) -0.024(5) 
C34B 0.068(6) 0.078(7) 0.052(6) 0.019(5) -0.033(5) -0.018(5) 
C35B 0.044(4) 0.039(4) 0.036(4) -0.007(3) -0.016(3) -0.012(3) 
C36B 0.047(5) 0.051(5) 0.048(5) -0.010(4) -0.022(4) -0.012(4) 
C37B 0.056(6) 0.053(8) 0.038(6) -0.018(6) -0.024(5) -0.010(5) 
C38B 0.054(7) 0.048(8) 0.038(7) -0.005(6) -0.019(5) -0.012(6) 
C39B 0.053(8) 0.068(9) 0.049(8) -0.003(7) -0.023(6) -0.013(7) 
C40B 0.097(11) 0.060(8) 0.071(10) -0.009(7) -0.011(8) -0.033(8) 
C37D 0.063(11) 0.031(9) 0.040(9) -0.019(7) -0.023(8) -0.004(8) 
C38D 0.071(12) 0.047(12) 0.046(11) -0.013(8) -0.023(8) -0.017(9) 
C39D 0.079(12) 0.089(18) 0.058(15) 0.016(13) -0.034(10) -0.036(11) 
C40D 0.098(16) 0.060(11) 0.092(18) 0.006(11) -0.046(13) -0.021(10) 
C41B 0.053(6) 0.057(8) 0.048(9) -0.002(6) -0.018(6) -0.021(5) 
C42B 0.043(6) 0.055(6) 0.059(8) -0.012(6) -0.011(5) -0.014(5) 
C43B 0.055(9) 0.058(7) 0.11(2) -0.010(9) -0.035(13) -0.010(7) 
C44B 0.046(13) 0.063(6) 0.101(10) -0.028(6) -0.035(9) -0.008(6) 
C41D 0.053(6) 0.057(8) 0.048(9) -0.002(6) -0.018(6) -0.021(5) 
C42D 0.043(6) 0.055(6) 0.059(8) -0.012(6) -0.011(5) -0.014(5) 
C43D 0.055(9) 0.058(7) 0.11(2) -0.010(9) -0.035(13) -0.010(7) 
C44D 0.046(13) 0.063(6) 0.101(10) -0.028(6) -0.035(9) -0.008(6) 
C45B 0.066(7) 0.064(6) 0.050(6) -0.020(5) -0.004(5) -0.031(5) 
C46B 0.068(7) 0.066(6) 0.066(7) -0.014(5) -0.012(5) -0.033(5) 
C47B 0.079(11) 0.070(6) 0.063(8) -0.010(5) -0.015(7) -0.025(6) 
C48B 0.087(13) 0.086(10) 0.066(7) -0.007(6) -0.006(7) -0.035(9) 
C45D 0.066(7) 0.064(6) 0.050(6) -0.020(5) -0.004(5) -0.031(5) 
C46D 0.068(7) 0.066(6) 0.066(7) -0.014(5) -0.012(5) -0.033(5) 
C47D 0.079(11) 0.070(6) 0.063(8) -0.010(5) -0.015(7) -0.025(6) 
C48D 0.087(13) 0.086(10) 0.066(7) -0.007(6) -0.006(7) -0.035(9) 
 
_geom_special_details 
; 
 All esds (except the esd in the dihedral angle between two l.s. planes) 
 are estimated using the full covariance matrix.  The cell esds are taken 
 into account individually in the estimation of esds in distances, angles 
 and torsion angles; correlations between esds in cell parameters are only 
 used when they are defined by crystal symmetry.  An approximate (isotropic) 
 treatment of cell esds is used for estimating esds involving l.s. planes. 
; 
 
loop_ 
 _geom_bond_atom_site_label_1 
 _geom_bond_atom_site_label_2 
 _geom_bond_distance 
 _geom_bond_site_symmetry_2 
 _geom_bond_publ_flag 
Si1A C22A 1.831(8) . ? 
Si1A C27A 1.859(10) . ? 
Si1A C31A 1.873(10) . ? 
Si1A C23A 1.888(10) . ? 
Si2A C36A 1.839(8) . ? 
Si2A C45A 1.873(9) . ? 
Si2A C37A 1.884(8) . ? 
Si2A C41A 1.886(9) . ? 
C1A C20A 1.407(10) . ? 
C1A C2A 1.416(10) . ? 
C1A C21A 1.441(10) . ? 
C2A C3A 1.409(10) . ? 
C2A C10A 1.438(10) . ? 
C3A C4A 1.360(11) . ? 
C3A H3A 0.9500 . ? 
C4A C8A 1.453(11) . ? 
C4A S5A 1.720(8) . ? 
S5A C6A 1.752(19) . ? 
C6A C7A 1.30(3) . ? 
C6A F1A 1.352(11) . ? 
C7A C8A 1.46(2) . ? 
C7A H7A 0.9500 . ? 
C8A C9A 1.359(10) . ? 
C5C C6C 1.29(3) . ? 
C5C H5C 0.9500 . ? 
F1C C6C 1.359(14) . ? 
C6C S7C 1.75(3) . ? 
C9A C10A 1.430(10) . ? 
C9A H9A 0.9500 . ? 
C10A C11A 1.413(10) . ? 
C11A C35A 1.416(11) . ? 
C11A C12A 1.418(10) . ? 
C12A C13A 1.412(10) . ? 
C12A C20A 1.423(10) . ? 
C13A C14A 1.369(10) . ? 
C13A H13A 0.9500 . ? 
C14A C18A 1.424(11) . ? 
C14A S15A 1.745(8) . ? 
S15A C16A 1.76(2) . ? 
C16A C17A 1.30(3) . ? 
C16A F2A 1.351(12) . ? 
C17A C18A 1.44(2) . ? 
C17A H17A 0.9500 . ? 
C18A C19A 1.386(10) . ? 
C15C C16C 1.31(3) . ? 
C15C H15C 0.9500 . ? 
F2C C16C 1.355(13) . ? 
C16C S17C 1.75(3) . ? 
C19A C20A 1.435(10) . ? 
C19A H19A 0.9500 . ? 
C21A C22A 1.220(11) . ? 
C23A C24A 1.508(13) . ? 
C23A H23A 0.9900 . ? 
C23A H23B 0.9900 . ? 
C24A C25A 1.503(14) . ? 
C24A C26A 1.548(14) . ? 
C24A H24A 1.0000 . ? 
C25A H25A 0.9800 . ? 
C25A H25B 0.9800 . ? 
C25A H25C 0.9800 . ? 
C26A H26A 0.9800 . ? 
C26A H26B 0.9800 . ? 
C26A H26C 0.9800 . ? 
C27A C28A 1.533(13) . ? 
C27A H27A 0.9900 . ? 
C27A H27B 0.9900 . ? 
C28A C29A 1.495(15) . ? 
C28A C30A 1.522(15) . ? 
C28A H28A 1.0000 . ? 
C29A H29A 0.9800 . ? 
C29A H29B 0.9800 . ? 
C29A H29C 0.9800 . ? 
C30A H30A 0.9800 . ? 
C30A H30B 0.9800 . ? 
C30A H30C 0.9800 . ? 
C31A C32A 1.522(15) . ? 
C31A H31A 0.9900 . ? 
C31A H31B 0.9900 . ? 
C32A C34A 1.479(18) . ? 
C32A C33A 1.537(16) . ? 
C32A H32A 1.0000 . ? 
C33A H33A 0.9800 . ? 
C33A H33B 0.9800 . ? 
C33A H33C 0.9800 . ? 
C34A H34A 0.9800 . ? 
C34A H34B 0.9800 . ? 
C34A H34C 0.9800 . ? 
C35A C36A 1.225(11) . ? 
C37A C38A 1.522(13) . ? 
C37A H37A 0.9900 . ? 
C37A H37B 0.9900 . ? 
C38A C40A 1.497(14) . ? 
C38A C39A 1.518(14) . ? 
C38A H38A 1.0000 . ? 
C39A H39A 0.9800 . ? 
C39A H39B 0.9800 . ? 
C39A H39C 0.9800 . ? 
C40A H40A 0.9800 . ? 
C40A H40B 0.9800 . ? 
C40A H40C 0.9800 . ? 
C41A C42A 1.522(13) . ? 
C41A H41A 0.9900 . ? 
C41A H41B 0.9900 . ? 
C42A C43A 1.480(13) . ? 
C42A C44A 1.508(13) . ? 
C42A H42A 1.0000 . ? 
C43A H43A 0.9800 . ? 
C43A H43B 0.9800 . ? 
C43A H43C 0.9800 . ? 
C44A H44A 0.9800 . ? 
C44A H44B 0.9800 . ? 
C44A H44C 0.9800 . ? 
C45A C46A 1.509(12) . ? 
C45A H45A 0.9900 . ? 
C45A H45B 0.9900 . ? 
C46A C47A 1.526(13) . ? 
C46A C48A 1.530(13) . ? 
C46A H46A 1.0000 . ? 
C47A H47A 0.9800 . ? 
C47A H47B 0.9800 . ? 
C47A H47C 0.9800 . ? 
C48A H48A 0.9800 . ? 
C48A H48B 0.9800 . ? 
C48A H48C 0.9800 . ? 
Si1B C22B 1.851(8) . ? 
Si1B C31B 1.863(8) . ? 
Si1B C27B 1.870(9) . ? 
Si1B C23B 1.879(9) . ? 
Si2B C45B 1.783(17) . ? 
Si2B C37D 1.800(18) . ? 
Si2B C36B 1.842(9) . ? 
Si2B C41D 1.84(2) . ? 
Si2B C41B 1.886(15) . ? 
Si2B C37B 2.005(15) . ? 
Si2B C45D 2.06(2) . ? 
C1B C2B 1.417(10) . ? 
C1B C21B 1.418(10) . ? 
C1B C20B 1.419(9) . ? 
C2B C3B 1.425(9) . ? 
C2B C10B 1.431(9) . ? 
C3B C4B 1.352(11) . ? 
C3B H3B 0.9500 . ? 
C4B C8B 1.450(11) . ? 
C4B S5B 1.747(8) . ? 
S5B C6B 1.762(19) . ? 
C6B C7B 1.29(3) . ? 
C6B F1B 1.356(11) . ? 
C7B C8B 1.46(2) . ? 
C7B H7B 0.9500 . ? 
C8B C9B 1.357(10) . ? 
C5D C6D 1.30(3) . ? 
C5D H5D 0.9500 . ? 
F1D C6D 1.352(14) . ? 
C6D S7D 1.76(2) . ? 
C9B C10B 1.427(10) . ? 
C9B H9B 0.9500 . ? 
C10B C11B 1.416(9) . ? 
C11B C12B 1.399(10) . ? 
C11B C35B 1.423(10) . ? 
C12B C20B 1.427(9) . ? 
C12B C13B 1.428(10) . ? 
C13B C14B 1.27(3) . ? 
C13B C14D 1.47(3) . ? 
C13B H13B 0.9500 . ? 
C14B C18B 1.458(15) . ? 
C14B S15B 1.77(3) . ? 
S15B C16B 1.73(2) . ? 
C16B C17B 1.33(3) . ? 
C16B F2B 1.354(12) . ? 
C17B C18B 1.40(4) . ? 
C17B H17B 0.9500 . ? 
C18B C19B 1.42(3) . ? 
C14D C15D 1.40(4) . ? 
C14D C18D 1.459(17) . ? 
C15D C16D 1.32(4) . ? 
C15D H15D 0.9500 . ? 
F2D C16D 1.356(14) . ? 
C16D S17D 1.74(3) . ? 
S17D C18D 1.77(3) . ? 
C18D C19B 1.34(4) . ? 
C19B C20B 1.415(10) . ? 
C19B H19B 0.9500 . ? 
C21B C22B 1.210(11) . ? 
C23B C24B 1.521(11) . ? 
C23B H23C 0.9900 . ? 
C23B H23D 0.9900 . ? 
C24B C26B 1.500(12) . ? 
C24B C25B 1.516(13) . ? 
C24B H24B 1.0000 . ? 
C25B H25D 0.9800 . ? 
C25B H25E 0.9800 . ? 
C25B H25F 0.9800 . ? 
C26B H26D 0.9800 . ? 
C26B H26E 0.9800 . ? 
C26B H26F 0.9800 . ? 
C27B C28B 1.537(12) . ? 
C27B H27C 0.9900 . ? 
C27B H27D 0.9900 . ? 
C28B C29B 1.476(15) . ? 
C28B C30B 1.501(14) . ? 
C28B H28B 1.0000 . ? 
C29B H29D 0.9800 . ? 
C29B H29E 0.9800 . ? 
C29B H29F 0.9800 . ? 
C30B H30D 0.9800 . ? 
C30B H30E 0.9800 . ? 
C30B H30F 0.9800 . ? 
C31B C32B 1.535(12) . ? 
C31B H31C 0.9900 . ? 
C31B H31D 0.9900 . ? 
C32B C33B 1.508(12) . ? 
C32B C34B 1.526(13) . ? 
C32B H32B 1.0000 . ? 
C33B H33D 0.9800 . ? 
C33B H33E 0.9800 . ? 
C33B H33F 0.9800 . ? 
C34B H34D 0.9800 . ? 
C34B H34E 0.9800 . ? 
C34B H34F 0.9800 . ? 
C35B C36B 1.218(11) . ? 
C37B C38B 1.513(18) . ? 
C37B H37C 0.9900 . ? 
C37B H37D 0.9900 . ? 
C38B C40B 1.52(2) . ? 
C38B C39B 1.541(16) . ? 
C38B H38B 1.0000 . ? 
C39B H39D 0.9800 . ? 
C39B H39E 0.9800 . ? 
C39B H39F 0.9800 . ? 
C40B H40D 0.9800 . ? 
C40B H40E 0.9800 . ? 
C40B H40F 0.9800 . ? 
C37D C38D 1.516(19) . ? 
C37D H37E 0.9900 . ? 
C37D H37F 0.9900 . ? 
C38D C40D 1.52(2) . ? 
C38D C39D 1.540(18) . ? 
C38D H38D 1.0000 . ? 
C39D H39G 0.9800 . ? 
C39D H39H 0.9800 . ? 
C39D H39I 0.9800 . ? 
C40D H40G 0.9800 . ? 
C40D H40H 0.9800 . ? 
C40D H40I 0.9800 . ? 
C41B C42B 1.507(16) . ? 
C41B H41C 0.9900 . ? 
C41B H41D 0.9900 . ? 
C42B C43B 1.505(18) . ? 
C42B C44B 1.57(2) . ? 
C42B H42B 1.0000 . ? 
C43B H43D 0.9800 . ? 
C43B H43E 0.9800 . ? 
C43B H43F 0.9800 . ? 
C44B H44D 0.9800 . ? 
C44B H44E 0.9800 . ? 
C44B H44F 0.9800 . ? 
C41D C42D 1.51(2) . ? 
C41D H41E 0.9900 . ? 
C41D H41F 0.9900 . ? 
C42D C43D 1.51(2) . ? 
C42D C44D 1.58(3) . ? 
C42D H42D 1.0000 . ? 
C43D H43G 0.9800 . ? 
C43D H43H 0.9800 . ? 
C43D H43I 0.9800 . ? 
C44D H44G 0.9800 . ? 
C44D H44H 0.9800 . ? 
C44D H44I 0.9800 . ? 
C45B C46B 1.564(19) . ? 
C45B H45C 0.9900 . ? 
C45B H45D 0.9900 . ? 
C46B C47B 1.50(2) . ? 
C46B C48B 1.50(2) . ? 
C46B H46B 1.0000 . ? 
C47B H47D 0.9800 . ? 
C47B H47E 0.9800 . ? 
C47B H47F 0.9800 . ? 
C48B H48D 0.9800 . ? 
C48B H48E 0.9800 . ? 
C48B H48F 0.9800 . ? 
C45D C46D 1.55(2) . ? 
C45D H45E 0.9900 . ? 
C45D H45F 0.9900 . ? 
C46D C48D 1.49(2) . ? 
C46D C47D 1.50(2) . ? 
C46D H46D 1.0000 . ? 
C47D H47G 0.9800 . ? 
C47D H47H 0.9800 . ? 
C47D H47I 0.9800 . ? 
C48D H48G 0.9800 . ? 
C48D H48H 0.9800 . ? 
C48D H48I 0.9800 . ? 
 
loop_ 
 _geom_angle_atom_site_label_1 
 _geom_angle_atom_site_label_2 
 _geom_angle_atom_site_label_3 
 _geom_angle 
 _geom_angle_site_symmetry_1 
 _geom_angle_site_symmetry_3 
 _geom_angle_publ_flag 
C22A Si1A C27A 110.6(4) . . ? 
C22A Si1A C31A 106.9(4) . . ? 
C27A Si1A C31A 110.5(5) . . ? 
C22A Si1A C23A 108.3(4) . . ? 
C27A Si1A C23A 108.5(4) . . ? 
C31A Si1A C23A 112.0(5) . . ? 
C36A Si2A C45A 111.9(4) . . ? 
C36A Si2A C37A 105.0(4) . . ? 
C45A Si2A C37A 109.0(4) . . ? 
C36A Si2A C41A 108.3(4) . . ? 
C45A Si2A C41A 109.1(4) . . ? 
C37A Si2A C41A 113.5(4) . . ? 
C20A C1A C2A 121.5(6) . . ? 
C20A C1A C21A 119.8(6) . . ? 
C2A C1A C21A 118.7(6) . . ? 
C3A C2A C1A 122.7(7) . . ? 
C3A C2A C10A 119.1(7) . . ? 
C1A C2A C10A 118.1(6) . . ? 
C4A C3A C2A 121.6(7) . . ? 
C4A C3A H3A 119.2 . . ? 
C2A C3A H3A 119.2 . . ? 
C3A C4A C8A 119.6(6) . . ? 
C3A C4A S5A 124.9(6) . . ? 
C8A C4A S5A 115.5(5) . . ? 
C4A S5A C6A 87.1(5) . . ? 
C7A C6A F1A 125.5(17) . . ? 
C7A C6A S5A 117.7(11) . . ? 
F1A C6A S5A 116.8(12) . . ? 
C6A C7A C8A 112.8(16) . . ? 
C6A C7A H7A 123.6 . . ? 
C8A C7A H7A 123.6 . . ? 
C9A C8A C4A 120.0(6) . . ? 
C9A C8A C7A 133.1(11) . . ? 
C4A C8A C7A 106.8(10) . . ? 
C6C C5C H5C 122.8 . . ? 
C5C C6C F1C 126(2) . . ? 
C5C C6C S7C 118.5(14) . . ? 
F1C C6C S7C 115.3(17) . . ? 
C8A C9A C10A 121.1(7) . . ? 
C8A C9A H9A 119.4 . . ? 
C10A C9A H9A 119.4 . . ? 
C11A C10A C9A 121.1(6) . . ? 
C11A C10A C2A 120.5(6) . . ? 
C9A C10A C2A 118.4(6) . . ? 
C10A C11A C35A 120.1(7) . . ? 
C10A C11A C12A 120.2(7) . . ? 
C35A C11A C12A 119.8(7) . . ? 
C13A C12A C11A 121.6(7) . . ? 
C13A C12A C20A 118.8(6) . . ? 
C11A C12A C20A 119.5(6) . . ? 
C14A C13A C12A 121.0(7) . . ? 
C14A C13A H13A 119.5 . . ? 
C12A C13A H13A 119.5 . . ? 
C13A C14A C18A 120.7(6) . . ? 
C13A C14A S15A 123.7(6) . . ? 
C18A C14A S15A 115.6(5) . . ? 
C14A S15A C16A 86.3(6) . . ? 
C17A C16A F2A 126(2) . . ? 
C17A C16A S15A 116.8(12) . . ? 
F2A C16A S15A 116.9(15) . . ? 
C16A C17A C18A 113.7(18) . . ? 
C16A C17A H17A 123.2 . . ? 
C18A C17A H17A 123.2 . . ? 
C19A C18A C14A 120.1(6) . . ? 
C19A C18A C17A 132.3(12) . . ? 
C14A C18A C17A 107.5(11) . . ? 
C16C C15C H15C 122.9 . . ? 
C15C C16C F2C 126(2) . . ? 
C15C C16C S17C 117.1(13) . . ? 
F2C C16C S17C 117.0(16) . . ? 
C18A C19A C20A 119.5(7) . . ? 
C18A C19A H19A 120.3 . . ? 
C20A C19A H19A 120.3 . . ? 
C1A C20A C12A 119.9(6) . . ? 
C1A C20A C19A 120.4(6) . . ? 
C12A C20A C19A 119.7(6) . . ? 
C22A C21A C1A 179.3(10) . . ? 
C21A C22A Si1A 176.5(8) . . ? 
C24A C23A Si1A 118.8(7) . . ? 
C24A C23A H23A 107.6 . . ? 
Si1A C23A H23A 107.6 . . ? 
C24A C23A H23B 107.6 . . ? 
Si1A C23A H23B 107.6 . . ? 
H23A C23A H23B 107.0 . . ? 
C25A C24A C23A 112.4(9) . . ? 
C25A C24A C26A 110.2(8) . . ? 
C23A C24A C26A 110.9(8) . . ? 
C25A C24A H24A 107.7 . . ? 
C23A C24A H24A 107.7 . . ? 
C26A C24A H24A 107.7 . . ? 
C24A C25A H25A 109.5 . . ? 
C24A C25A H25B 109.5 . . ? 
H25A C25A H25B 109.5 . . ? 
C24A C25A H25C 109.5 . . ? 
H25A C25A H25C 109.5 . . ? 
H25B C25A H25C 109.5 . . ? 
C24A C26A H26A 109.5 . . ? 
C24A C26A H26B 109.5 . . ? 
H26A C26A H26B 109.5 . . ? 
C24A C26A H26C 109.5 . . ? 
H26A C26A H26C 109.5 . . ? 
H26B C26A H26C 109.5 . . ? 
C28A C27A Si1A 120.3(7) . . ? 
C28A C27A H27A 107.3 . . ? 
Si1A C27A H27A 107.3 . . ? 
C28A C27A H27B 107.3 . . ? 
Si1A C27A H27B 107.3 . . ? 
H27A C27A H27B 106.9 . . ? 
C29A C28A C30A 109.1(10) . . ? 
C29A C28A C27A 113.3(9) . . ? 
C30A C28A C27A 112.1(9) . . ? 
C29A C28A H28A 107.3 . . ? 
C30A C28A H28A 107.3 . . ? 
C27A C28A H28A 107.3 . . ? 
C28A C29A H29A 109.5 . . ? 
C28A C29A H29B 109.5 . . ? 
H29A C29A H29B 109.5 . . ? 
C28A C29A H29C 109.5 . . ? 
H29A C29A H29C 109.5 . . ? 
H29B C29A H29C 109.5 . . ? 
C28A C30A H30A 109.5 . . ? 
C28A C30A H30B 109.5 . . ? 
H30A C30A H30B 109.5 . . ? 
C28A C30A H30C 109.5 . . ? 
H30A C30A H30C 109.5 . . ? 
H30B C30A H30C 109.5 . . ? 
C32A C31A Si1A 120.7(8) . . ? 
C32A C31A H31A 107.2 . . ? 
Si1A C31A H31A 107.2 . . ? 
C32A C31A H31B 107.2 . . ? 
Si1A C31A H31B 107.2 . . ? 
H31A C31A H31B 106.8 . . ? 
C34A C32A C31A 112.4(10) . . ? 
C34A C32A C33A 111.5(12) . . ? 
C31A C32A C33A 109.6(10) . . ? 
C34A C32A H32A 107.7 . . ? 
C31A C32A H32A 107.7 . . ? 
C33A C32A H32A 107.7 . . ? 
C32A C33A H33A 109.5 . . ? 
C32A C33A H33B 109.5 . . ? 
H33A C33A H33B 109.5 . . ? 
C32A C33A H33C 109.5 . . ? 
H33A C33A H33C 109.5 . . ? 
H33B C33A H33C 109.5 . . ? 
C32A C34A H34A 109.5 . . ? 
C32A C34A H34B 109.5 . . ? 
H34A C34A H34B 109.5 . . ? 
C32A C34A H34C 109.5 . . ? 
H34A C34A H34C 109.5 . . ? 
H34B C34A H34C 109.5 . . ? 
C36A C35A C11A 177.3(9) . . ? 
C35A C36A Si2A 176.0(7) . . ? 
C38A C37A Si2A 118.9(6) . . ? 
C38A C37A H37A 107.6 . . ? 
Si2A C37A H37A 107.6 . . ? 
C38A C37A H37B 107.6 . . ? 
Si2A C37A H37B 107.6 . . ? 
H37A C37A H37B 107.0 . . ? 
C40A C38A C39A 109.9(9) . . ? 
C40A C38A C37A 113.6(8) . . ? 
C39A C38A C37A 108.9(8) . . ? 
C40A C38A H38A 108.1 . . ? 
C39A C38A H38A 108.1 . . ? 
C37A C38A H38A 108.1 . . ? 
C38A C39A H39A 109.5 . . ? 
C38A C39A H39B 109.5 . . ? 
H39A C39A H39B 109.5 . . ? 
C38A C39A H39C 109.5 . . ? 
H39A C39A H39C 109.5 . . ? 
H39B C39A H39C 109.5 . . ? 
C38A C40A H40A 109.5 . . ? 
C38A C40A H40B 109.5 . . ? 
H40A C40A H40B 109.5 . . ? 
C38A C40A H40C 109.5 . . ? 
H40A C40A H40C 109.5 . . ? 
H40B C40A H40C 109.5 . . ? 
C42A C41A Si2A 118.8(7) . . ? 
C42A C41A H41A 107.6 . . ? 
Si2A C41A H41A 107.6 . . ? 
C42A C41A H41B 107.6 . . ? 
Si2A C41A H41B 107.6 . . ? 
H41A C41A H41B 107.0 . . ? 
C43A C42A C44A 111.8(8) . . ? 
C43A C42A C41A 114.4(8) . . ? 
C44A C42A C41A 110.7(9) . . ? 
C43A C42A H42A 106.5 . . ? 
C44A C42A H42A 106.5 . . ? 
C41A C42A H42A 106.5 . . ? 
C42A C43A H43A 109.5 . . ? 
C42A C43A H43B 109.5 . . ? 
H43A C43A H43B 109.5 . . ? 
C42A C43A H43C 109.5 . . ? 
H43A C43A H43C 109.5 . . ? 
H43B C43A H43C 109.5 . . ? 
C42A C44A H44A 109.5 . . ? 
C42A C44A H44B 109.5 . . ? 
H44A C44A H44B 109.5 . . ? 
C42A C44A H44C 109.5 . . ? 
H44A C44A H44C 109.5 . . ? 
H44B C44A H44C 109.5 . . ? 
C46A C45A Si2A 119.3(6) . . ? 
C46A C45A H45A 107.5 . . ? 
Si2A C45A H45A 107.5 . . ? 
C46A C45A H45B 107.5 . . ? 
Si2A C45A H45B 107.5 . . ? 
H45A C45A H45B 107.0 . . ? 
C45A C46A C47A 112.8(7) . . ? 
C45A C46A C48A 112.0(8) . . ? 
C47A C46A C48A 107.1(8) . . ? 
C45A C46A H46A 108.2 . . ? 
C47A C46A H46A 108.2 . . ? 
C48A C46A H46A 108.2 . . ? 
C46A C47A H47A 109.5 . . ? 
C46A C47A H47B 109.5 . . ? 
H47A C47A H47B 109.5 . . ? 
C46A C47A H47C 109.5 . . ? 
H47A C47A H47C 109.5 . . ? 
H47B C47A H47C 109.5 . . ? 
C46A C48A H48A 109.5 . . ? 
C46A C48A H48B 109.5 . . ? 
H48A C48A H48B 109.5 . . ? 
C46A C48A H48C 109.5 . . ? 
H48A C48A H48C 109.5 . . ? 
H48B C48A H48C 109.5 . . ? 
C22B Si1B C31B 104.7(3) . . ? 
C22B Si1B C27B 111.9(4) . . ? 
C31B Si1B C27B 109.6(4) . . ? 
C22B Si1B C23B 108.5(4) . . ? 
C31B Si1B C23B 114.8(4) . . ? 
C27B Si1B C23B 107.4(4) . . ? 
C45B Si2B C36B 112.9(6) . . ? 
C37D Si2B C36B 105.1(6) . . ? 
C37D Si2B C41D 138.0(10) . . ? 
C36B Si2B C41D 113.2(7) . . ? 
C45B Si2B C41B 129.0(7) . . ? 
C36B Si2B C41B 108.2(6) . . ? 
C45B Si2B C37B 110.9(6) . . ? 
C36B Si2B C37B 104.1(5) . . ? 
C41B Si2B C37B 86.0(6) . . ? 
C37D Si2B C45D 106.0(9) . . ? 
C36B Si2B C45D 106.6(7) . . ? 
C41D Si2B C45D 79.3(10) . . ? 
C2B C1B C21B 119.8(6) . . ? 
C2B C1B C20B 120.4(6) . . ? 
C21B C1B C20B 119.8(6) . . ? 
C1B C2B C3B 121.6(6) . . ? 
C1B C2B C10B 120.0(6) . . ? 
C3B C2B C10B 118.4(6) . . ? 
C4B C3B C2B 121.8(7) . . ? 
C4B C3B H3B 119.1 . . ? 
C2B C3B H3B 119.1 . . ? 
C3B C4B C8B 119.5(6) . . ? 
C3B C4B S5B 125.6(6) . . ? 
C8B C4B S5B 114.9(5) . . ? 
C4B S5B C6B 86.7(5) . . ? 
C7B C6B F1B 127.2(18) . . ? 
C7B C6B S5B 117.7(12) . . ? 
F1B C6B S5B 115.0(12) . . ? 
C6B C7B C8B 113.2(18) . . ? 
C6B C7B H7B 123.4 . . ? 
C8B C7B H7B 123.4 . . ? 
C9B C8B C4B 120.5(6) . . ? 
C9B C8B C7B 132.2(12) . . ? 
C4B C8B C7B 107.3(11) . . ? 
C6D C5D H5D 123.4 . . ? 
C5D C6D F1D 127(2) . . ? 
C5D C6D S7D 117.9(13) . . ? 
F1D C6D S7D 115.5(16) . . ? 
C8B C9B C10B 120.6(7) . . ? 
C8B C9B H9B 119.7 . . ? 
C10B C9B H9B 119.7 . . ? 
C11B C10B C9B 121.9(6) . . ? 
C11B C10B C2B 118.9(6) . . ? 
C9B C10B C2B 119.2(6) . . ? 
C12B C11B C10B 121.0(6) . . ? 
C12B C11B C35B 119.6(6) . . ? 
C10B C11B C35B 119.4(6) . . ? 
C11B C12B C20B 120.5(6) . . ? 
C11B C12B C13B 121.3(6) . . ? 
C20B C12B C13B 118.2(7) . . ? 
C14B C13B C12B 121.1(16) . . ? 
C12B C13B C14D 120.8(17) . . ? 
C14B C13B H13B 119.4 . . ? 
C12B C13B H13B 119.4 . . ? 
C13B C14B C18B 124(3) . . ? 
C13B C14B S15B 128(2) . . ? 
C18B C14B S15B 108(2) . . ? 
C16B S15B C14B 90.2(10) . . ? 
C17B C16B F2B 126(2) . . ? 
C17B C16B S15B 116.2(12) . . ? 
F2B C16B S15B 117.1(13) . . ? 
C16B C17B C18B 112(2) . . ? 
C16B C17B H17B 124.2 . . ? 
C18B C17B H17B 124.2 . . ? 
C17B C18B C19B 129(2) . . ? 
C17B C18B C14B 114(3) . . ? 
C19B C18B C14B 116(3) . . ? 
C15D C14D C18D 112(3) . . ? 
C15D C14D C13B 131(3) . . ? 
C18D C14D C13B 117(3) . . ? 
C16D C15D C14D 113(2) . . ? 
C16D C15D H15D 123.7 . . ? 
C14D C15D H15D 123.7 . . ? 
C15D C16D F2D 126(2) . . ? 
C15D C16D S17D 116.5(13) . . ? 
F2D C16D S17D 116.8(17) . . ? 
C16D S17D C18D 89.1(13) . . ? 
C19B C18D C14D 121(4) . . ? 
C19B C18D S17D 128(3) . . ? 
C14D C18D S17D 109(3) . . ? 
C18D C19B C20B 122.3(18) . . ? 
C20B C19B C18B 119.1(13) . . ? 
C20B C19B H19B 120.4 . . ? 
C18B C19B H19B 120.4 . . ? 
C19B C20B C1B 120.8(6) . . ? 
C19B C20B C12B 120.2(6) . . ? 
C1B C20B C12B 119.0(7) . . ? 
C22B C21B C1B 177.5(8) . . ? 
C21B C22B Si1B 175.6(7) . . ? 
C24B C23B Si1B 117.0(6) . . ? 
C24B C23B H23C 108.0 . . ? 
Si1B C23B H23C 108.0 . . ? 
C24B C23B H23D 108.0 . . ? 
Si1B C23B H23D 108.0 . . ? 
H23C C23B H23D 107.3 . . ? 
C26B C24B C25B 110.9(9) . . ? 
C26B C24B C23B 112.8(7) . . ? 
C25B C24B C23B 110.4(8) . . ? 
C26B C24B H24B 107.5 . . ? 
C25B C24B H24B 107.5 . . ? 
C23B C24B H24B 107.5 . . ? 
C24B C25B H25D 109.5 . . ? 
C24B C25B H25E 109.5 . . ? 
H25D C25B H25E 109.5 . . ? 
C24B C25B H25F 109.5 . . ? 
H25D C25B H25F 109.5 . . ? 
H25E C25B H25F 109.5 . . ? 
C24B C26B H26D 109.5 . . ? 
C24B C26B H26E 109.5 . . ? 
H26D C26B H26E 109.5 . . ? 
C24B C26B H26F 109.5 . . ? 
H26D C26B H26F 109.5 . . ? 
H26E C26B H26F 109.5 . . ? 
C28B C27B Si1B 119.5(6) . . ? 
C28B C27B H27C 107.5 . . ? 
Si1B C27B H27C 107.5 . . ? 
C28B C27B H27D 107.5 . . ? 
Si1B C27B H27D 107.5 . . ? 
H27C C27B H27D 107.0 . . ? 
C29B C28B C30B 112.9(9) . . ? 
C29B C28B C27B 110.3(9) . . ? 
C30B C28B C27B 111.2(8) . . ? 
C29B C28B H28B 107.4 . . ? 
C30B C28B H28B 107.4 . . ? 
C27B C28B H28B 107.4 . . ? 
C28B C29B H29D 109.5 . . ? 
C28B C29B H29E 109.5 . . ? 
H29D C29B H29E 109.5 . . ? 
C28B C29B H29F 109.5 . . ? 
H29D C29B H29F 109.5 . . ? 
H29E C29B H29F 109.5 . . ? 
C28B C30B H30D 109.5 . . ? 
C28B C30B H30E 109.5 . . ? 
H30D C30B H30E 109.5 . . ? 
C28B C30B H30F 109.5 . . ? 
H30D C30B H30F 109.5 . . ? 
H30E C30B H30F 109.5 . . ? 
C32B C31B Si1B 119.0(6) . . ? 
C32B C31B H31C 107.6 . . ? 
Si1B C31B H31C 107.6 . . ? 
C32B C31B H31D 107.6 . . ? 
Si1B C31B H31D 107.6 . . ? 
H31C C31B H31D 107.0 . . ? 
C33B C32B C34B 110.2(7) . . ? 
C33B C32B C31B 110.9(8) . . ? 
C34B C32B C31B 111.7(7) . . ? 
C33B C32B H32B 108.0 . . ? 
C34B C32B H32B 108.0 . . ? 
C31B C32B H32B 108.0 . . ? 
C32B C33B H33D 109.5 . . ? 
C32B C33B H33E 109.5 . . ? 
H33D C33B H33E 109.5 . . ? 
C32B C33B H33F 109.5 . . ? 
H33D C33B H33F 109.5 . . ? 
H33E C33B H33F 109.5 . . ? 
C32B C34B H34D 109.5 . . ? 
C32B C34B H34E 109.5 . . ? 
H34D C34B H34E 109.5 . . ? 
C32B C34B H34F 109.5 . . ? 
H34D C34B H34F 109.5 . . ? 
H34E C34B H34F 109.5 . . ? 
C36B C35B C11B 178.4(8) . . ? 
C35B C36B Si2B 174.5(7) . . ? 
C38B C37B Si2B 118.2(10) . . ? 
C38B C37B H37C 107.8 . . ? 
Si2B C37B H37C 107.8 . . ? 
C38B C37B H37D 107.8 . . ? 
Si2B C37B H37D 107.8 . . ? 
H37C C37B H37D 107.1 . . ? 
C37B C38B C40B 111.5(12) . . ? 
C37B C38B C39B 113.1(13) . . ? 
C40B C38B C39B 109.0(13) . . ? 
C37B C38B H38B 107.7 . . ? 
C40B C38B H38B 107.7 . . ? 
C39B C38B H38B 107.7 . . ? 
C38B C39B H39D 109.5 . . ? 
C38B C39B H39E 109.5 . . ? 
H39D C39B H39E 109.5 . . ? 
C38B C39B H39F 109.5 . . ? 
H39D C39B H39F 109.5 . . ? 
H39E C39B H39F 109.5 . . ? 
C38B C40B H40D 109.5 . . ? 
C38B C40B H40E 109.5 . . ? 
H40D C40B H40E 109.5 . . ? 
C38B C40B H40F 109.5 . . ? 
H40D C40B H40F 109.5 . . ? 
H40E C40B H40F 109.5 . . ? 
C38D C37D Si2B 114.6(13) . . ? 
C38D C37D H37E 108.6 . . ? 
Si2B C37D H37E 108.6 . . ? 
C38D C37D H37F 108.6 . . ? 
Si2B C37D H37F 108.6 . . ? 
H37E C37D H37F 107.6 . . ? 
C37D C38D C40D 111.5(15) . . ? 
C37D C38D C39D 112.7(17) . . ? 
C40D C38D C39D 108.8(16) . . ? 
C37D C38D H38D 107.9 . . ? 
C40D C38D H38D 107.9 . . ? 
C39D C38D H38D 107.9 . . ? 
C38D C39D H39G 109.5 . . ? 
C38D C39D H39H 109.5 . . ? 
H39G C39D H39H 109.5 . . ? 
C38D C39D H39I 109.5 . . ? 
H39G C39D H39I 109.5 . . ? 
H39H C39D H39I 109.5 . . ? 
C38D C40D H40G 109.5 . . ? 
C38D C40D H40H 109.5 . . ? 
H40G C40D H40H 109.5 . . ? 
C38D C40D H40I 109.5 . . ? 
H40G C40D H40I 109.5 . . ? 
H40H C40D H40I 109.5 . . ? 
C42B C41B Si2B 119.8(12) . . ? 
C42B C41B H41C 107.4 . . ? 
Si2B C41B H41C 107.4 . . ? 
C42B C41B H41D 107.4 . . ? 
Si2B C41B H41D 107.4 . . ? 
H41C C41B H41D 106.9 . . ? 
C43B C42B C41B 113.4(15) . . ? 
C43B C42B C44B 111.3(15) . . ? 
C41B C42B C44B 109.9(18) . . ? 
C43B C42B H42B 107.3 . . ? 
C41B C42B H42B 107.3 . . ? 
C44B C42B H42B 107.3 . . ? 
C42B C43B H43D 109.5 . . ? 
C42B C43B H43E 109.5 . . ? 
H43D C43B H43E 109.5 . . ? 
C42B C43B H43F 109.5 . . ? 
H43D C43B H43F 109.5 . . ? 
H43E C43B H43F 109.5 . . ? 
C42B C44B H44D 109.5 . . ? 
C42B C44B H44E 109.5 . . ? 
H44D C44B H44E 109.5 . . ? 
C42B C44B H44F 109.5 . . ? 
H44D C44B H44F 109.5 . . ? 
H44E C44B H44F 109.5 . . ? 
C42D C41D Si2B 120.2(17) . . ? 
C42D C41D H41E 107.3 . . ? 
Si2B C41D H41E 107.3 . . ? 
C42D C41D H41F 107.3 . . ? 
Si2B C41D H41F 107.3 . . ? 
H41E C41D H41F 106.9 . . ? 
C41D C42D C43D 112(2) . . ? 
C41D C42D C44D 109(3) . . ? 
C43D C42D C44D 108(2) . . ? 
C41D C42D H42D 109.1 . . ? 
C43D C42D H42D 109.1 . . ? 
C44D C42D H42D 109.1 . . ? 
C42D C43D H43G 109.5 . . ? 
C42D C43D H43H 109.5 . . ? 
H43G C43D H43H 109.5 . . ? 
C42D C43D H43I 109.5 . . ? 
H43G C43D H43I 109.5 . . ? 
H43H C43D H43I 109.5 . . ? 
C42D C44D H44G 109.5 . . ? 
C42D C44D H44H 109.5 . . ? 
H44G C44D H44H 109.5 . . ? 
C42D C44D H44I 109.5 . . ? 
H44G C44D H44I 109.5 . . ? 
H44H C44D H44I 109.5 . . ? 
C46B C45B Si2B 113.0(11) . . ? 
C46B C45B H45C 109.0 . . ? 
Si2B C45B H45C 109.0 . . ? 
C46B C45B H45D 109.0 . . ? 
Si2B C45B H45D 109.0 . . ? 
H45C C45B H45D 107.8 . . ? 
C47B C46B C48B 108.5(17) . . ? 
C47B C46B C45B 109.4(19) . . ? 
C48B C46B C45B 114.0(17) . . ? 
C47B C46B H46B 108.3 . . ? 
C48B C46B H46B 108.3 . . ? 
C45B C46B H46B 108.3 . . ? 
C46B C47B H47D 109.5 . . ? 
C46B C47B H47E 109.5 . . ? 
H47D C47B H47E 109.5 . . ? 
C46B C47B H47F 109.5 . . ? 
H47D C47B H47F 109.5 . . ? 
H47E C47B H47F 109.5 . . ? 
C46B C48B H48D 109.5 . . ? 
C46B C48B H48E 109.5 . . ? 
H48D C48B H48E 109.5 . . ? 
C46B C48B H48F 109.5 . . ? 
H48D C48B H48F 109.5 . . ? 
H48E C48B H48F 109.5 . . ? 
C46D C45D Si2B 117.5(16) . . ? 
C46D C45D H45E 107.9 . . ? 
Si2B C45D H45E 107.9 . . ? 
C46D C45D H45F 107.9 . . ? 
Si2B C45D H45F 107.9 . . ? 
H45E C45D H45F 107.2 . . ? 
C48D C46D C47D 110(2) . . ? 
C48D C46D C45D 113(2) . . ? 
C47D C46D C45D 109(3) . . ? 
C48D C46D H46D 108.4 . . ? 
C47D C46D H46D 108.4 . . ? 
C45D C46D H46D 108.4 . . ? 
C46D C47D H47G 109.5 . . ? 
C46D C47D H47H 109.5 . . ? 
H47G C47D H47H 109.5 . . ? 
C46D C47D H47I 109.5 . . ? 
H47G C47D H47I 109.5 . . ? 
H47H C47D H47I 109.5 . . ? 
C46D C48D H48G 109.5 . . ? 
C46D C48D H48H 109.5 . . ? 
H48G C48D H48H 109.5 . . ? 
C46D C48D H48I 109.5 . . ? 
H48G C48D H48I 109.5 . . ? 
H48H C48D H48I 109.5 . . ? 
 
loop_ 
 _geom_torsion_atom_site_label_1 
 _geom_torsion_atom_site_label_2 
 _geom_torsion_atom_site_label_3 
 _geom_torsion_atom_site_label_4 
 _geom_torsion 
 _geom_torsion_site_symmetry_1 
 _geom_torsion_site_symmetry_2 
 _geom_torsion_site_symmetry_3 
 _geom_torsion_site_symmetry_4 
 _geom_torsion_publ_flag 
C20A C1A C2A C3A -177.6(7) . . . . ? 
C21A C1A C2A C3A 2.5(11) . . . . ? 
C20A C1A C2A C10A 2.9(10) . . . . ? 
C21A C1A C2A C10A -177.0(7) . . . . ? 
C1A C2A C3A C4A 179.4(7) . . . . ? 
C10A C2A C3A C4A -1.1(11) . . . . ? 
C2A C3A C4A C8A -2.2(12) . . . . ? 
C2A C3A C4A S5A 178.8(7) . . . . ? 
C3A C4A S5A C6A 178.1(13) . . . . ? 
C8A C4A S5A C6A -1.0(13) . . . . ? 
C4A S5A C6A C7A 2(3) . . . . ? 
C4A S5A C6A F1A -179(3) . . . . ? 
F1A C6A C7A C8A 179(3) . . . . ? 
S5A C6A C7A C8A -2(4) . . . . ? 
C3A C4A C8A C9A 3.6(11) . . . . ? 
S5A C4A C8A C9A -177.3(6) . . . . ? 
C3A C4A C8A C7A -179.1(13) . . . . ? 
S5A C4A C8A C7A 0.0(14) . . . . ? 
C6A C7A C8A C9A 178(2) . . . . ? 
C6A C7A C8A C4A 1(3) . . . . ? 
C4A C8A C9A C10A -1.6(11) . . . . ? 
C7A C8A C9A C10A -178.0(16) . . . . ? 
C8A C9A C10A C11A 178.4(7) . . . . ? 
C8A C9A C10A C2A -1.7(11) . . . . ? 
C3A C2A C10A C11A -177.0(7) . . . . ? 
C1A C2A C10A C11A 2.5(10) . . . . ? 
C3A C2A C10A C9A 3.1(10) . . . . ? 
C1A C2A C10A C9A -177.4(6) . . . . ? 
C9A C10A C11A C35A -6.5(11) . . . . ? 
C2A C10A C11A C35A 173.6(7) . . . . ? 
C9A C10A C11A C12A 173.7(6) . . . . ? 
C2A C10A C11A C12A -6.2(10) . . . . ? 
C10A C11A C12A C13A -177.6(7) . . . . ? 
C35A C11A C12A C13A 2.5(10) . . . . ? 
C10A C11A C12A C20A 4.6(10) . . . . ? 
C35A C11A C12A C20A -175.3(7) . . . . ? 
C11A C12A C13A C14A 177.1(7) . . . . ? 
C20A C12A C13A C14A -5.0(11) . . . . ? 
C12A C13A C14A C18A 2.3(11) . . . . ? 
C12A C13A C14A S15A -178.7(6) . . . . ? 
C13A C14A S15A C16A 178.4(15) . . . . ? 
C18A C14A S15A C16A -2.6(15) . . . . ? 
C14A S15A C16A C17A 1(3) . . . . ? 
C14A S15A C16A F2A 179(3) . . . . ? 
F2A C16A C17A C18A -176(3) . . . . ? 
S15A C16A C17A C18A 1(5) . . . . ? 
C13A C14A C18A C19A 0.4(11) . . . . ? 
S15A C14A C18A C19A -178.7(6) . . . . ? 
C13A C14A C18A C17A -177.4(16) . . . . ? 
S15A C14A C18A C17A 3.5(16) . . . . ? 
C16A C17A C18A C19A 180(2) . . . . ? 
C16A C17A C18A C14A -3(4) . . . . ? 
C14A C18A C19A C20A -0.1(11) . . . . ? 
C17A C18A C19A C20A 177.0(19) . . . . ? 
C2A C1A C20A C12A -4.5(11) . . . . ? 
C21A C1A C20A C12A 175.3(7) . . . . ? 
C2A C1A C20A C19A 173.1(7) . . . . ? 
C21A C1A C20A C19A -7.0(11) . . . . ? 
C13A C12A C20A C1A -177.1(7) . . . . ? 
C11A C12A C20A C1A 0.8(10) . . . . ? 
C13A C12A C20A C19A 5.2(10) . . . . ? 
C11A C12A C20A C19A -176.9(6) . . . . ? 
C18A C19A C20A C1A 179.6(7) . . . . ? 
C18A C19A C20A C12A -2.8(10) . . . . ? 
C22A Si1A C23A C24A -85.3(8) . . . . ? 
C27A Si1A C23A C24A 34.8(9) . . . . ? 
C31A Si1A C23A C24A 157.0(7) . . . . ? 
Si1A C23A C24A C25A -174.6(7) . . . . ? 
Si1A C23A C24A C26A 61.6(11) . . . . ? 
C22A Si1A C27A C28A -70.3(9) . . . . ? 
C31A Si1A C27A C28A 47.9(10) . . . . ? 
C23A Si1A C27A C28A 171.1(8) . . . . ? 
Si1A C27A C28A C29A -166.1(9) . . . . ? 
Si1A C27A C28A C30A 69.9(12) . . . . ? 
C22A Si1A C31A C32A -40.2(11) . . . . ? 
C27A Si1A C31A C32A -160.6(9) . . . . ? 
C23A Si1A C31A C32A 78.3(10) . . . . ? 
Si1A C31A C32A C34A -56.3(13) . . . . ? 
Si1A C31A C32A C33A 179.2(11) . . . . ? 
C36A Si2A C37A C38A -46.3(7) . . . . ? 
C45A Si2A C37A C38A -166.3(6) . . . . ? 
C41A Si2A C37A C38A 71.9(8) . . . . ? 
Si2A C37A C38A C40A -67.1(10) . . . . ? 
Si2A C37A C38A C39A 170.0(8) . . . . ? 
C36A Si2A C41A C42A -80.4(8) . . . . ? 
C45A Si2A C41A C42A 41.6(8) . . . . ? 
C37A Si2A C41A C42A 163.4(7) . . . . ? 
Si2A C41A C42A C43A 52.5(12) . . . . ? 
Si2A C41A C42A C44A 179.9(7) . . . . ? 
C36A Si2A C45A C46A -75.1(7) . . . . ? 
C37A Si2A C45A C46A 40.5(8) . . . . ? 
C41A Si2A C45A C46A 165.0(6) . . . . ? 
Si2A C45A C46A C47A 65.7(10) . . . . ? 
Si2A C45A C46A C48A -173.3(7) . . . . ? 
C21B C1B C2B C3B 3.6(11) . . . . ? 
C20B C1B C2B C3B -177.4(7) . . . . ? 
C21B C1B C2B C10B -175.8(7) . . . . ? 
C20B C1B C2B C10B 3.2(10) . . . . ? 
C1B C2B C3B C4B 179.2(7) . . . . ? 
C10B C2B C3B C4B -1.4(11) . . . . ? 
C2B C3B C4B C8B -0.4(11) . . . . ? 
C2B C3B C4B S5B 179.4(6) . . . . ? 
C3B C4B S5B C6B 178.7(13) . . . . ? 
C8B C4B S5B C6B -1.5(12) . . . . ? 
C4B S5B C6B C7B 2(3) . . . . ? 
C4B S5B C6B F1B 178(2) . . . . ? 
F1B C6B C7B C8B -178(3) . . . . ? 
S5B C6B C7B C8B -2(4) . . . . ? 
C3B C4B C8B C9B 2.1(11) . . . . ? 
S5B C4B C8B C9B -177.7(6) . . . . ? 
C3B C4B C8B C7B -179.4(16) . . . . ? 
S5B C4B C8B C7B 0.8(16) . . . . ? 
C6B C7B C8B C9B 179(2) . . . . ? 
C6B C7B C8B C4B 1(3) . . . . ? 
C4B C8B C9B C10B -2.0(11) . . . . ? 
C7B C8B C9B C10B -180(2) . . . . ? 
C8B C9B C10B C11B 179.8(7) . . . . ? 
C8B C9B C10B C2B 0.1(11) . . . . ? 
C1B C2B C10B C11B 1.3(10) . . . . ? 
C3B C2B C10B C11B -178.1(7) . . . . ? 
C1B C2B C10B C9B -179.1(6) . . . . ? 
C3B C2B C10B C9B 1.6(10) . . . . ? 
C9B C10B C11B C12B 175.7(7) . . . . ? 
C2B C10B C11B C12B -4.7(10) . . . . ? 
C9B C10B C11B C35B -3.2(11) . . . . ? 
C2B C10B C11B C35B 176.5(7) . . . . ? 
C10B C11B C12B C20B 3.6(10) . . . . ? 
C35B C11B C12B C20B -177.6(7) . . . . ? 
C10B C11B C12B C13B -178.1(7) . . . . ? 
C35B C11B C12B C13B 0.7(10) . . . . ? 
C11B C12B C13B C14B -180(3) . . . . ? 
C20B C12B C13B C14B -2(3) . . . . ? 
C11B C12B C13B C14D 180(3) . . . . ? 
C20B C12B C13B C14D -2(3) . . . . ? 
C12B C13B C14B C18B -7(6) . . . . ? 
C14D C13B C14B C18B 51(100) . . . . ? 
C12B C13B C14B S15B 180(3) . . . . ? 
C14D C13B C14B S15B -122(100) . . . . ? 
C13B C14B S15B C16B 179(5) . . . . ? 
C18B C14B S15B C16B 4(4) . . . . ? 
C14B S15B C16B C17B -3(3) . . . . ? 
C14B S15B C16B F2B -176(3) . . . . ? 
F2B C16B C17B C18B 173(4) . . . . ? 
S15B C16B C17B C18B 1(5) . . . . ? 
C16B C17B C18B C19B 169(5) . . . . ? 
C16B C17B C18B C14B 2(6) . . . . ? 
C13B C14B C18B C17B -179(4) . . . . ? 
S15B C14B C18B C17B -4(6) . . . . ? 
C13B C14B C18B C19B 12(7) . . . . ? 
S15B C14B C18B C19B -173(4) . . . . ? 
C14B C13B C14D C15D 60(100) . . . . ? 
C12B C13B C14D C15D -177(5) . . . . ? 
C14B C13B C14D C18D -118(100) . . . . ? 
C12B C13B C14D C18D 4(7) . . . . ? 
C18D C14D C15D C16D -8(8) . . . . ? 
C13B C14D C15D C16D 174(6) . . . . ? 
C14D C15D C16D F2D 174(5) . . . . ? 
C14D C15D C16D S17D 4(6) . . . . ? 
C15D C16D S17D C18D 1(5) . . . . ? 
F2D C16D S17D C18D -171(5) . . . . ? 
C15D C14D C18D C19B 173(6) . . . . ? 
C13B C14D C18D C19B -9(9) . . . . ? 
C15D C14D C18D S17D 8(7) . . . . ? 
C13B C14D C18D S17D -173(5) . . . . ? 
C16D S17D C18D C19B -168(7) . . . . ? 
C16D S17D C18D C14D -5(5) . . . . ? 
C14D C18D C19B C20B 11(9) . . . . ? 
S17D C18D C19B C20B 172(4) . . . . ? 
C14D C18D C19B C18B -62(19) . . . . ? 
S17D C18D C19B C18B 99(27) . . . . ? 
C17B C18B C19B C18D -64(19) . . . . ? 
C14B C18B C19B C18D 103(26) . . . . ? 
C17B C18B C19B C20B -176(4) . . . . ? 
C14B C18B C19B C20B -9(6) . . . . ? 
C18D C19B C20B C1B 173(4) . . . . ? 
C18B C19B C20B C1B -177(3) . . . . ? 
C18D C19B C20B C12B -8(4) . . . . ? 
C18B C19B C20B C12B 2(3) . . . . ? 
C2B C1B C20B C19B 174.5(6) . . . . ? 
C21B C1B C20B C19B -6.5(11) . . . . ? 
C2B C1B C20B C12B -4.3(10) . . . . ? 
C21B C1B C20B C12B 174.7(7) . . . . ? 
C11B C12B C20B C19B -177.9(6) . . . . ? 
C13B C12B C20B C19B 3.7(10) . . . . ? 
C11B C12B C20B C1B 0.9(10) . . . . ? 
C13B C12B C20B C1B -177.4(6) . . . . ? 
C22B Si1B C23B C24B -79.8(7) . . . . ? 
C31B Si1B C23B C24B 163.5(6) . . . . ? 
C27B Si1B C23B C24B 41.4(8) . . . . ? 
Si1B C23B C24B C26B 60.3(10) . . . . ? 
Si1B C23B C24B C25B -175.0(8) . . . . ? 
C22B Si1B C27B C28B -74.6(7) . . . . ? 
C31B Si1B C27B C28B 41.0(8) . . . . ? 
C23B Si1B C27B C28B 166.4(6) . . . . ? 
Si1B C27B C28B C29B -169.2(8) . . . . ? 
Si1B C27B C28B C30B 64.8(9) . . . . ? 
C22B Si1B C31B C32B -49.3(7) . . . . ? 
C27B Si1B C31B C32B -169.5(6) . . . . ? 
C23B Si1B C31B C32B 69.6(7) . . . . ? 
Si1B C31B C32B C33B 162.7(7) . . . . ? 
Si1B C31B C32B C34B -74.0(9) . . . . ? 
Si2B C37B C38B C40B -175.7(11) . . . . ? 
Si2B C37B C38B C39B 61.1(14) . . . . ? 
C45B Si2B C37D C38D -165.1(15) . . . . ? 
C36B Si2B C37D C38D -55.7(14) . . . . ? 
C41D Si2B C37D C38D 99.9(17) . . . . ? 
C41B Si2B C37D C38D 70.2(15) . . . . ? 
C37B Si2B C37D C38D 39.2(12) . . . . ? 
C45D Si2B C37D C38D -168.3(13) . . . . ? 
Si2B C37D C38D C40D -72.8(19) . . . . ? 
Si2B C37D C38D C39D 164.6(17) . . . . ? 
C45B Si2B C41B C42B 65.3(15) . . . . ? 
C37D Si2B C41B C42B 158.1(12) . . . . ? 
C36B Si2B C41B C42B -77.4(13) . . . . ? 
C41D Si2B C41B C42B 28.4(18) . . . . ? 
C37B Si2B C41B C42B 179.1(13) . . . . ? 
C45D Si2B C41B C42B 36.0(14) . . . . ? 
Si2B C41B C42B C43B -176.0(17) . . . . ? 
Si2B C41B C42B C44B 59(2) . . . . ? 
C45B Si2B C41D C42D 154.5(18) . . . . ? 
C37D Si2B C41D C42D -125.2(18) . . . . ? 
C36B Si2B C41D C42D 29(2) . . . . ? 
C41B Si2B C41D C42D -55(2) . . . . ? 
C37B Si2B C41D C42D -86(2) . . . . ? 
C45D Si2B C41D C42D 133(2) . . . . ? 
Si2B C41D C42D C43D 151(3) . . . . ? 
Si2B C41D C42D C44D -89(3) . . . . ? 
C37D Si2B C45B C46B 153.0(14) . . . . ? 
C36B Si2B C45B C46B 54.3(13) . . . . ? 
C41D Si2B C45B C46B -71.3(14) . . . . ? 
C41B Si2B C45B C46B -87.0(13) . . . . ? 
C37B Si2B C45B C46B 170.7(10) . . . . ? 
C45D Si2B C45B C46B -32.4(14) . . . . ? 
Si2B C45B C46B C47B -88(2) . . . . ? 
Si2B C45B C46B C48B 150.4(16) . . . . ? 
Si2B C45D C46D C48D -168(3) . . . . ? 
Si2B C45D C46D C47D 69(3) . . . . ? 
 
_refine_diff_density_max    0.875 
_refine_diff_density_min   -0.842 
_refine_diff_density_rms    0.107 
 
_shelxl_version_number 2014-3 
 
_iucr_refine_instructions_details 
; 
TITL x14342 in P-1 
CELL  1.54178  15.8557  17.5077  17.5421   84.941   72.851   71.326 
ZERR    4.00   0.00040   0.00060   0.00060   0.0024   0.0022   0.0022 
LATT  1 
SFAC C H F SI S 
UNIT 184  240  8 8 8 
TEMP -183.000 
SIZE 0.18 0.03 0.02 
REM FORM needle 
REM COLR orange 
MERG 0 
L.S. 8 
BOND $H 
LIST 4 
ACTA 
CONF 
HTAB 
FMAP 2 
PLAN 20 
WGHT    0.160800   17.508499 
BASF   0.19620 
FVAR       3.45752   0.60880   0.53588   0.58996   0.56576 
SI1A  4    0.145584    0.297158   -0.194172    11.00000    0.04462    0.04896 = 
         0.03778    0.01556   -0.01931   -0.02137 
SI2A  4    0.292356   -0.198030    0.289758    11.00000    0.04578    0.04170 = 
         0.03719    0.00906   -0.02016   -0.02067 
C1A   1    0.191489    0.121411    0.003214    11.00000    0.03771    0.03321 = 
         0.02984    0.00363   -0.01423   -0.00918 
C2A   1    0.275681    0.105186    0.023307    11.00000    0.04214    0.03339 = 
         0.02285    0.00507   -0.00727   -0.01500 
C3A   1    0.343137    0.143135   -0.014544    11.00000    0.04588    0.04105 = 
         0.03654    0.00284   -0.01116   -0.01634 
AFIX  43 
H3A   2    0.332486    0.180906   -0.055671    11.00000   -1.20000 
AFIX   0 
EXYZ C4A C4C 
EXYZ C8A C8C 
EADP C4a C4c 
EADP S5a C5c 
EADP C6a C6c 
EADP F1a F1c 
EADP C7a S7c 
EADP C8a C8c 
SAME 0.020 C8C S7C C6C F1C C5C C4C 
RIGU C4A > C8C 
PART 1 
C4A   1    0.423150    0.127014    0.006361    21.00000    0.04487    0.04326 = 
         0.03634   -0.00559   -0.01148   -0.01732 
S5A   5    0.510185    0.168893   -0.037612    21.00000    0.04076    0.04669 = 
         0.04041   -0.00100   -0.01061   -0.02014 
C6A   1    0.567567    0.114388    0.030885    21.00000    0.03879    0.04159 = 
         0.03621   -0.00510   -0.01153   -0.01719 
F1A   3    0.650143    0.123802    0.026899    21.00000    0.04519    0.06216 = 
         0.05171    0.00016   -0.01810   -0.02705 
C7A   1    0.528497    0.067713    0.080082    21.00000    0.04978    0.04798 = 
         0.03315   -0.00141   -0.01583   -0.02114 
AFIX  43 
H7A   2    0.555511    0.034535    0.117947    21.00000   -1.20000 
AFIX   0 
C8A   1    0.438635    0.071561    0.071110    21.00000    0.03889    0.03856 = 
         0.03532   -0.00993   -0.01185   -0.01259 
PART 2 
C4C   1    0.423150    0.127014    0.006361   -21.00000    0.04487    0.04326 = 
         0.03634   -0.00559   -0.01148   -0.01732 
C5C   1    0.504511    0.155886   -0.019177   -21.00000    0.04076    0.04669 = 
         0.04041   -0.00100   -0.01061   -0.02014 
AFIX  43 
H5C   2    0.511660    0.194178   -0.060511   -21.00000   -1.20000 
AFIX   0 
F1C   3    0.646297    0.141806    0.007815   -21.00000    0.04519    0.06216 = 
         0.05171    0.00016   -0.01810   -0.02705 
C6C   1    0.565586    0.124861    0.019263   -21.00000    0.03879    0.04159 = 
         0.03621   -0.00510   -0.01153   -0.01719 
S7C   5    0.542246    0.057845    0.096980   -21.00000    0.04978    0.04798 = 
         0.03315   -0.00141   -0.01583   -0.02114 
C8C   1    0.438635    0.071561    0.071110   -21.00000    0.03889    0.03856 = 
         0.03532   -0.00993   -0.01185   -0.01259 
PART 0 
C9A   1    0.375733    0.032758    0.107486    11.00000    0.04212    0.04157 = 
         0.02603    0.00107   -0.01427   -0.01219 
AFIX  43 
H9A   2    0.387137   -0.004443    0.148869    11.00000   -1.20000 
AFIX   0 
C10A  1    0.292644    0.046967    0.084533    11.00000    0.04092    0.02994 = 
         0.02405    0.00143   -0.01375   -0.00987 
C11A  1    0.228379    0.005080    0.120959    11.00000    0.04543    0.03557 = 
         0.03152   -0.00795   -0.01290   -0.01535 
C12A  1    0.142234    0.025736    0.103109    11.00000    0.03879    0.03306 = 
         0.02758    0.00162   -0.01358   -0.01600 
C13A  1    0.075031   -0.012861    0.140622    11.00000    0.04258    0.04153 = 
         0.02665   -0.00451   -0.00752   -0.01847 
AFIX  43 
H13A  2    0.088640   -0.055395    0.176986    11.00000   -1.20000 
AFIX   0 
EXYZ C14A C14C 
EXYZ C18A C18C 
EADP C14a C14c 
EADP S15a C15c 
EADP C16a C16c 
EADP F2a F2c 
EADP C17a S17c 
EADP C18a C18c 
SAME 0.020 C18C S17C C16C F2C C15C C14C 
RIGU C14A > C18C 
PART 1 
C14A  1   -0.009410    0.010085    0.125381    31.00000    0.04402    0.04344 = 
         0.03386    0.00070   -0.01357   -0.01576 
S15A  5   -0.096799   -0.033237    0.170712    31.00000    0.04134    0.05243 = 
         0.03548    0.00301   -0.01205   -0.02329 
C16A  1   -0.164054    0.036216    0.115974    31.00000    0.03562    0.05302 = 
         0.04064    0.00158   -0.01275   -0.01750 
F2A   3   -0.250008    0.032107    0.124582    31.00000    0.03913    0.07468 = 
         0.04942    0.01293   -0.01873   -0.02628 
C17A  1   -0.124877    0.084611    0.069060    31.00000    0.04248    0.04957 = 
         0.04531    0.00114   -0.01868   -0.01675 
AFIX  43 
H17A  2   -0.155656    0.124696    0.037778    31.00000   -1.20000 
AFIX   0 
C18A  1   -0.030438    0.071686    0.069020    31.00000    0.04218    0.04288 = 
         0.02949   -0.00596   -0.01297   -0.01508 
PART 2 
C14C  1   -0.009410    0.010085    0.125381   -31.00000    0.04402    0.04344 = 
         0.03386    0.00070   -0.01357   -0.01576 
C15C  1   -0.092455   -0.013641    0.157921   -31.00000    0.04134    0.05243 = 
         0.03548    0.00301   -0.01205   -0.02329 
AFIX  43 
H15C  2   -0.096684   -0.054434    0.197036   -31.00000   -1.20000 
AFIX   0 
F2C   3   -0.247201    0.017446    0.151100   -31.00000    0.03913    0.07468 = 
         0.04942    0.01293   -0.01873   -0.02628 
C16C  1   -0.161348    0.026119    0.128669   -31.00000    0.03562    0.05302 = 
         0.04064    0.00158   -0.01275   -0.01750 
S17C  5   -0.143013    0.100893    0.058871   -31.00000    0.04248    0.04957 = 
         0.04531    0.00114   -0.01868   -0.01675 
C18C  1   -0.030438    0.071686    0.069020   -31.00000    0.04218    0.04288 = 
         0.02949   -0.00596   -0.01297   -0.01508 
PART 0 
C19A  1    0.035010    0.108847    0.028549    11.00000    0.04208    0.03263 = 
         0.03940   -0.00001   -0.01747   -0.01269 
AFIX  43 
H19A  2    0.021193    0.149912   -0.009130    11.00000   -1.20000 
AFIX   0 
C20A  1    0.123832    0.084792    0.044019    11.00000    0.03840    0.03134 = 
         0.02437   -0.00208   -0.00929   -0.00944 
C21A  1    0.175630    0.176640   -0.060718    11.00000    0.04584    0.03964 = 
         0.03069    0.00843   -0.01531   -0.01547 
C22A  1    0.163116    0.223013   -0.115336    11.00000    0.04216    0.04829 = 
         0.04307    0.00750   -0.01569   -0.02238 
C23A  1    0.024039    0.369352   -0.159992    11.00000    0.07180    0.06192 = 
         0.04919    0.01289   -0.02722   -0.03311 
AFIX  23 
H23A  2    0.009658    0.378592   -0.102046    11.00000   -1.20000 
H23B  2    0.024383    0.421539   -0.186669    11.00000   -1.20000 
AFIX   0 
C24A  1   -0.054779    0.346964   -0.173441    11.00000    0.04967    0.06415 = 
         0.06889    0.01781   -0.02151   -0.02116 
AFIX  13 
H24A  2   -0.039596    0.336229   -0.231773    11.00000   -1.20000 
AFIX   0 
C25A  1   -0.145311    0.413743   -0.150147    11.00000    0.03960    0.06696 = 
         0.08174    0.01229   -0.01024   -0.01405 
AFIX 137 
H25A  2   -0.194916    0.395503   -0.157148    11.00000   -1.50000 
H25B  2   -0.140634    0.460711   -0.183949    11.00000   -1.50000 
H25C  2   -0.159424    0.428565   -0.094153    11.00000   -1.50000 
AFIX   0 
C26A  1   -0.064651    0.268771   -0.128424    11.00000    0.05037    0.06754 = 
         0.09447    0.02202   -0.01347   -0.01737 
AFIX 137 
H26A  2   -0.078464    0.277281   -0.070999    11.00000   -1.50000 
H26B  2   -0.006514    0.224782   -0.146724    11.00000   -1.50000 
H26C  2   -0.115227    0.254744   -0.139047    11.00000   -1.50000 
AFIX   0 
C27A  1    0.157831    0.246646   -0.287487    11.00000    0.05629    0.07159 = 
         0.04974    0.00581   -0.02110   -0.01486 
AFIX  23 
H27A  2    0.116193    0.212670   -0.273516    11.00000   -1.20000 
H27B  2    0.133553    0.289257   -0.323495    11.00000   -1.20000 
AFIX   0 
C28A  1    0.253253    0.193816   -0.335907    11.00000    0.05566    0.07241 = 
         0.05111    0.00167   -0.01279   -0.00910 
AFIX  13 
H28A  2    0.297939    0.224853   -0.342068    11.00000   -1.20000 
AFIX   0 
C29A  1    0.255471    0.174159   -0.417848    11.00000    0.09001    0.12020 = 
         0.04051    0.00050   -0.01192   -0.00904 
AFIX 137 
H29A  2    0.223546    0.133872   -0.414394    11.00000   -1.50000 
H29B  2    0.320063    0.152572   -0.450141    11.00000   -1.50000 
H29C  2    0.224257    0.223150   -0.442716    11.00000   -1.50000 
AFIX   0 
C30A  1    0.288335    0.115821   -0.293072    11.00000    0.08671    0.07727 = 
         0.05331    0.00598   -0.01050   -0.00780 
AFIX 137 
H30A  2    0.288765    0.128401   -0.239874    11.00000   -1.50000 
H30B  2    0.351431    0.086040   -0.323760    11.00000   -1.50000 
H30C  2    0.247390    0.082817   -0.288009    11.00000   -1.50000 
AFIX   0 
C31A  1    0.235771    0.349325   -0.210758    11.00000    0.08026    0.07722 = 
         0.06832    0.02928   -0.03632   -0.04655 
AFIX  23 
H31A  2    0.293609    0.314497   -0.246769    11.00000   -1.20000 
H31B  2    0.215519    0.399497   -0.240280    11.00000   -1.20000 
AFIX   0 
C32A  1    0.261084    0.372135   -0.140583    11.00000    0.08185    0.07081 = 
         0.06983    0.02247   -0.04327   -0.03709 
AFIX  13 
H32A  2    0.287128    0.321217   -0.113292    11.00000   -1.20000 
AFIX   0 
C33A  1    0.337374    0.412829   -0.171446    11.00000    0.14192    0.20876 = 
         0.09807    0.05328   -0.06578   -0.12527 
AFIX 137 
H33A  2    0.330729    0.441656   -0.220879    11.00000   -1.50000 
H33B  2    0.398397    0.371728   -0.181911    11.00000   -1.50000 
H33C  2    0.331646    0.451056   -0.131231    11.00000   -1.50000 
AFIX   0 
C34A  1    0.179588    0.423537   -0.081410    11.00000    0.12367    0.14474 = 
         0.08352    0.02724   -0.05550   -0.08843 
AFIX 137 
H34A  2    0.177435    0.480110   -0.090161    11.00000   -1.50000 
H34B  2    0.184483    0.407781   -0.027488    11.00000   -1.50000 
H34C  2    0.122831    0.416787   -0.087359    11.00000   -1.50000 
AFIX   0 
C35A  1    0.249917   -0.057856    0.175305    11.00000    0.04365    0.04235 = 
         0.02962    0.00216   -0.01677   -0.01458 
C36A  1    0.270354   -0.114514    0.219629    11.00000    0.04365    0.04416 = 
         0.03888    0.00479   -0.01573   -0.01650 
C37A  1    0.177464   -0.217621    0.332934    11.00000    0.05745    0.05128 = 
         0.04097    0.00306   -0.01542   -0.02672 
AFIX  23 
H37A  2    0.168023   -0.247129    0.292111    11.00000   -1.20000 
H37B  2    0.182707   -0.254373    0.378723    11.00000   -1.20000 
AFIX   0 
C38A  1    0.090177   -0.146382    0.361283    11.00000    0.05354    0.05708 = 
         0.04654    0.01108   -0.01946   -0.02265 
AFIX  13 
H38A  2    0.087205   -0.106713    0.316746    11.00000   -1.20000 
AFIX   0 
C39A  1    0.005928   -0.175552    0.379408    11.00000    0.05633    0.08931 = 
         0.13002   -0.00945   -0.01855   -0.02784 
AFIX 137 
H39A  2   -0.001722   -0.202843    0.431075    11.00000   -1.50000 
H39B  2    0.014637   -0.213274    0.337600    11.00000   -1.50000 
H39C  2   -0.049522   -0.129371    0.381249    11.00000   -1.50000 
AFIX   0 
C40A  1    0.087769   -0.104005    0.432753    11.00000    0.06459    0.08416 = 
         0.08261   -0.01144   -0.02036   -0.01848 
AFIX 137 
H40A  2    0.111230   -0.143909    0.470429    11.00000   -1.50000 
H40B  2    0.023765   -0.071841    0.458616    11.00000   -1.50000 
H40C  2    0.126735   -0.068527    0.415998    11.00000   -1.50000 
AFIX   0 
C41A  1    0.336330   -0.165808    0.366543    11.00000    0.06820    0.04605 = 
         0.04451    0.01315   -0.02773   -0.02222 
AFIX  23 
H41A  2    0.298665   -0.109351    0.381869    11.00000   -1.20000 
H41B  2    0.323659   -0.199164    0.414584    11.00000   -1.20000 
AFIX   0 
C42A  1    0.438050   -0.170209    0.345107    11.00000    0.06937    0.07778 = 
         0.04804    0.01625   -0.03528   -0.03853 
AFIX  13 
H42A  2    0.474759   -0.228592    0.336835    11.00000   -1.20000 
AFIX   0 
C43A  1    0.470494   -0.129004    0.270017    11.00000    0.08549    0.09806 = 
         0.05960    0.02192   -0.04092   -0.05873 
AFIX 137 
H43A  2    0.438617   -0.070884    0.276200    11.00000   -1.50000 
H43B  2    0.456759   -0.149780    0.226494    11.00000   -1.50000 
H43C  2    0.537587   -0.139063    0.257637    11.00000   -1.50000 
AFIX   0 
C44A  1    0.459225   -0.141847    0.414028    11.00000    0.06669    0.10100 = 
         0.05662    0.01811   -0.03847   -0.04242 
AFIX 137 
H44A  2    0.526496   -0.153917    0.402842    11.00000   -1.50000 
H44B  2    0.435745   -0.169629    0.462738    11.00000   -1.50000 
H44C  2    0.429198   -0.083557    0.421302    11.00000   -1.50000 
AFIX   0 
C45A  1    0.380448   -0.291638    0.238068    11.00000    0.05078    0.04830 = 
         0.04807    0.01791   -0.02609   -0.02001 
AFIX  23 
H45A  2    0.433527   -0.275950    0.202586    11.00000   -1.20000 
H45B  2    0.403588   -0.327485    0.279281    11.00000   -1.20000 
AFIX   0 
C46A  1    0.352700   -0.340930    0.189013    11.00000    0.05777    0.04616 = 
         0.05542    0.00594   -0.01860   -0.02655 
AFIX  13 
H46A  2    0.296668   -0.354317    0.223356    11.00000   -1.20000 
AFIX   0 
C47A  1    0.328791   -0.296211    0.115714    11.00000    0.06909    0.06448 = 
         0.05853   -0.00634   -0.02780   -0.02780 
AFIX 137 
H47A  2    0.274793   -0.248244    0.132717    11.00000   -1.50000 
H47B  2    0.314428   -0.331767    0.084638    11.00000   -1.50000 
H47C  2    0.381801   -0.279912    0.082726    11.00000   -1.50000 
AFIX   0 
C48A  1    0.429490   -0.419905    0.159416    11.00000    0.07178    0.04705 = 
         0.07665   -0.00558   -0.01521   -0.01829 
AFIX 137 
H48A  2    0.486576   -0.408176    0.129073    11.00000   -1.50000 
H48B  2    0.410427   -0.448360    0.125027    11.00000   -1.50000 
H48C  2    0.440667   -0.453780    0.205185    11.00000   -1.50000 
AFIX   0 
REM Molecule 2 
SI1B  4    0.527686    0.697846    0.795116    11.00000    0.03931    0.03642 = 
         0.03024   -0.00687   -0.01188   -0.01306 
SI2B  4    0.970040    0.194748    0.308248    11.00000    0.04141    0.06648 = 
         0.05161   -0.03362   -0.01591   -0.00509 
C1B   1    0.692850    0.493851    0.622669    11.00000    0.04357    0.03487 = 
         0.02555   -0.00282   -0.01497   -0.01950 
C2B   1    0.790724    0.472589    0.604559    11.00000    0.04197    0.03343 = 
         0.01906   -0.00305   -0.01102   -0.01705 
C3B   1    0.834125    0.510972    0.643028    11.00000    0.05054    0.03888 = 
         0.02865   -0.00287   -0.01812   -0.01808 
AFIX  43 
H3B   2    0.796456    0.552276    0.681277    11.00000   -1.20000 
AFIX   0 
EXYZ C4b C4d 
EXYZ C8b C8d 
EADP C4b C4d 
EADP S5b C5d 
EADP C6b C6d 
EADP F1b F1d 
EADP C7b S7d 
EADP C8b C8d 
SAME 0.020 C8d S7d C6d F1d C5d C4d 
RIGU C4b > C8d 
PART 1 
C4B   1    0.927451    0.490196    0.626565    41.00000    0.04801    0.04162 = 
         0.02887    0.00434   -0.01687   -0.01762 
S5B   5    0.987742    0.533741    0.669434    41.00000    0.04562    0.04836 = 
         0.03642   -0.00228   -0.01776   -0.01943 
C6B   1    1.090109    0.465045    0.611560    41.00000    0.04090    0.04983 = 
         0.03546    0.00350   -0.01964   -0.01542 
F1B   3    1.170007    0.472034    0.619175    41.00000    0.04390    0.06099 = 
         0.04760   -0.00410   -0.02296   -0.01740 
C7B   1    1.081843    0.417163    0.563931    41.00000    0.04964    0.04780 = 
         0.03871    0.00542   -0.02017   -0.01725 
AFIX  43 
H7B   2    1.133312    0.379486    0.529386    41.00000   -1.20000 
AFIX   0 
C8B   1    0.985561    0.426882    0.568641    41.00000    0.04322    0.03867 = 
         0.02667    0.00586   -0.01791   -0.01629 
PART 2 
C4D   1    0.927451    0.490196    0.626565   -41.00000    0.04801    0.04162 = 
         0.02887    0.00434   -0.01687   -0.01762 
C5D   1    0.990838    0.513670    0.659179   -41.00000    0.04562    0.04836 = 
         0.03642   -0.00228   -0.01776   -0.01943 
AFIX  43 
H5D   2    0.970333    0.551602    0.701429   -41.00000   -1.20000 
AFIX   0 
F1D   3    1.151762    0.490155    0.638542   -41.00000    0.04390    0.06099 = 
         0.04760   -0.00410   -0.02296   -0.01740 
C6D   1    1.077965    0.477350    0.624462   -41.00000    0.04090    0.04983 = 
         0.03546    0.00350   -0.01964   -0.01542 
S7D   5    1.104735    0.404228    0.551028   -41.00000    0.04964    0.04780 = 
         0.03871    0.00542   -0.02017   -0.01725 
C8D   1    0.985561    0.426882    0.568641   -41.00000    0.04322    0.03867 = 
         0.02667    0.00586   -0.01791   -0.01629 
PART 0 
C9B   1    0.946990    0.390349    0.529179    11.00000    0.05547    0.02954 = 
         0.02238   -0.00071   -0.01092   -0.01289 
AFIX  43 
H9B   2    0.985833    0.350125    0.490156    11.00000   -1.20000 
AFIX   0 
C10B  1    0.848556    0.411817    0.545776    11.00000    0.03843    0.02773 = 
         0.02444   -0.00312   -0.00958   -0.00871 
C11B  1    0.806264    0.374968    0.505379    11.00000    0.04318    0.02753 = 
         0.02058   -0.00075   -0.01447   -0.00754 
C12B  1    0.709732    0.392917    0.526253    11.00000    0.04384    0.03020 = 
         0.01875   -0.00017   -0.01556   -0.00991 
C13B  1    0.666722    0.354200    0.487409    11.00000    0.05888    0.03046 = 
         0.02663   -0.00377   -0.01865   -0.01596 
AFIX  43 
H13B  2    0.704324    0.315383    0.446691    11.00000   -1.20000 
AFIX   0 
REM EXYZ C14b C14d 
REM EXYZ C18b C18d 
EADP C14b C14d 
EADP S15b C15d 
EADP C16b C16d 
EADP F2b F2d 
EADP C17b S17d 
EADP C18b C18d 
SAME 0.020 C18d S17d C16d F2d C15d C14d 
RIGU C14b > C18d 
PART 1 
C14B  1    0.579233    0.370768    0.506356    51.00000    0.04528    0.03570 = 
         0.03902   -0.00512   -0.01806   -0.01705 
S15B  5    0.513720    0.329678    0.465101    51.00000    0.05019    0.04417 = 
         0.04583   -0.00408   -0.02266   -0.01956 
C16B  1    0.412222    0.387082    0.530482    51.00000    0.04670    0.03995 = 
         0.04098    0.00482   -0.02219   -0.02186 
F2B   3    0.332159    0.375824    0.528908    51.00000    0.05021    0.07887 = 
         0.05139   -0.01060   -0.01796   -0.03307 
C17B  1    0.421975    0.431115    0.583362    51.00000    0.04610    0.05100 = 
         0.04051    0.00047   -0.01821   -0.01866 
AFIX  43 
H17B  2    0.371777    0.464192    0.623037    51.00000   -1.20000 
AFIX   0 
C18B  1    0.515502    0.422680    0.573312    51.00000    0.04357    0.02020 = 
         0.02726    0.00991   -0.02013   -0.01355 
PART 2 
C14D  1    0.565355    0.373133    0.510290   -51.00000    0.04528    0.03570 = 
         0.03902   -0.00512   -0.01806   -0.01705 
C15D  1    0.508083    0.341757    0.483648   -51.00000    0.05019    0.04417 = 
         0.04583   -0.00408   -0.02266   -0.01956 
AFIX  43 
H15D  2    0.530178    0.304412    0.440696   -51.00000   -1.20000 
AFIX   0 
F2D   3    0.347828    0.355476    0.509026   -51.00000    0.05021    0.07887 = 
         0.05139   -0.01060   -0.01796   -0.03307 
C16D  1    0.420236    0.369727    0.524697   -51.00000    0.04670    0.03995 = 
         0.04098    0.00482   -0.02219   -0.02186 
S17D  5    0.393347    0.441887    0.597132   -51.00000    0.04610    0.05100 = 
         0.04051    0.00047   -0.01821   -0.01866 
C18D  1    0.512028    0.436946    0.569654   -51.00000    0.04357    0.02020 = 
         0.02726    0.00991   -0.02013   -0.01355 
PART 0 
C19B  1    0.554063    0.468436    0.608568    11.00000    0.04283    0.03866 = 
         0.02041   -0.00220   -0.01297   -0.00670 
AFIX  43 
H19B  2    0.514937    0.509251    0.646900    11.00000   -1.20000 
AFIX   0 
C20B  1    0.651463    0.452379    0.585808    11.00000    0.04505    0.03159 = 
         0.01718   -0.00097   -0.01381   -0.01187 
C21B  1    0.635907    0.557827    0.676987    11.00000    0.04053    0.04179 = 
         0.02827   -0.00317   -0.01613   -0.01507 
C22B  1    0.590036    0.613693    0.722508    11.00000    0.03948    0.03949 = 
         0.04022   -0.00731   -0.01585   -0.01245 
C23B  1    0.430594    0.670729    0.871475    11.00000    0.05237    0.04728 = 
         0.04693   -0.01233   -0.02243   -0.01196 
AFIX  23 
H23C  2    0.454421    0.613530    0.886014    11.00000   -1.20000 
H23D  2    0.413792    0.703518    0.920016    11.00000   -1.20000 
AFIX   0 
C24B  1    0.342453    0.681820    0.847897    11.00000    0.04484    0.06811 = 
         0.04500   -0.00415   -0.01068   -0.01900 
AFIX  13 
H24B  2    0.318785    0.739735    0.833478    11.00000   -1.20000 
AFIX   0 
C25B  1    0.268380    0.664425    0.918098    11.00000    0.05012    0.14875 = 
         0.05109    0.00602   -0.01029   -0.04802 
AFIX 137 
H25D  2    0.211069    0.674534    0.902862    11.00000   -1.50000 
H25E  2    0.256569    0.699566    0.963061    11.00000   -1.50000 
H25F  2    0.289622    0.607931    0.933748    11.00000   -1.50000 
AFIX   0 
C26B  1    0.358953    0.631910    0.776577    11.00000    0.05063    0.08674 = 
         0.04561   -0.01200   -0.01654   -0.03693 
AFIX 137 
H26D  2    0.397398    0.651516    0.729412    11.00000   -1.50000 
H26E  2    0.299344    0.636178    0.767849    11.00000   -1.50000 
H26F  2    0.390896    0.575434    0.785879    11.00000   -1.50000 
AFIX   0 
C27B  1    0.474677    0.793283    0.746523    11.00000    0.04282    0.04307 = 
         0.05643   -0.00444   -0.01594   -0.01479 
AFIX  23 
H27C  2    0.441159    0.780038    0.712600    11.00000   -1.20000 
H27D  2    0.427497    0.829987    0.789216    11.00000   -1.20000 
AFIX   0 
C28B  1    0.537274    0.840882    0.695033    11.00000    0.05928    0.05437 = 
         0.04503    0.00054   -0.02570   -0.02152 
AFIX  13 
H28B  2    0.575244    0.849984    0.727803    11.00000   -1.20000 
AFIX   0 
C29B  1    0.480403    0.920811    0.675433    11.00000    0.12992    0.06584 = 
         0.10061    0.03755   -0.05675   -0.04642 
AFIX 137 
H29D  2    0.519558    0.955898    0.656302    11.00000   -1.50000 
H29E  2    0.430722    0.944752    0.723236    11.00000   -1.50000 
H29F  2    0.453178    0.914842    0.633752    11.00000   -1.50000 
AFIX   0 
C30B  1    0.603348    0.793410    0.622456    11.00000    0.07606    0.08155 = 
         0.05612    0.02189   -0.01538   -0.04495 
AFIX 137 
H30D  2    0.568269    0.778328    0.591932    11.00000   -1.50000 
H30E  2    0.645210    0.744585    0.638889    11.00000   -1.50000 
H30F  2    0.639716    0.826312    0.589149    11.00000   -1.50000 
AFIX   0 
C31B  1    0.618612    0.711025    0.835335    11.00000    0.05126    0.03808 = 
         0.04114   -0.01152   -0.01003   -0.01516 
AFIX  23 
H31C  2    0.657929    0.736347    0.793137    11.00000   -1.20000 
H31D  2    0.586990    0.750029    0.880206    11.00000   -1.20000 
AFIX   0 
C32B  1    0.683320    0.636709    0.864923    11.00000    0.04453    0.06460 = 
         0.03400   -0.00891   -0.02066   -0.01604 
AFIX  13 
H32B  2    0.704091    0.592380    0.824891    11.00000   -1.20000 
AFIX   0 
C33B  1    0.768306    0.654021    0.871159    11.00000    0.05903    0.07337 = 
         0.09253    0.00842   -0.04079   -0.02426 
AFIX 137 
H33D  2    0.749753    0.696496    0.911086    11.00000   -1.50000 
H33E  2    0.800153    0.671851    0.819283    11.00000   -1.50000 
H33F  2    0.810244    0.604966    0.887159    11.00000   -1.50000 
AFIX   0 
C34B  1    0.633629    0.607536    0.944906    11.00000    0.06776    0.07789 = 
         0.05165    0.01880   -0.03277   -0.01791 
AFIX 137 
H34D  2    0.677130    0.560702    0.962391    11.00000   -1.50000 
H34E  2    0.581533    0.592295    0.939024    11.00000   -1.50000 
H34F  2    0.610318    0.650878    0.984657    11.00000   -1.50000 
AFIX   0 
C35B  1    0.863079    0.317736    0.443645    11.00000    0.04434    0.03865 = 
         0.03564   -0.00677   -0.01608   -0.01165 
C36B  1    0.909832    0.269117    0.390096    11.00000    0.04713    0.05052 = 
         0.04840   -0.01034   -0.02228   -0.01176 
RIGU C37B > C40D 
SAME 0.010 C37D C38D C39D C40D 
PART 1 
C37B  1    0.915030    0.104625    0.342859    21.00000    0.05581    0.05293 = 
         0.03831   -0.01821   -0.02417   -0.01005 
AFIX  23 
H37C  2    0.928789    0.071588    0.295128    21.00000   -1.20000 
H37D  2    0.947891    0.069981    0.379547    21.00000   -1.20000 
AFIX   0 
C38B  1    0.811909    0.126016    0.383577    21.00000    0.05394    0.04798 = 
         0.03789   -0.00481   -0.01936   -0.01243 
AFIX  13 
H38B  2    0.798125    0.159296    0.431827    21.00000   -1.20000 
AFIX   0 
C39B  1    0.752159    0.176013    0.330499    21.00000    0.05304    0.06763 = 
         0.04902   -0.00303   -0.02319   -0.01257 
AFIX  33 
H39D  2    0.686316    0.188045    0.359811    21.00000   -1.50000 
H39E  2    0.766930    0.226540    0.315875    21.00000   -1.50000 
H39F  2    0.765245    0.145240    0.282064    21.00000   -1.50000 
AFIX   0 
C40B  1    0.782880    0.051236    0.411494    21.00000    0.09712    0.06034 = 
         0.07088   -0.00856   -0.01136   -0.03350 
AFIX  33 
H40D  2    0.715923    0.067129    0.437524    21.00000   -1.50000 
H40E  2    0.797752    0.016411    0.365514    21.00000   -1.50000 
H40F  2    0.816231    0.021904    0.449460    21.00000   -1.50000 
AFIX   0 
PART 2 
C37D  1    0.880039    0.164249    0.289005   -21.00000    0.06268    0.03055 = 
         0.03957   -0.01896   -0.02307   -0.00381 
AFIX  23 
H37E  2    0.838853    0.211064    0.267987   -21.00000   -1.20000 
H37F  2    0.908996    0.122026    0.246971   -21.00000   -1.20000 
AFIX   0 
C38D  1    0.821380    0.132136    0.361118   -21.00000    0.07092    0.04717 = 
         0.04582   -0.01271   -0.02261   -0.01659 
AFIX  13 
H38D  2    0.804526    0.169421    0.407020   -21.00000   -1.20000 
AFIX   0 
C39D  1    0.730700    0.128380    0.348447   -21.00000    0.07890    0.08906 = 
         0.05809    0.01584   -0.03411   -0.03578 
AFIX  33 
H39G  2    0.695435    0.107308    0.396578   -21.00000   -1.50000 
H39H  2    0.693562    0.182614    0.337631   -21.00000   -1.50000 
H39I  2    0.745409    0.092828    0.303069   -21.00000   -1.50000 
AFIX   0 
C40D  1    0.874675    0.048965    0.383756   -21.00000    0.09764    0.05988 = 
         0.09201    0.00624   -0.04622   -0.02102 
AFIX  33 
H40G  2    0.834969    0.029930    0.430448   -21.00000   -1.50000 
H40H  2    0.893626    0.011586    0.339005   -21.00000   -1.50000 
H40I  2    0.929866    0.051635    0.396443   -21.00000   -1.50000 
AFIX   0 
PART 0 
EADP C41b C41d 
EADP C42B C42D 
EADP C43B C43D 
EADP C44B C44D 
SAME 0.020 C41d c42d c43d c44d 
RIGU C41B > C44B 
PART 1 
C41B  1    1.077774    0.124100    0.330609    21.00000    0.05302    0.05722 = 
         0.04769   -0.00181   -0.01759   -0.02098 
AFIX  23 
H41C  2    1.059958    0.108669    0.387380    21.00000   -1.20000 
H41D  2    1.096780    0.074478    0.298566    21.00000   -1.20000 
AFIX   0 
C42B  1    1.162324    0.151039    0.316777    21.00000    0.04335    0.05549 = 
         0.05870   -0.01162   -0.01078   -0.01426 
AFIX  13 
H42B  2    1.180509    0.166242    0.259330    21.00000   -1.20000 
AFIX   0 
C43B  1    1.244488    0.086042    0.331989    21.00000    0.05524    0.05803 = 
         0.11194   -0.00977   -0.03546   -0.00986 
AFIX  33 
H43D  2    1.296971    0.107201    0.322008    21.00000   -1.50000 
H43E  2    1.228400    0.068476    0.387551    21.00000   -1.50000 
H43F  2    1.261591    0.040131    0.296311    21.00000   -1.50000 
AFIX   0 
C44B  1    1.137281    0.228916    0.367801    21.00000    0.04577    0.06327 = 
         0.10140   -0.02808   -0.03497   -0.00774 
AFIX  33 
H44D  2    1.083677    0.270059    0.356668    21.00000   -1.50000 
H44E  2    1.122161    0.215509    0.424637    21.00000   -1.50000 
H44F  2    1.190409    0.249674    0.353873    21.00000   -1.50000 
AFIX   0 
PART 2 
C41D  1    1.095985    0.153628    0.294831   -21.00000    0.05302    0.05722 = 
         0.04769   -0.00181   -0.01759   -0.02098 
AFIX  23 
H41E  2    1.116777    0.098665    0.272141   -21.00000   -1.20000 
H41F  2    1.126036    0.186688    0.253849   -21.00000   -1.20000 
AFIX   0 
C42D  1    1.134237    0.147892    0.364933   -21.00000    0.04335    0.05549 = 
         0.05870   -0.01162   -0.01078   -0.01426 
AFIX  13 
H42D  2    1.087102    0.139881    0.414649   -21.00000   -1.20000 
AFIX   0 
C43D  1    1.223320    0.079291    0.355949   -21.00000    0.05524    0.05803 = 
         0.11194   -0.00977   -0.03546   -0.00986 
AFIX  33 
H43G  2    1.245664    0.077802    0.402700   -21.00000   -1.50000 
H43H  2    1.211974    0.028251    0.351517   -21.00000   -1.50000 
H43I  2    1.270164    0.087281    0.307799   -21.00000   -1.50000 
AFIX   0 
C44D  1    1.154480    0.229378    0.372600   -21.00000    0.04577    0.06327 = 
         0.10140   -0.02808   -0.03497   -0.00774 
AFIX  33 
H44G  2    1.179402    0.226080    0.418118   -21.00000   -1.50000 
H44H  2    1.199823    0.238070    0.323647   -21.00000   -1.50000 
H44I  2    1.096741    0.274399    0.380777   -21.00000   -1.50000 
AFIX   0 
PART 0 
EADP C45B C45D 
EADP C46B C46D 
EADP C47B C47D 
EADP C48B C48D 
SAME 0.020 C45d > C48d 
RIGU C45b > C48d 
PART 1 
C45B  1    0.953514    0.234141    0.214622    21.00000    0.06573    0.06389 = 
         0.04982   -0.01950   -0.00445   -0.03100 
AFIX  23 
H45C  2    0.991381    0.192916    0.172602    21.00000   -1.20000 
H45D  2    0.887549    0.245280    0.216854    21.00000   -1.20000 
AFIX   0 
C46B  1    0.980619    0.313241    0.191408    21.00000    0.06801    0.06602 = 
         0.06595   -0.01391   -0.01155   -0.03260 
AFIX  13 
H46B  2    1.031039    0.311524    0.215491    21.00000   -1.20000 
AFIX   0 
C47B  1    0.898413    0.384540    0.225619    21.00000    0.07867    0.06968 = 
         0.06290   -0.00976   -0.01541   -0.02535 
AFIX  33 
H47D  2    0.875472    0.377775    0.283326    21.00000   -1.50000 
H47E  2    0.916751    0.433713    0.215121    21.00000   -1.50000 
H47F  2    0.849263    0.388751    0.200780    21.00000   -1.50000 
AFIX   0 
C48B  1    1.014503    0.324997    0.102988    21.00000    0.08677    0.08630 = 
         0.06551   -0.00704   -0.00649   -0.03493 
AFIX  33 
H48D  2    1.068341    0.278794    0.079696    21.00000   -1.50000 
H48E  2    0.964885    0.329449    0.078643    21.00000   -1.50000 
H48F  2    1.032373    0.374411    0.092984    21.00000   -1.50000 
AFIX   0 
PART 2 
C45D  1    1.019137    0.256966    0.208496   -21.00000    0.06573    0.06389 = 
         0.04982   -0.01950   -0.00445   -0.03100 
AFIX  23 
H45E  2    1.048923    0.292412    0.224291   -21.00000   -1.20000 
H45F  2    1.068194    0.217313    0.169446   -21.00000   -1.20000 
AFIX   0 
C46D  1    0.947979    0.309523    0.165359   -21.00000    0.06801    0.06602 = 
         0.06595   -0.01391   -0.01155   -0.03260 
AFIX  13 
H46D  2    0.910070    0.276507    0.157489   -21.00000   -1.20000 
AFIX   0 
C47D  1    0.884569    0.380199    0.217585   -21.00000    0.07867    0.06968 = 
         0.06290   -0.00976   -0.01541   -0.02535 
AFIX  33 
H47G  2    0.855295    0.360996    0.269725   -21.00000   -1.50000 
H47H  2    0.920362    0.414156    0.224565   -21.00000   -1.50000 
H47I  2    0.836541    0.411709    0.192651   -21.00000   -1.50000 
AFIX   0 
C48D  1    0.992900    0.338305    0.085721   -21.00000    0.08677    0.08630 = 
         0.06551   -0.00704   -0.00649   -0.03493 
AFIX  33 
H48G  2    1.034313    0.291830    0.051785   -21.00000   -1.50000 
H48H  2    0.945017    0.369759    0.060612   -21.00000   -1.50000 
H48I  2    1.028838    0.372207    0.092525   -21.00000   -1.50000 
PART 0 
AFIX   0 
HKLF 5 
 
REM  x14342 in P-1 
REM R1 =  0.1190 for    8889 Fo > 4sig(Fo)  and  0.1821 for all   15822 data 
REM   1074 parameters refined using    472 restraints 
 
END 
 
WGHT      0.1390     17.1974 
 
REM No hydrogen bonds found for HTAB generation 
 
REM Highest difference peak  0.875,  deepest hole -0.842,  1-sigma level  0.107 
Q1    1   0.3409  0.1990 -0.2945  11.00000  0.05    0.87 
Q2    1   0.2120 -0.2949  0.1964  11.00000  0.05    0.81 
Q3    1   0.3445  0.3123 -0.1781  11.00000  0.05    0.61 
Q4    1   0.8239  0.3167  0.2024  11.00000  0.05    0.51 
Q5    1   0.6834  0.7957  0.6987  11.00000  0.05    0.49 
Q6    1   0.0222 -0.0428  0.1639  11.00000  0.05    0.47 
Q7    1   0.6616  0.2054  0.3005  11.00000  0.05    0.47 
Q8    1   0.8492  0.6998  0.7927  11.00000  0.05    0.46 
Q9    1  -0.3203  0.0130  0.1180  11.00000  0.05    0.45 
Q10   1   0.3962  0.1737 -0.0233  11.00000  0.05    0.44 
Q11   1  -0.2166  0.0829  0.0602  11.00000  0.05    0.43 
Q12   1   0.1669  0.3971 -0.1663  11.00000  0.05    0.43 
Q13   1   0.4796  0.0325  0.1106  11.00000  0.05    0.43 
Q14   1   0.4977 -0.2896  0.2116  11.00000  0.05    0.42 
Q15   1   0.4377  0.4822  0.6220  11.00000  0.05    0.41 
Q16   1   0.0548  0.1926 -0.2996  11.00000  0.05    0.40 
Q17   1   0.9810  0.3240  0.0892  11.00000  0.05    0.40 
Q18   1   0.2994  0.5538  0.6728  11.00000  0.05    0.40 
Q19   1   0.6444  0.0052  0.1401  11.00000  0.05    0.40 
Q20   1   0.3711  0.2798 -0.1216  11.00000  0.05    0.39 
; 
_shelx_res_checksum    7787 
 
_shelx_hkl_file
;
  -1   0   0    4733     230  -2
   1   0   0    4733     230   1
  -2   0   0   37832    1502  -2
   2   0   0   37832    1502   1
   3   0   0    6297     370   1
   4   0   0    1716     520   1
   5   0   0    9099     548   1
   6   0   0   44610    1949   1
   7   0   0   11440     715   1
   8   0   0    7588     602   1
   9   0   0     546     289   1
  10   0   0    9114     647   1
  11   0   0    2788     384   1
  12   0   0    7023     585   1
  13   0   0     342     384   1
  14   0   0    1525     583   1
  15   0   0    1203     679   1
  16   0   0    2364    1080   1
  17   0   0    -165     342   1
 -17   1   0     617     549   1
 -16   1   0    -382     382   1
 -15   1   0     878     509   1
 -14   1   0    1363     535   1
 -13   1   0     334     344   1
 -12   1   0    7336     597   1
 -11   1   0     836     336   1
 -10   1   0    2020     382   1
  -9   1   0     664     177   1
  -8   1   0    7745     614   1
  -7   1   0   14667     894   1
  -6   1   0   22240    1058   1
  -5   1   0  111759    4361   1
  -4   1   0     168     342   1
  -3   1   0  163722    8061   1
   2   0  -1   29146    3017  -2
  -2   1   0   29146    3017   1
   1   0  -1    1411     152  -2
  -1   1   0    1411     152   1
   0   0  -1     168     104  -2
   0   1   0     168     104   1
  -1   0  -1   15930     755  -2
   1   1   0   15930     755   1
  -2   0  -1   31475    1364  -2
   2   1   0   31475    1364   1
  -3   0  -1    2766     289  -2
   3   1   0    2766     289   1
   4   1   0  172161    6749   1
   5   1   0     -53     318   1
   6   1   0   64626    2708   1
   7   1   0   31063    1484   1
   8   1   0     185     308   1
   9   1   0     497     335   1
  10   1   0    3226     209   1
  11   1   0    7787     604   1
  12   1   0     889     424   1
  13   1   0    1152     379   1
  14   1   0    2449     385   1
  15   1   0     533     610   1
  16   1   0     216     527   1
  17   1   0     117     823   1
 -16   2   0     -54     943   1
 -15   2   0    1625     475   1
 -14   2   0     851     590   1
 -13   2   0    1406     505   1
 -12   2   0    3613     516   1
 -11   2   0     704     357   1
 -10   2   0    1720     508   1
  -9   2   0    -197     309   1
  -8   2   0    1268     473   1
  -7   2   0     -10     394   1
  -6   2   0   20833    1048   1
  -5   2   0     301     356   1
  -4   2   0     658     299   1
  -3   2   0   13523     974   1
  -2   2   0     548     299   1
  -1   2   0   23376    1104   1
   0   0  -2    -260     260  -2
   0   2   0    -260     260   1
  -1   0  -2   35003    1575  -2
   1   2   0   35003    1575   1
  -2   0  -2   12951     690  -2
   2   2   0   12951     690   1
   3   2   0    1632     340   1
   4   2   0   13075    1317   1
   5   2   0   17042     820   1
   6   2   0   33226    1513   1
   7   2   0       9     323   1
   8   2   0    3524     454   1
   9   2   0   33566    2427   1
  10   2   0    2372     232   1
  11   2   0   16049     901   1
  12   2   0     314     362   1
  13   2   0   13483     870   1
  14   2   0    3516     462   1
  15   2   0     885     590   1
  16   2   0     590     513   1
  17   2   0     -16     431   1
 -16   3   0     298     448   1
 -15   3   0    -483     558   1
 -14   3   0     801     519   1
 -13   3   0    4588     968   1
 -12   3   0    3373     638   1
 -11   3   0     119     619   1
 -10   3   0    -420     420   1
  -9   3   0    8011     578   1
  -8   3   0   10773     497   1
  -7   3   0   20726    1242   1
  -6   3   0    1139     356   1
  -5   3   0     473     399   1
  -4   3   0   23250    1122   1
  -3   3   0    3991     422   1
  -2   3   0   37420    1718   1
  -1   3   0    1779     459   1
   0   0  -3      58     345  -2
   0   3   0      58     345   1
  -1   0  -3    2339     341  -2
   1   3   0    2339     341   1
  -2   0  -3   11631     710  -2
   2   3   0   11631     710   1
   3   3   0   44797    2197   1
   4   3   0  120320    4987   1
   5   3   0    1699     365   1
   6   3   0   69443    2826   1
   7   3   0      24     328   1
   8   3   0   11804    1048   1
   9   3   0   45228    3495   1
  10   3   0   13124     642   1
  11   3   0   22675    1012   1
  12   3   0    7548     630   1
  13   3   0     478     400   1
  14   3   0     558     490   1
  15   3   0    3654     643   1
  16   3   0    1487     564   1
  17   3   0    -352     462   1
 -15   4   0      89     666   1
 -14   4   0    -523    1217   1
 -13   4   0    4582     773   1
 -12   4   0     247     393   1
 -11   4   0   11344    1221   1
 -10   4   0    1076     399   1
  -9   4   0    1025     439   1
  -8   4   0    2033     279   1
  -7   4   0   14276    1291   1
  -6   4   0    8498     912   1
  -5   4   0   20510    1343   1
  -4   4   0      33     445   1
  -3   4   0   31524    1439   1
  -2   4   0    1251     507   1
  -1   4   0   53020    2260   1
   0   4   0  384564   17245   1
  -1   0  -4  230741    9390  -2
   1   4   0  230741    9390   1
  -2   0  -4    3686     544  -2
   2   4   0    3686     544   1
   3   4   0    6646     759   1
   4   4   0    2973     406   1
   5   4   0    -127     344   1
   6   4   0   34413    1571   1
   7   4   0    9206     850   1
   8   4   0     835     659   1
   9   4   0   14376    1654   1
  10   4   0     425     384   1
  11   4   0   10238     533   1
  12   4   0     341     348   1
  13   4   0   59842    3457   1
  14   4   0    2865     463   1
  15   4   0    6127     569   1
  16   4   0     425     789   1
  17   4   0     -40     482   1
  18   4   0     206     379   1
 -15   5   0     109     545   1
 -14   5   0     316     715   1
 -13   5   0     901     926   1
 -12   5   0    1403     384   1
 -11   5   0     229     416   1
 -10   5   0    1451     481   1
  -9   5   0     383     434   1
  -8   5   0     831     548   1
  -7   5   0    2658     332   1
  -6   5   0    2515     996   1
  -5   5   0    2186     678   1
  -4   5   0    4257     744   1
  -3   5   0   56634    2865   1
  -2   5   0   11051     712   1
  -1   5   0   15902     912   1
   0   5   0     403     479   1
  -1   0  -5    9430     644  -2
   1   5   0    9430     644   1
  -2   0  -5    6651     603  -2
   2   5   0    6651     603   1
   3   5   0    6235     580   1
   4   5   0    1897    1303   1
   5   5   0   80005    3975   1
   6   5   0    -353     868   1
   7   5   0    3871     729   1
   8   5   0     452     855   1
   9   5   0     312     694   1
  10   5   0   21808     999   1
  11   5   0    6323     568   1
  12   5   0     -28     241   1
  13   5   0    2598     836   1
  14   5   0    2378     698   1
  15   5   0   16333    1593   1
  16   5   0     886     470   1
  17   5   0     399    1080   1
  18   5   0     274     617   1
 -15   6   0      34     686   1
 -14   6   0      17     533   1
 -13   6   0    -196     633   1
 -12   6   0    3764     758   1
 -11   6   0    5663     586   1
 -10   6   0    1305     424   1
  -9   6   0    3792     522   1
  -8   6   0    7257     503   1
  -7   6   0   39499    1708   1
  -6   6   0   12618     872   1
  -5   6   0   11883    1168   1
  -4   6   0   31964    2329   1
  -3   6   0   13561    1261   1
  -2   6   0    8652     897   1
  -1   6   0   10739     950   1
   0   6   0   63714    2901   1
  -1   0  -6    9299     653  -2
   1   6   0    9299     653   1
  -2   0  -6   17315     973  -2
   2   6   0   17315     973   1
   3   6   0   11051    1218   1
   4   6   0   31079    1602   1
   5   6   0   10873    1358   1
   6   6   0   26907    2877   1
   7   6   0   10526    1592   1
   8   6   0   40467    3161   1
   9   6   0   16483    1116   1
  10   6   0    3719     330   1
  11   6   0    9201     628   1
  12   6   0    2079     279   1
  13   6   0     671     481   1
  14   6   0    1564     495   1
  15   6   0     587     388   1
  16   6   0     361     447   1
  17   6   0     857     926   1
  18   6   0    -549     549   1
 -14   7   0     198     806   1
 -13   7   0      -5     533   1
 -12   7   0    -375     630   1
 -11   7   0     354     552   1
 -10   7   0    2421     570   1
  -9   7   0    2268     666   1
  -8   7   0    2269     342   1
  -7   7   0   11104     669   1
  -6   7   0     631     325   1
  -5   7   0    7199     556   1
  -4   7   0   29342    2263   1
  -3   7   0     547     726   1
  -2   7   0   55629    3918   1
  -1   7   0    6618     951   1
   0   7   0     690     585   1
   1   7   0     344     859   1
  -2   0  -7   10601     724  -2
   2   7   0   10601     724   1
  -3   0  -7   30183    1660  -2
   3   7   0   30183    1660   1
   4   7   0   21653    1929   1
   5   7   0   16274    1548   1
   6   7   0    4532     708   1
   7   7   0     670     718   1
   8   7   0    6772     978   1
   9   7   0    2015     253   1
  10   7   0   10431     527   1
  11   7   0    2906     378   1
  12   7   0    4997     714   1
  13   7   0    3285     434   1
  14   7   0    1857     464   1
  15   7   0    2092     488   1
  16   7   0    1722     358   1
  17   7   0     274     891   1
  18   7   0    -549     583   1
 -13   8   0    1790     535   1
 -12   8   0    1044     578   1
 -11   8   0    2038     500   1
 -10   8   0    -531     531   1
  -9   8   0     411     556   1
  -8   8   0   20224    1346   1
  -7   8   0     250     403   1
  -6   8   0   17269     956   1
  -5   8   0    -397     397   1
  -4   8   0   12206     769   1
  -3   8   0   19110    1700   1
  -2   8   0   37539    3104   1
  -1   8   0   26149    2344   1
   0   8   0    5279     929   1
   1   8   0   20956    1472   1
  -2   0  -8   14692     995  -2
   2   8   0   14692     995   1
  -3   0  -8   11344     841  -2
   3   8   0   11344     841   1
   4   8   0   28456    1587   1
   5   8   0   12247    1112   1
   6   8   0    3777    1013   1
   7   8   0   14237    1514   1
   8   8   0    7238     881   1
   9   8   0    1516     251   1
  10   8   0    2285     602   1
  11   8   0    1107     315   1
  12   8   0    5077     536   1
  13   8   0     130     303   1
  14   8   0    7500     777   1
  15   8   0     917     806   1
  16   8   0     675     356   1
  17   8   0       0     857   1
 -13   9   0     240     549   1
 -12   9   0      82     428   1
 -11   9   0     393     610   1
 -10   9   0     582     856   1
  -9   9   0    -648     648   1
  -8   9   0   16041    1673   1
  -7   9   0    2088     662   1
  -6   9   0     557     408   1
  -5   9   0    1123     396   1
  -4   9   0    9818     572   1
  -3   9   0    2966     416   1
  -2   9   0    4058     995   1
  -1   9   0    3497    1018   1
   0   9   0    -498     860   1
   1   9   0     113    1074   1
  -2   0  -9   12710    1353  -2
   2   9   0   12710    1353   1
  -3   0  -9    3344     729  -2
   3   9   0    3344     729   1
   4   9   0    6232    1103   1
   5   9   0   14563    1601   1
   6   9   0    2274    1406   1
   7   9   0    5798    1002   1
   8   9   0   12596     914   1
   9   9   0    2865     585   1
  10   9   0    6971     640   1
  11   9   0    4492     653   1
  12   9   0    -202     297   1
  13   9   0    5675     519   1
  14   9   0    2101     403   1
  15   9   0    1314     357   1
  16   9   0     461     393   1
  17   9   0    -350     428   1
 -12  10   0     549     507   1
 -11  10   0    -230     634   1
 -10  10   0     194     582   1
  -9  10   0    6865     772   1
  -8  10   0    1541     776   1
  -7  10   0    4958     584   1
  -6  10   0     504     474   1
  -5  10   0     369     426   1
  -4  10   0    2325     332   1
  -3  10   0     -40     402   1
  -2  10   0     485     484   1
  -1  10   0    9370     970   1
   0  10   0   18372    1871   1
   1  10   0   18054    1817   1
   2  10   0    8342    1509   1
  -3   0 -10    7461    1452  -2
   3  10   0    7461    1452   1
  -4   0 -10    5339    1240  -2
   4  10   0    5339    1240   1
   5  10   0   15159    1954   1
   6  10   0     514     794   1
   7  10   0   34017    2337   1
   8  10   0    4120     543   1
   9  10   0    -104     322   1
  10  10   0     468     405   1
  11  10   0   15940     866   1
  12  10   0    3324     503   1
  13  10   0   10028     870   1
  14  10   0    1201     359   1
  15  10   0    1283     480   1
  16  10   0     876     480   1
  17  10   0      42     514   1
 -11  11   0    -420     453   1
 -10  11   0     376     404   1
  -9  11   0    5997     896   1
  -8  11   0    -498     528   1
  -7  11   0    1135     576   1
  -6  11   0    4057     554   1
  -5  11   0    1368     634   1
  -4  11   0     347     354   1
  -3  11   0   34878    1707   1
  -2  11   0     372     501   1
  -1  11   0     794     534   1
   0  11   0     -33     468   1
   1  11   0    1886     567   1
   2  11   0    1771    1268   1
   5  11   0   17115    5656   1
   6  11   0    1283    1144   1
   7  11   0    6645     767   1
   8  11   0    5129    1085   1
   9  11   0    5668     504   1
  10  11   0    2507     428   1
  11  11   0    3268     363   1
  12  11   0    1160     402   1
  13  11   0   11442     958   1
  14  11   0    3461     693   1
  15  11   0    3108     552   1
  16  11   0     367     585   1
  17  11   0    1234     583   1
 -10  12   0    -462     462   1
  -9  12   0      27     426   1
  -8  12   0     193     471   1
  -7  12   0    4896     810   1
  -6  12   0    1511     573   1
  -5  12   0    1828     692   1
  -4  12   0     481     610   1
  -3  12   0   11449    1190   1
  -2  12   0     688     449   1
  -1  12   0     486     449   1
   0  12   0   11986    1308   1
   1  12   0    1324     701   1
   2  12   0   11796    1583   1
  -3   0 -12    3394    1063  -2
   3  12   0    3394    1063   1
   5  12   0   11141    1440   1
   7  12   0    1442     406   1
   8  12   0   10860    1179   1
   9  12   0    1010     652   1
  10  12   0     -93     377   1
  11  12   0   10476    1058   1
  12  12   0    4160     556   1
  13  12   0    -413     413   1
  14  12   0    2447     633   1
  15  12   0    2389     494   1
  16  12   0     103     617   1
  17  12   0    -171     411   1
 -10  13   0     720     651   1
  -9  13   0     611     361   1
  -8  13   0    -391     391   1
  -7  13   0     493    1337   1
  -6  13   0    2267     549   1
  -5  13   0    1052     699   1
  -4  13   0    -781    1220   1
  -3  13   0    9356     710   1
  -2  13   0    6489     682   1
  -1  13   0    1572     537   1
   0  13   0    1048     576   1
   1  13   0      67     562   1
   2  13   0    6205    1268   1
   3  13   0    5416    1200   1
   5  13   0    1474     720   1
   6  13   0    4834     823   1
   7  13   0    -324     593   1
   8  13   0   10639    1653   1
   9  13   0    7448     774   1
  10  13   0     222     443   1
  11  13   0    3182     400   1
  12  13   0   12968    1167   1
  13  13   0    -130     470   1
  14  13   0    3216     502   1
  15  13   0    7130    1200   1
  16  13   0     686     617   1
  -9  14   0    2365     754   1
  -8  14   0    -231     441   1
  -7  14   0     726     651   1
  -6  14   0    1217     659   1
  -5  14   0    1394     773   1
  -4  14   0    2260     596   1
  -3  14   0    1522     613   1
  -2  14   0    1114     643   1
  -1  14   0     124     484   1
   0  14   0    2351     708   1
   1  14   0   12605    1486   1
   2  14   0     137     926   1
   3  14   0    1817     754   1
  -4   0 -14    -686     994  -2
   4  14   0    -686     994   1
  -5   0 -14    2537     823  -2
   5  14   0    2537     823   1
   6  14   0   12135    1714   1
   7  14   0   11036    3068   1
   8  14   0    5025     889   1
   9  14   0    3798     968   1
  10  14   0    -653    1080   1
  11  14   0    5312     568   1
  12  14   0    2059     541   1
  13  14   0    4780     578   1
  14  14   0     629     345   1
  15  14   0     478     472   1
  16  14   0     210     311   1
  -8  15   0     309     686   1
  -7  15   0    -116     545   1
  -6  15   0    2310     615   1
  -5  15   0     240     346   1
  -4  15   0    2500     646   1
  -3  15   0    1395     678   1
  -2  15   0     883     368   1
  -1  15   0    1654     444   1
   0  15   0     272     897   1
   1  15   0    -250     679   1
   2  15   0    1468     846   1
   3  15   0    7610    1268   1
  -4   0 -15    9530    1508  -2
   4  15   0    9530    1508   1
  -5   0 -15    1265     857  -2
   5  15   0    1265     857   1
   6  15   0    4799     994   1
   7  15   0    -651    1440   1
   8  15   0     865     607   1
   9  15   0     429     497   1
  10  15   0     289    1406   1
  11  15   0    4801     525   1
  12  15   0    1768     610   1
  13  15   0     364     407   1
  14  15   0     228     350   1
  15  15   0    -410     410   1
  -6  16   0     518     507   1
  -5  16   0     855     807   1
  -4  16   0     355     447   1
  -3  16   0    1183     559   1
  -2  16   0      50     539   1
  -1  16   0    5458     538   1
   0  16   0     650     606   1
   1  16   0     550     908   1
   2  16   0     783     784   1
   3  16   0    1200     720   1
   4  16   0    9256    1474   1
  -5   0 -16    5259     763  -2
   5  16   0    5259     763   1
   6  16   0    4532    1217   1
   7  16   0   13130    1748   1
   8  16   0    1234     549   1
   9  16   0     897     581   1
  10  16   0    6343     872   1
  11  16   0     859     307   1
  12  16   0    1341     457   1
  13  16   0    -356     356   1
  14  16   0      76     292   1
  15  16   0     688     337   1
  -5  17   0      21     549   1
  -4  17   0     240     571   1
  -3  17   0     754     477   1
  -2  17   0    -176     449   1
  -1  17   0     280     528   1
   0  17   0     574     407   1
   1  17   0     417     575   1
   2  17   0      68     711   1
   3  17   0    2773     807   1
   4  17   0    7508    1268   1
  -5   0 -17    3936     600  -2
   5  17   0    3936     600   1
   6  17   0    4305     679   1
   7  17   0    1337     754   1
   8  17   0    1543     583   1
   9  17   0     201     529   1
  10  17   0    2141     433   1
  11  17   0    3652     780   1
  12  17   0    2907     615   1
  13  17   0    -324     356   1
  14  17   0    1930     458   1
  -4  18   0     377     514   1
  -3  18   0     -27     448   1
  -2  18   0    1157     370   1
  -1  18   0      49     529   1
   0  18   0     230     591   1
   1  18   0    2300     395   1
   2  18   0    1880     686   1
   3  18   0    -254     628   1
   4  18   0    3222     960   1
  -5   0 -18    1460     669  -2
   5  18   0    1460     669   1
  -6   0 -18    1106    1183  -2
   6  18   0    1106    1183   1
   7  18   0     975     771   1
   8  18   0      97     472   1
   9  18   0    3360     857   1
  10  18   0    -622     728   1
  11  18   0    1370     493   1
  12  18   0    1342     549   1
  13  18   0     328     594   1
  -1  19   0      29     427   1
   0  19   0     -79     432   1
   1  19   0    1752     960   1
   2  19   0     926     428   1
   3  19   0     592     476   1
   4  19   0    2785     569   1
   5  19   0    1227     545   1
  -6   0 -19     902     459  -2
   6  19   0     902     459   1
   7  19   0    1230     535   1
   8  19   0    6349     739   1
   9  19   0    5133     586   1
  10  19   0     375     275   1
  11  19   0    2034     594   1
  12  19   0    -240     291   1
   1  20   0     160     429   1
   2  20   0     315     472   1
   3  20   0    4178    1474   1
   4  20   0     772     320   1
   5  20   0    3908     651   1
  -6   0 -20     651     686  -2
   6  20   0     651     686   1
   7  20   0     350     343   1
   8  20   0     206     446   1
   9  20   0     223     287   1
  10  20   0    -154     394   1
   6  21   0     446     218   1
  -9 -20   1     165     203   1
  -8 -20   1     106     286   1
  -7 -20   1     309     617   1
   6  -1  20    -411     720  -2
  -6 -20   1    -411     720   1
  -5 -20   1     838     347   1
  -4 -20   1    5259    1162   1
  -3 -20   1    -514     514   1
  -2 -20   1      72     539   1
  -1 -20   1     -46     371   1
 -12 -19   1     789     411   1
 -11 -19   1    -300     346   1
 -10 -19   1    -123     231   1
  -9 -19   1     328     271   1
  -8 -19   1    -309     549   1
  -7 -19   1     597     415   1
   6  -1  19    3143     977  -2
  -6 -19   1    3143     977   1
  -5 -19   1     309     411   1
  -4 -19   1    2020     616   1
  -3 -19   1      -8     634   1
  -2 -19   1    2179     994   1
  -1 -19   1    -379     806   1
   0 -19   1    -376     534   1
   1 -19   1    -141     370   1
   2 -19   1     514     617   1
 -13 -18   1     216     247   1
 -12 -18   1    1942     469   1
 -11 -18   1     502     618   1
 -10 -18   1     575     406   1
  -9 -18   1    -608    1063   1
  -8 -18   1    2906    1508   1
  -7 -18   1     714     497   1
  -6 -18   1    1328     476   1
   5  -1  18    1644     600  -2
  -5 -18   1    1644     600   1
  -4 -18   1   22008    2743   1
  -3 -18   1     414     497   1
  -2 -18   1    1601     857   1
  -1 -18   1     373     347   1
   0 -18   1      73     553   1
   1 -18   1    -246     478   1
   2 -18   1     238     443   1
   3 -18   1     -50     583   1
   4 -18   1     274     480   1
 -14 -17   1     634     960   1
 -13 -17   1     232     282   1
 -12 -17   1     677     488   1
 -11 -17   1     589     309   1
 -10 -17   1     479     444   1
  -9 -17   1    -514     960   1
  -8 -17   1    1680     754   1
  -7 -17   1    4717     697   1
  -6 -17   1    5921     854   1
   5  -1  17    5439     820  -2
  -5 -17   1    5439     820   1
  -4 -17   1    4662    1166   1
  -3 -17   1     722     840   1
  -2 -17   1     115     492   1
  -1 -17   1    2656    1183   1
   0 -17   1    1811     556   1
   1 -17   1    1224     583   1
   2 -17   1    2467     500   1
   3 -17   1     376     376   1
   4 -17   1     155     493   1
   5 -17   1      56     472   1
 -15 -16   1    -206     377   1
 -14 -16   1     225     267   1
 -13 -16   1     288     360   1
 -12 -16   1    1306     421   1
 -11 -16   1      76     332   1
 -10 -16   1    1261     398   1
  -9 -16   1     190     437   1
  -8 -16   1    1783     789   1
  -7 -16   1    1097     583   1
  -6 -16   1    -521     521   1
   5  -1  16    5946    1577  -2
  -5 -16   1    5946    1577   1
   4  -1  16    2880    1131  -2
  -4 -16   1    2880    1131   1
  -3 -16   1    3462    1097   1
  -2 -16   1    1432    1217   1
  -1 -16   1    1492     688   1
   0 -16   1    2958     789   1
   1 -16   1     709     313   1
   2 -16   1      33     619   1
   3 -16   1     600     495   1
   4 -16   1     546     440   1
   5 -16   1     277     677   1
   6 -16   1     715     425   1
   7 -16   1    -583     583   1
 -15 -15   1    1117     703   1
 -14 -15   1    1100     380   1
 -13 -15   1    3411     485   1
 -12 -15   1     732     438   1
 -11 -15   1     297     355   1
 -10 -15   1    -457     457   1
  -9 -15   1     934     517   1
  -8 -15   1    6788    1063   1
  -7 -15   1     240     514   1
  -6 -15   1    -651     754   1
   5  -1  15    4697    1303  -2
  -5 -15   1    4697    1303   1
   4  -1  15    5176    1303  -2
  -4 -15   1    5176    1303   1
  -3 -15   1    -617     994   1
  -2 -15   1    2002     744   1
  -1 -15   1     834     734   1
   0 -15   1    5597     778   1
   1 -15   1    6534     866   1
   2 -15   1    8422     841   1
   3 -15   1    3958    1123   1
   4 -15   1     285     489   1
   5 -15   1    4219     877   1
   6 -15   1     884     571   1
   7 -15   1    -198     542   1
   8 -15   1     651     686   1
 -16 -14   1     514     411   1
 -15 -14   1      17     394   1
 -14 -14   1     664     348   1
 -13 -14   1    2774     445   1
 -12 -14   1   12224    1314   1
 -11 -14   1    1202     375   1
 -10 -14   1    2569     498   1
  -9 -14   1    1317     576   1
  -8 -14   1     427     500   1
  -7 -14   1    2453     750   1
  -6 -14   1    1714     754   1
   4  -1  14    6788    1406  -2
  -4 -14   1    6788    1406   1
  -3 -14   1    2674    1097   1
  -2 -14   1    1088     815   1
  -1 -14   1    -564     564   1
   0 -14   1    4584     800   1
   1 -14   1    2800     518   1
   2 -14   1    -108     466   1
   3 -14   1    -198     557   1
   4 -14   1      -7     601   1
   5 -14   1    1693     591   1
   6 -14   1    1022     685   1
   7 -14   1     489     658   1
   8 -14   1    -259     392   1
   9 -14   1    1440     720   1
 -16 -13   1     206     480   1
 -15 -13   1     690     453   1
 -14 -13   1    1034     439   1
 -13 -13   1   14257    1165   1
 -12 -13   1    4242     514   1
 -11 -13   1    4247     487   1
 -10 -13   1     436     291   1
  -9 -13   1     188     851   1
  -8 -13   1    1214     627   1
  -7 -13   1    4549    1594   1
  -6 -13   1    4902     960   1
   4  -1  13    1268     994  -2
  -4 -13   1    1268     994   1
   3  -1  13    4765     960  -2
  -3 -13   1    4765     960   1
  -2 -13   1    2228     754   1
  -1 -13   1     545     656   1
   0 -13   1    -153     491   1
   1 -13   1     377     508   1
   2 -13   1      72     486   1
   3 -13   1    -241     643   1
   4 -13   1    7414     770   1
   5 -13   1    3014     787   1
   6 -13   1     405     361   1
   7 -13   1    -213     543   1
   8 -13   1    7783    1748   1
   9 -13   1      21     513   1
  10 -13   1    -240     617   1
 -16 -12   1    2285     448   1
 -15 -12   1      52     473   1
 -14 -12   1    -131     371   1
 -13 -12   1    7489     979   1
 -12 -12   1     484     448   1
 -11 -12   1   20930    1603   1
 -10 -12   1      64     336   1
  -9 -12   1     841     492   1
  -8 -12   1     368     454   1
  -7 -12   1     809     614   1
  -5 -12   1    4114     857   1
   3  -1  12    2674     994  -2
  -3 -12   1    2674     994   1
  -2 -12   1    2998    1087   1
  -1 -12   1    5926     750   1
   0 -12   1    3251     610   1
   1 -12   1    2708     497   1
   2 -12   1    7025     590   1
   3 -12   1     614     384   1
   4 -12   1     267     624   1
   5 -12   1    7775     683   1
   6 -12   1    -470     470   1
   7 -12   1     274     581   1
   8 -12   1    -198     597   1
   9 -12   1     257     405   1
  10 -12   1     274    1303   1
  11 -12   1      34     651   1
 -17 -11   1     274     446   1
 -16 -11   1     659     363   1
 -15 -11   1     514     426   1
 -14 -11   1    1028     384   1
 -13 -11   1    2129     565   1
 -12 -11   1    3870     906   1
 -11 -11   1   24722    1492   1
 -10 -11   1    8804     623   1
  -9 -11   1    9704    1138   1
  -8 -11   1    2765     760   1
  -7 -11   1    2118     553   1
  -6 -11   1    2009     617   1
  -2 -11   1    9433    1646   1
  -1 -11   1    5922     753   1
   0 -11   1    -204     442   1
   1 -11   1   11128     741   1
   2 -11   1   19210    1083   1
   3 -11   1    2488     414   1
   4 -11   1     508     609   1
   5 -11   1    3446     833   1
   6 -11   1    3834     901   1
   7 -11   1     346     488   1
   8 -11   1   11785    1432   1
   9 -11   1    -206     994   1
  10 -11   1     309    1097   1
  11 -11   1     171     891   1
 -17 -10   1     262    1303   1
 -16 -10   1     326     481   1
 -15 -10   1     -40     343   1
 -14 -10   1    4313     489   1
 -13 -10   1    4393     578   1
 -12 -10   1    -119     404   1
 -11 -10   1    3017     596   1
 -10 -10   1   14901     863   1
  -9 -10   1   20703    1850   1
  -8 -10   1    2758     425   1
  -7 -10   1   12103    1766   1
  -6 -10   1    4289    1145   1
  -5 -10   1   23544    2555   1
  -4 -10   1    1714    1714   1
   3  -1  10    9438    1621  -2
  -3 -10   1    9438    1621   1
   2  -1  10   34916    3013  -2
  -2 -10   1   34916    3013   1
  -1 -10   1      63    1453   1
   0 -10   1    2205     994   1
   1 -10   1    6023     841   1
   2 -10   1    6080     536   1
   3 -10   1      24     354   1
   4 -10   1     590     260   1
   5 -10   1     286     411   1
   6 -10   1    4149     510   1
   7 -10   1    1299    1040   1
   8 -10   1     603     767   1
   9 -10   1   10284    1237   1
  10 -10   1     622     594   1
  11 -10   1   -1303    1440   1
  12 -10   1    -156     549   1
 -17  -9   1     482     754   1
 -16  -9   1     234     432   1
 -15  -9   1     308     994   1
 -14  -9   1   10932     831   1
 -13  -9   1     261     398   1
 -12  -9   1    2735     734   1
 -11  -9   1    1631     279   1
 -10  -9   1    4856     434   1
  -9  -9   1   26728    1535   1
  -8  -9   1     889     291   1
  -7  -9   1   62104    4722   1
  -6  -9   1    3454    1206   1
  -5  -9   1    3578    1731   1
  -4  -9   1    5778    1095   1
   3  -1   9   13822    1648  -2
  -3  -9   1   13822    1648   1
   2  -1   9   24821    2005  -2
  -2  -9   1   24821    2005   1
  -1  -9   1   15760    1609   1
   0  -9   1    3103     970   1
   1  -9   1   32395    2788   1
   2  -9   1  101966    6675   1
   3  -9   1    8805     654   1
   4  -9   1    9518     602   1
   5  -9   1   10002     645   1
   6  -9   1     743     593   1
   7  -9   1   14278    1072   1
   8  -9   1    5773     783   1
   9  -9   1    3586     622   1
  10  -9   1     628     653   1
  11  -9   1    -754     754   1
  12  -9   1    -260     457   1
  13  -9   1     926     754   1
 -17  -8   1     514     789   1
 -16  -8   1     398     423   1
 -15  -8   1    1693     448   1
 -14  -8   1    2746     638   1
 -13  -8   1    2609     379   1
 -12  -8   1    6576     504   1
 -11  -8   1     427     358   1
 -10  -8   1     935     495   1
  -9  -8   1    7817     566   1
  -8  -8   1    1356     847   1
  -7  -8   1    1557     808   1
  -6  -8   1    2805     873   1
  -5  -8   1   43021    5037   1
  -4  -8   1    6193     688   1
   3  -1   8   12681     988  -2
  -3  -8   1   12681     988   1
   2  -1   8    4662     632  -2
  -2  -8   1    4662     632   1
  -1  -8   1   14667    1279   1
   0  -8   1    2904     831   1
   1  -8   1     696     846   1
   2  -8   1   30954    2644   1
   3  -8   1    3914     899   1
   4  -8   1    2044     490   1
   5  -8   1    2593     423   1
   6  -8   1    3627     707   1
   7  -8   1    1238     467   1
   8  -8   1    3569     649   1
   9  -8   1    -195     683   1
  10  -8   1    2172     526   1
  11  -8   1    1253     858   1
  12  -8   1    1839     665   1
  13  -8   1    1273    1148   1
  14  -8   1    -549     549   1
 -17  -7   1     391     444   1
 -16  -7   1    -394     450   1
 -15  -7   1     708     353   1
 -14  -7   1     555     459   1
 -13  -7   1    3845     448   1
 -12  -7   1    6380     568   1
 -11  -7   1     197     428   1
 -10  -7   1   28571    1340   1
  -9  -7   1   11966     665   1
  -8  -7   1     910     965   1
  -7  -7   1    3321     839   1
  -6  -7   1   83393    6252   1
  -5  -7   1   89073    5664   1
  -4  -7   1    8869    1255   1
  -3  -7   1   27168    2156   1
   2  -1   7    4839     570  -2
  -2  -7   1    4839     570   1
   1  -1   7   15375    1007  -2
  -1  -7   1   15375    1007   1
   0  -7   1   38529    2251   1
   1  -7   1    2671     807   1
   2  -7   1    4900     903   1
   3  -7   1    7725    1035   1
   4  -7   1   24543    1989   1
   5  -7   1    4447     704   1
   6  -7   1    3350     418   1
   7  -7   1    4502     418   1
   8  -7   1    2866     485   1
   9  -7   1    8377     834   1
  10  -7   1    1536     550   1
  11  -7   1    1659     619   1
  12  -7   1     256     579   1
  13  -7   1    4276     781   1
  14  -7   1     456     556   1
 -17  -6   1    1748     891   1
 -16  -6   1    -231     324   1
 -15  -6   1     621     408   1
 -14  -6   1     129     396   1
 -13  -6   1    1479     547   1
 -12  -6   1     866     297   1
 -11  -6   1    2743     373   1
 -10  -6   1    5422     424   1
  -9  -6   1    4456     329   1
  -8  -6   1    9507    1141   1
  -7  -6   1    1178     764   1
  -6  -6   1   22302    2593   1
  -5  -6   1   14452    1773   1
  -4  -6   1   12859     979   1
  -3  -6   1   12612     931   1
   2  -1   6    9293     751  -2
  -2  -6   1    9293     751   1
   1  -1   6   23189    1263  -2
  -1  -6   1   23189    1263   1
   0  -6   1   13165     883   1
   1  -6   1     907     633   1
   2  -6   1     916     586   1
   3  -6   1    6524     876   1
   4  -6   1    1769     760   1
   5  -6   1     126     742   1
   6  -6   1    1692     396   1
   7  -6   1    7883     498   1
   8  -6   1   23697    1402   1
   9  -6   1    -350     498   1
  10  -6   1    1063     453   1
  11  -6   1    6658     619   1
  12  -6   1    3935     798   1
  13  -6   1    -148     640   1
  14  -6   1    -857     857   1
  15  -6   1     567     444   1
 -17  -5   1     686     891   1
 -16  -5   1    3728     771   1
 -15  -5   1     119     351   1
 -14  -5   1    1413     423   1
 -13  -5   1     601     515   1
 -12  -5   1    2941     553   1
 -11  -5   1       2     282   1
 -10  -5   1    4171     371   1
  -9  -5   1   13596     790   1
  -8  -5   1   53925    4172   1
  -7  -5   1   13632    1353   1
  -6  -5   1    -467     544   1
  -5  -5   1   19896    1340   1
  -4  -5   1    9078     765   1
  -3  -5   1    5520    1022   1
   2  -1   5    8788     698  -2
  -2  -5   1    8788     698   1
   1  -1   5    6069     623  -2
  -1  -5   1    6069     623   1
   0  -5   1   51524    2365   1
   1  -5   1    1392     382   1
   2  -5   1    1945     419   1
   3  -5   1     199     443   1
   4  -5   1   50707    2281   1
   5  -5   1    4345     789   1
   6  -5   1    8703    1502   1
   7  -5   1   14867     753   1
   8  -5   1    4057     529   1
   9  -5   1    3062     496   1
  10  -5   1     -71     447   1
  11  -5   1    6489     874   1
  12  -5   1    5891     748   1
  13  -5   1    8716    1680   1
  14  -5   1    -433     608   1
  15  -5   1     165     543   1
 -17  -4   1     486     410   1
 -16  -4   1    -255     530   1
 -15  -4   1     226     370   1
 -14  -4   1     547     408   1
 -13  -4   1     809     436   1
 -12  -4   1   10642     881   1
 -11  -4   1     793     243   1
 -10  -4   1    9972     592   1
  -9  -4   1     923     341   1
  -8  -4   1    5183     890   1
  -7  -4   1   30372    2151   1
  -6  -4   1   16629    1165   1
  -5  -4   1   28278    1801   1
  -4  -4   1   49037    2291   1
  -3  -4   1  148683    6866   1
  -2  -4   1   17163    1045   1
   1  -1   4   14739     867  -2
  -1  -4   1   14739     867   1
   0  -4   1  138375    6338   1
   1  -4   1   53488    2772   1
   2  -4   1   24149    1192   1
   3  -4   1    1660     375   1
   4  -4   1     652     348   1
   5  -4   1   16961     910   1
   6  -4   1   30349    1852   1
   7  -4   1   17023    1624   1
   8  -4   1    4011     526   1
   9  -4   1     793     464   1
  10  -4   1     898     378   1
  11  -4   1    1996     428   1
  12  -4   1    2797     688   1
  13  -4   1    7259    1065   1
  14  -4   1    1077     538   1
  15  -4   1     537     608   1
  16  -4   1    -446     514   1
 -17  -3   1     236     446   1
 -16  -3   1    -462     462   1
 -15  -3   1    1389     357   1
 -14  -3   1     442     381   1
 -13  -3   1   36545    2185   1
 -12  -3   1   11325     824   1
 -11  -3   1    4474     485   1
 -10  -3   1    6806     452   1
  -9  -3   1    8221     554   1
  -8  -3   1    2271     605   1
  -7  -3   1   10692    1014   1
  -6  -3   1    5428     581   1
  -5  -3   1    5715     552   1
  -4  -3   1    3571     566   1
  -3  -3   1   13785     840   1
  -2  -3   1   63107    2995   1
   1  -1   3    5470     488  -2
  -1  -3   1    5470     488   1
   0  -1   3  380271   17151  -2
   0  -3   1  380271   17151   1
   1  -3   1  235337    9956   1
   2  -3   1   30605    1396   1
   3  -3   1   11955     718   1
   4  -3   1    5116     427   1
   5  -3   1   11642     618   1
   6  -3   1   24087    1151   1
   7  -3   1   28046    1569   1
   8  -3   1    -310     310   1
   9  -3   1    4013     434   1
  10  -3   1    2224     424   1
  11  -3   1    2890     407   1
  12  -3   1    1870     427   1
  13  -3   1    5479    1098   1
  14  -3   1    1302     588   1
  15  -3   1      94     434   1
  16  -3   1     748     527   1
 -17  -2   1      27     374   1
 -16  -2   1     669     524   1
 -15  -2   1    2153     661   1
 -14  -2   1     872     357   1
 -13  -2   1    1850     380   1
 -12  -2   1   14856     983   1
 -11  -2   1   13588     674   1
 -10  -2   1    2022     328   1
  -9  -2   1   61118    2778   1
  -8  -2   1   11565    1075   1
  -7  -2   1   27356    1994   1
  -6  -2   1     929     365   1
  -5  -2   1    7996     649   1
  -4  -2   1   16140     910   1
  -3  -2   1  212207   10385   1
  -2  -2   1    7624     524   1
   1  -1   2   63985    2961  -2
  -1  -2   1   63985    2961   1
   0  -1   2   22144     977  -2
   0  -2   1   22144     977   1
   1  -2   1   23337    1076   1
   2  -2   1   13260     596   1
   3  -2   1    1048     269   1
   4  -2   1     928     293   1
   5  -2   1    1120     282   1
   6  -2   1    8063     474   1
   7  -2   1    3437     373   1
   8  -2   1     378    1195   1
   9  -2   1   42066    1921   1
  10  -2   1   28721    1505   1
  11  -2   1    1303     342   1
  12  -2   1     306     327   1
  13  -2   1     500     571   1
  14  -2   1     927     582   1
  15  -2   1    2624     788   1
  16  -2   1     713     516   1
 -17  -1   1    -131     361   1
 -16  -1   1     377     456   1
 -15  -1   1     325     874   1
 -14  -1   1    4040     826   1
 -13  -1   1    7034     634   1
 -12  -1   1    1510     457   1
 -11  -1   1    9189     681   1
 -10  -1   1     194     390   1
  -9  -1   1    3130     317   1
  -8  -1   1    2717     621   1
  -7  -1   1   67004    4407   1
  -6  -1   1    2257     369   1
  -5  -1   1     -58     331   1
  -4  -1   1    2536     458   1
  -3  -1   1   15032     760   1
  -2  -1   1  179882    8600   1
  -1  -1   1   32268    1452   1
   0  -1   1  569624   22898  -2
   0  -1   1  569624   22898   1
   1  -1   1   15969     691   1
   2  -1   1  287818   10668   1
   3  -1   1   14035    2280   1
   4  -1   1   11634     543   1
   5  -1   1   13454     652   1
   6  -1   1   14133     750   1
   7  -1   1   36136    1639   1
   8  -1   1    9403    1785   1
   9  -1   1    8341     599   1
  10  -1   1     189     267   1
  11  -1   1    8535     640   1
  12  -1   1     966     434   1
  13  -1   1      20     557   1
  14  -1   1    -639     639   1
  15  -1   1    -313     466   1
  16  -1   1     631     472   1
  17  -1   1    -411     617   1
 -17   0   1     651     549   1
 -16   0   1     314     431   1
 -15   0   1    -445     559   1
 -14   0   1     166     337   1
 -13   0   1    7296     778   1
 -12   0   1    8233     630   1
 -11   0   1    3113     390   1
 -10   0   1   35476    1510   1
  -9   0   1    7940     465   1
  -8   0   1     652     575   1
  -7   0   1   12266    1129   1
  -6   0   1     397     351   1
  -5   0   1   17360     940   1
  -4   0   1     848     340   1
  -3   0   1   50834    3072   1
   2  -1   0  173058    7394  -2
  -2   0   1  173058    7394   1
   1  -1   0     345     184  -2
  -1   0   1     345     184   1
   0  -1   0      27     134  -2
   0   0   1      27     134   1
  -1  -1   0   15870     624  -2
   1   0   1   15870     624   1
  -2  -1   0   69737    4672  -2
   2   0   1   69737    4672   1
  -3  -1   0    1954     174  -2
   3   0   1    1954     174   1
   4   0   1    3829     384   1
   5   0   1     211     213   1
   6   0   1    2492     278   1
   7   0   1    2014     270   1
   8   0   1   19409    1583   1
   9   0   1    4502    1463   1
  10   0   1    2852     461   1
  11   0   1    6607     459   1
  12   0   1     910     348   1
  13   0   1    1915     313   1
  14   0   1     604     426   1
  15   0   1     463     628   1
  16   0   1     838     618   1
  17   0   1     574     446   1
 -16   1   1      83     353   1
 -15   1   1     768     450   1
 -14   1   1    7521     871   1
 -13   1   1    -321     450   1
 -12   1   1    2130     456   1
 -11   1   1    1027     374   1
 -10   1   1    1108     212   1
  -9   1   1   14242     771   1
  -8   1   1     -19     607   1
  -7   1   1   13305    1142   1
  -6   1   1    1156     348   1
  -5   1   1   10533     658   1
  -4   1   1   25000    1203   1
  -3   1   1   13001     884   1
   2  -1  -1    1014     275  -2
  -2   1   1    1014     275   1
   1  -1  -1   32582    1370  -2
  -1   1   1   32582    1370   1
   0  -1  -1  592753   26715  -2
   0   1   1  592753   26715   1
  -1  -1  -1   21315     983  -2
   1   1   1   21315     983   1
  -2  -1  -1   96022    3756  -2
   2   1   1   96022    3756   1
  -3  -1  -1      84     175  -2
   3   1   1      84     175   1
   4   1   1   10282     511   1
   5   1   1    3145     298   1
   6   1   1   25321    1148   1
   7   1   1    9832     547   1
   8   1   1    4325     401   1
   9   1   1     646    1218   1
  10   1   1    4656     380   1
  11   1   1    1971     461   1
  12   1   1    6179     563   1
  13   1   1     258     323   1
  14   1   1    8090     767   1
  15   1   1    1288     812   1
  16   1   1      72     686   1
  17   1   1    -383     431   1
 -16   2   1     410     549   1
 -15   2   1     317     455   1
 -14   2   1    -224     542   1
 -13   2   1     262     407   1
 -12   2   1    6780     720   1
 -11   2   1     870     456   1
 -10   2   1   25461    1380   1
  -9   2   1     530     286   1
  -8   2   1   19028     851   1
  -7   2   1    1153     588   1
  -6   2   1    2667     537   1
  -5   2   1   15987     875   1
  -4   2   1   20673    1103   1
  -3   2   1   55623    3802   1
  -2   2   1    3346     382   1
   1  -1  -2   18808    1070  -2
  -1   2   1   18808    1070   1
   0  -1  -2   21048    1012  -2
   0   2   1   21048    1012   1
  -1  -1  -2   35660    1590  -2
   1   2   1   35660    1590   1
  -2  -1  -2   48172    2131  -2
   2   2   1   48172    2131   1
  -3  -1  -2     486     230  -2
   3   2   1     486     230   1
   5   2   1   27439    1197   1
   6   2   1   36421    1538   1
   7   2   1   12583     673   1
   8   2   1    3198     365   1
   9   2   1   20142    1165   1
  10   2   1    4940     412   1
  11   2   1   22657    1205   1
  12   2   1   17852     978   1
  13   2   1     513     318   1
  14   2   1    1369     607   1
  15   2   1    -432     490   1
  16   2   1    -125     519   1
  17   2   1    1111     513   1
  18   2   1    -206     617   1
 -16   3   1     994     583   1
 -15   3   1     -48     539   1
 -14   3   1   10223     988   1
 -13   3   1    3142     490   1
 -12   3   1     512     391   1
 -11   3   1    9538     830   1
 -10   3   1    2410     504   1
  -9   3   1    1343     320   1
  -8   3   1     353     319   1
  -7   3   1    4769     761   1
  -6   3   1     391     621   1
  -5   3   1    9768     842   1
  -4   3   1   30814    1325   1
  -3   3   1    6745     582   1
  -2   3   1    3269    1062   1
  -1   3   1   37312    1611   1
   0  -1  -3  393612   19051  -2
   0   3   1  393612   19051   1
  -1  -1  -3   52974    2221  -2
   1   3   1   52974    2221   1
  -2  -1  -3   62846    2789  -2
   2   3   1   62846    2789   1
  -3  -1  -3  153055    7524  -2
   3   3   1  153055    7524   1
   4   3   1    9626     542   1
   5   3   1    1424     334   1
   6   3   1  163242    6825   1
   7   3   1    1595     353   1
   8   3   1      90     309   1
   9   3   1   12432    1853   1
  10   3   1     -12     151   1
  11   3   1    3858     396   1
  12   3   1    1208     318   1
  13   3   1   15172    1072   1
  14   3   1    1243     361   1
  15   3   1    5910     892   1
  16   3   1     638     530   1
  17   3   1     386     526   1
  18   3   1     214     374   1
 -15   4   1     -55     488   1
 -14   4   1    1460     628   1
 -13   4   1    1109     843   1
 -12   4   1     215     807   1
 -11   4   1    5127     598   1
 -10   4   1     478     521   1
  -9   4   1    -186     565   1
  -8   4   1       5     304   1
  -7   4   1   27498    1467   1
  -6   4   1   12730    1250   1
  -5   4   1    1804    1074   1
  -4   4   1   12041     794   1
  -3   4   1   23409    1553   1
  -2   4   1     247     275   1
  -1   4   1   84089    3642   1
   0   4   1  171599    6974   1
  -1  -1  -4   34885    1572  -2
   1   4   1   34885    1572   1
  -2  -1  -4   19966     978  -2
   2   4   1   19966     978   1
  -3  -1  -4    2304     432  -2
   3   4   1    2304     432   1
   4   4   1   13875    1116   1
   5   4   1     324     413   1
   6   4   1   25231    1645   1
   7   4   1   10717     790   1
   8   4   1    3838    1074   1
   9   4   1     592     495   1
  10   4   1    2114     246   1
  11   4   1   32323    1367   1
  12   4   1    5979     509   1
  13   4   1    2453     721   1
  14   4   1     891     402   1
  15   4   1     340     481   1
  16   4   1     489     457   1
  17   4   1    6556    1491   1
  18   4   1     302     399   1
 -15   5   1      65     463   1
 -14   5   1     294     767   1
 -13   5   1    3993    1577   1
 -12   5   1    1485     416   1
 -11   5   1    1485     544   1
 -10   5   1    4029     517   1
  -9   5   1    8436     556   1
  -8   5   1     961     321   1
  -7   5   1   19296     907   1
  -6   5   1   15504    1659   1
  -5   5   1   64402    4949   1
  -4   5   1   10721    1097   1
  -3   5   1   68302    3595   1
  -2   5   1   12120    1081   1
  -1   5   1    1338     381   1
   0   5   1   40306    1848   1
  -1  -1  -5   38084    1685  -2
   1   5   1   38084    1685   1
  -2  -1  -5   12350     892  -2
   2   5   1   12350     892   1
  -3  -1  -5   60627    2784  -2
   3   5   1   60627    2784   1
   4   5   1   14920     902   1
   5   5   1   40021    1951   1
   6   5   1   23763    1370   1
   7   5   1   15749    1271   1
   8   5   1   14589    1257   1
   9   5   1     581     628   1
  10   5   1    5576     372   1
  11   5   1    9591     512   1
  12   5   1   18549    1084   1
  13   5   1   55519    3209   1
  14   5   1     289     459   1
  15   5   1   15175    1098   1
  16   5   1     885     445   1
  17   5   1     545    1268   1
  18   5   1    -426     429   1
 -14   6   1     276     580   1
 -13   6   1     637     590   1
 -12   6   1     292     804   1
 -11   6   1    7540     791   1
 -10   6   1    3256     774   1
  -9   6   1    5153     556   1
  -8   6   1    1390     329   1
  -7   6   1    1747     615   1
  -6   6   1    2512     395   1
  -5   6   1    5984     987   1
  -4   6   1   24789    1883   1
  -3   6   1   18049    1784   1
  -2   6   1     918     586   1
  -1   6   1   17267     993   1
   0   6   1   19682    1025   1
  -1  -1  -6   10757     701  -2
   1   6   1   10757     701   1
  -2  -1  -6    1290     470  -2
   2   6   1    1290     470   1
  -3  -1  -6     398     392  -2
   3   6   1     398     392   1
   4   6   1    2101     517   1
   5   6   1    6736     729   1
   6   6   1    5371     653   1
   7   6   1   66699    4421   1
   8   6   1    5085     915   1
   9   6   1    8042    1026   1
  10   6   1   31076    1354   1
  11   6   1    3974     404   1
  12   6   1   14771     727   1
  13   6   1    1583     423   1
  14   6   1    3890     796   1
  15   6   1    2370     416   1
  16   6   1    -207     448   1
  17   6   1    5455    1560   1
  18   6   1     171     720   1
 -14   7   1     137     720   1
 -13   7   1    -336     549   1
 -12   7   1    1635     880   1
 -11   7   1     679     453   1
 -10   7   1    1634     950   1
  -9   7   1   10541     976   1
  -8   7   1   24223    1229   1
  -7   7   1    1092     347   1
  -6   7   1    2117     428   1
  -5   7   1     872     552   1
  -4   7   1   36046    2583   1
  -3   7   1   35233    2915   1
  -2   7   1   30317    2558   1
  -1   7   1    8924    1155   1
   0   7   1   24580    1353   1
   1   7   1    3754     492   1
  -2  -1  -7   11887     785  -2
   2   7   1   11887     785   1
  -3  -1  -7   26134    1291  -2
   3   7   1   26134    1291   1
   4   7   1   22393    1243   1
   5   7   1    2671     640   1
   6   7   1    5512     738   1
   7   7   1   33426    2386   1
   8   7   1    4447     769   1
   9   7   1   26999    1374   1
  10   7   1    1011     253   1
  11   7   1   12502     646   1
  12   7   1   13367     678   1
  13   7   1    1345     403   1
  14   7   1    8392     767   1
  15   7   1    2888     445   1
  16   7   1     -64     341   1
  17   7   1    -579     789   1
  18   7   1    -411     720   1
 -13   8   1    -428     507   1
 -12   8   1     350    1303   1
 -11   8   1    3766     522   1
 -10   8   1    1524     567   1
  -9   8   1    3285     665   1
  -8   8   1   30992    1644   1
  -7   8   1     235     382   1
  -6   8   1    6732     581   1
  -5   8   1      32     244   1
  -4   8   1    1232     493   1
  -3   8   1   29331    2260   1
  -2   8   1   43306    3490   1
  -1   8   1   12936    1466   1
   0   8   1    1750     809   1
   1   8   1    3225     543   1
  -2  -1  -8    4021     530  -2
   2   8   1    4021     530   1
  -3  -1  -8     199     498  -2
   3   8   1     199     498   1
   4   8   1    5346     720   1
   5   8   1   21771    1577   1
   6   8   1    5877    1514   1
   7   8   1    5837    1128   1
   8   8   1    4594     773   1
   9   8   1    3167     655   1
  10   8   1    1192     193   1
  11   8   1      93     240   1
  12   8   1    3487     423   1
  13   8   1    -233     326   1
  14   8   1    1699     472   1
  15   8   1     604     616   1
  16   8   1    5800    1056   1
  17   8   1    1452     383   1
  18   8   1     214     393   1
 -13   9   1     411     583   1
 -12   9   1     -34     533   1
 -11   9   1    -267     267   1
 -10   9   1      48     638   1
  -9   9   1     221     708   1
  -8   9   1   17068    1118   1
  -7   9   1    4810     691   1
  -6   9   1    5500     583   1
  -5   9   1     427     275   1
  -4   9   1    1345     363   1
  -3   9   1     692     364   1
  -2   9   1    7769    1205   1
  -1   9   1   15541    1662   1
   0   9   1    3570    1593   1
   1   9   1    7254    1059   1
  -2  -1  -9    2616     750  -2
   2   9   1    2616     750   1
  -3  -1  -9    4065     718  -2
   3   9   1    4065     718   1
  -4  -1  -9    2666     736  -2
   4   9   1    2666     736   1
   5   9   1      -7     576   1
   6   9   1   37605    3041   1
   7   9   1    9693    1957   1
   8   9   1    1147     338   1
   9   9   1   23310    1462   1
  10   9   1   15581     739   1
  11   9   1     186     335   1
  12   9   1    4839     445   1
  13   9   1      69     323   1
  14   9   1    3136     462   1
  15   9   1    1155     398   1
  16   9   1    6397     599   1
  17   9   1     561     332   1
  18   9   1    -171     480   1
 -12  10   1     171     583   1
 -11  10   1    2013     666   1
 -10  10   1    4175     499   1
  -9  10   1     877     456   1
  -8  10   1     488     637   1
  -7  10   1    -325     465   1
  -6  10   1     898     432   1
  -5  10   1    3068     502   1
  -4  10   1    6989     560   1
  -3  10   1    3686     506   1
  -2  10   1    2466     448   1
  -1  10   1     -62     472   1
   0  10   1    -635     866   1
   1  10   1     507     899   1
   2  10   1   11171    1766   1
  -3  -1 -10   11162    1678  -2
   3  10   1   11162    1678   1
  -4  -1 -10    9296    4474  -2
   4  10   1    9296    4474   1
   5  10   1    3888     949   1
   6  10   1   21282    2434   1
   7  10   1    2481     500   1
   8  10   1    5930     810   1
   9  10   1    9722     698   1
  10  10   1   23559    1154   1
  11  10   1   10282     594   1
  12  10   1    8570     631   1
  13  10   1    8530     651   1
  14  10   1     428     383   1
  15  10   1     275     435   1
  16  10   1    -370     521   1
  17  10   1    -377     583   1
  18  10   1    -377     446   1
 -11  11   1     134     459   1
 -10  11   1     243     364   1
  -9  11   1    2056     670   1
  -8  11   1     279     602   1
  -7  11   1    2966     516   1
  -6  11   1      74     489   1
  -5  11   1    8528    1167   1
  -4  11   1    1128     470   1
  -3  11   1   11431     800   1
  -2  11   1    7163     609   1
  -1  11   1   22701    1342   1
   0  11   1    1433     553   1
   1  11   1    5186     719   1
   2  11   1   14416    4079   1
   5  11   1   49945    4739   1
   6  11   1    5423     734   1
   7  11   1    3844     935   1
   8  11   1     796     463   1
   9  11   1    3901     551   1
  10  11   1    6704     585   1
  11  11   1    7822     567   1
  12  11   1   10789     956   1
  13  11   1   22360    1699   1
  14  11   1    2105     413   1
  15  11   1      57     425   1
  16  11   1     549     720   1
  17  11   1     411     617   1
 -10  12   1    1590     545   1
  -9  12   1     188     405   1
  -8  12   1     783     478   1
  -7  12   1    -523     770   1
  -6  12   1    -386     458   1
  -5  12   1    1541     691   1
  -4  12   1    4019     884   1
  -3  12   1     984     636   1
  -2  12   1   19466    1151   1
  -1  12   1     558     443   1
   0  12   1    1841     871   1
   1  12   1    3505     960   1
   2  12   1    2914     994   1
   3  12   1    -206     651   1
   5  12   1   19129    2400   1
   6  12   1    2334     568   1
   7  12   1    1135     399   1
   8  12   1    1563     523   1
   9  12   1     805     634   1
  10  12   1    -250     422   1
  11  12   1    2406     378   1
  12  12   1    9107     867   1
  13  12   1   10130     934   1
  14  12   1    2750     449   1
  15  12   1     466     444   1
  16  12   1     -96     453   1
  17  12   1    5245     994   1
  -9  13   1    1240     703   1
  -8  13   1    1746     994   1
  -7  13   1    2968     772   1
  -6  13   1    1598     505   1
  -5  13   1     954     685   1
  -4  13   1    -622     622   1
  -3  13   1     602     841   1
  -2  13   1    1569     686   1
  -1  13   1    2440     623   1
   0  13   1     793     548   1
   1  13   1      45     542   1
   2  13   1   16215    2297   1
   3  13   1    2674    1028   1
  -5  -1 -13   22283    2777  -2
   5  13   1   22283    2777   1
   6  13   1     103     446   1
   7  13   1    7713    1268   1
   8  13   1   10605     915   1
   9  13   1     340     686   1
  10  13   1    1465     560   1
  11  13   1     819     347   1
  12  13   1      40     512   1
  13  13   1    2026     578   1
  14  13   1     378     375   1
  15  13   1     392     521   1
  16  13   1     461     428   1
  17  13   1     411     514   1
  -8  14   1     875     446   1
  -7  14   1     279     692   1
  -6  14   1     425     622   1
  -5  14   1     340     585   1
  -4  14   1    -690     690   1
  -3  14   1     743     623   1
  -2  14   1    6241     670   1
  -1  14   1    8145    1051   1
   0  14   1    2174     972   1
   1  14   1     646     671   1
   2  14   1    1611     960   1
   3  14   1    2948    1097   1
  -4  -1 -14    1097     720  -2
   4  14   1    1097     720   1
  -5  -1 -14    9667    1474  -2
   5  14   1    9667    1474   1
   6  14   1    3360     857   1
   7  14   1    2982     823   1
   8  14   1    1570     437   1
   9  14   1    8724    1652   1
  10  14   1     797    1097   1
  11  14   1    1845     544   1
  12  14   1     -33     406   1
  13  14   1      53     485   1
  14  14   1     846     356   1
  15  14   1    3010     581   1
  16  14   1      45     737   1
  -7  15   1    1729     441   1
  -6  15   1    1027     688   1
  -5  15   1    -434     595   1
  -4  15   1     806     635   1
  -3  15   1     680     769   1
  -2  15   1    1058     337   1
  -1  15   1    -476     476   1
   0  15   1    1049     601   1
   1  15   1    1631     589   1
   2  15   1      69     651   1
   3  15   1    2811    1097   1
   4  15   1    4902    1234   1
  -5  -1 -15   13074    1344  -2
   5  15   1   13074    1344   1
   6  15   1     137     720   1
   7  15   1    1669    2160   1
   8  15   1   19369    1820   1
   9  15   1   12417    1244   1
  10  15   1   11827    1920   1
  11  15   1    4212     470   1
  12  15   1     552     469   1
  13  15   1     994     429   1
  14  15   1    -132     365   1
  15  15   1     222     669   1
  16  15   1     326     364   1
  -6  16   1    1628     533   1
  -5  16   1      28     595   1
  -4  16   1     987     709   1
  -3  16   1      81     614   1
  -2  16   1      13     498   1
  -1  16   1    1003     584   1
   0  16   1    1976     981   1
   1  16   1     175     751   1
   2  16   1     441    1148   1
   3  16   1    1131     720   1
   4  16   1    2057    1097   1
  -5  -1 -16    7764    1680  -2
   5  16   1    7764    1680   1
  -6  -1 -16   10867    1474  -2
   6  16   1   10867    1474   1
   7  16   1    -171     754   1
   8  16   1     638     628   1
   9  16   1    5173     780   1
  10  16   1    4868    1268   1
  11  16   1    8192     736   1
  12  16   1     999     452   1
  13  16   1     257     409   1
  14  16   1     274     299   1
  15  16   1     727     361   1
  -5  17   1    -196     393   1
  -4  17   1    -576     576   1
  -3  17   1     233     413   1
  -2  17   1    -462     462   1
  -1  17   1    1252     486   1
   0  17   1    1032     382   1
   1  17   1    1251     555   1
   2  17   1    -153     702   1
   3  17   1    1337     960   1
   4  17   1    6445    1166   1
  -5  -1 -17    3910     691  -2
   5  17   1    3910     691   1
  -6  -1 -17     761     615  -2
   6  17   1     761     615   1
   7  17   1     549     789   1
   8  17   1     171     686   1
   9  17   1   12296    1220   1
  10  17   1       8    1080   1
  11  17   1    7928    1271   1
  12  17   1    1248     466   1
  13  17   1     651     403   1
  14  17   1    1930     434   1
  15  17   1    -377     377   1
  -3  18   1     938     459   1
  -2  18   1    -432     432   1
  -1  18   1    -373     373   1
   0  18   1      -1     566   1
   1  18   1    -874     874   1
   2  18   1     749     437   1
   3  18   1     961     737   1
   4  18   1    -480     857   1
   5  18   1    8481    1526   1
  -6  -1 -18     995     503  -2
   6  18   1     995     503   1
   7  18   1     687    1011   1
   8  18   1     686     480   1
   9  18   1    1086     461   1
  10  18   1    2161     402   1
  11  18   1   11156    1988   1
  12  18   1     741     502   1
  13  18   1    -152     284   1
  -1  19   1     476     393   1
   0  19   1     268     651   1
   1  19   1      41     613   1
   2  19   1     765     737   1
   3  19   1    2484     593   1
   4  19   1   10455    2451   1
   5  19   1     808    1131   1
  -6  -1 -19     265     789  -2
   6  19   1     265     789   1
   7  19   1     919     419   1
   8  19   1     840     436   1
   9  19   1    -171     617   1
  10  19   1      20     254   1
  11  19   1    -220     461   1
  12  19   1     452     771   1
   1  20   1     686     583   1
   2  20   1       0     617   1
   3  20   1    -242     268   1
   4  20   1     457     293   1
   5  20   1     855     617   1
  -6  -1 -20    -288     342  -2
   6  20   1    -288     342   1
   7  20   1    -480     480   1
   8  20   1     206     480   1
   9  20   1     -53     332   1
  10  20   1    -309     343   1
  11  20   1     857     446   1
   5  21   1    1234     583   1
   6  21   1      89     566   1
  -7  -1 -21     309     309  -2
   7  21   1     309     309   1
  -9 -20   2    3274     874   1
  -8 -20   2     243     222   1
  -7 -20   2     -94     330   1
  -6 -20   2     447     262   1
  -5 -20   2      11     427   1
  -4 -20   2    1549     267   1
  -3 -20   2     -29    1303   1
  -2 -20   2     509     434   1
  -1 -20   2     256     361   1
 -11 -19   2     857     514   1
 -10 -19   2     185     205   1
  -9 -19   2     224     287   1
  -8 -19   2    -161     720   1
  -7 -19   2    -152     326   1
  -6 -19   2     165     737   1
   5  -2  19    5849    1851  -2
  -5 -19   2    5849    1851   1
  -4 -19   2    2600     616   1
  -3 -19   2    -335     335   1
  -2 -19   2     558     741   1
  -1 -19   2    -521     521   1
   0 -19   2     874     489   1
   1 -19   2     559     290   1
   2 -19   2     411     583   1
 -12 -18   2    2359     412   1
 -11 -18   2     399     410   1
 -10 -18   2    1620     503   1
  -9 -18   2    -348     348   1
  -8 -18   2     789     651   1
  -7 -18   2     243     423   1
  -6 -18   2    -549     549   1
   5  -2  18    1069     410  -2
  -5 -18   2    1069     410   1
  -4 -18   2   12132    1560   1
  -3 -18   2    4416     742   1
  -2 -18   2     812     435   1
  -1 -18   2     198     666   1
   0 -18   2    2264     565   1
   1 -18   2     730     497   1
   2 -18   2    1571    1028   1
   3 -18   2     386     404   1
   4 -18   2     549     446   1
 -13 -17   2     517     444   1
 -12 -17   2    1251     497   1
 -11 -17   2      31     242   1
 -10 -17   2     410     324   1
  -9 -17   2     627     348   1
  -8 -17   2    6136    1063   1
  -7 -17   2    2925     586   1
  -6 -17   2     723     600   1
   5  -2  17     974     664  -2
  -5 -17   2     974     664   1
  -4 -17   2    6068    1234   1
  -3 -17   2    -507     665   1
  -2 -17   2    1713     711   1
  -1 -17   2     479     517   1
   0 -17   2     485     715   1
   1 -17   2    1302     756   1
   2 -17   2     520     494   1
   3 -17   2    -192     336   1
   4 -17   2      73     532   1
   5 -17   2     -88     472   1
 -14 -16   2     393     232   1
 -13 -16   2    -316     475   1
 -12 -16   2    3957     686   1
 -11 -16   2     739     328   1
 -10 -16   2    -241     300   1
  -9 -16   2    2400    1097   1
  -8 -16   2     206     720   1
  -7 -16   2     480     549   1
  -6 -16   2    3441    1766   1
  -5 -16   2   10833    1611   1
   4  -2  16    5691    1268  -2
  -4 -16   2    5691    1268   1
  -3 -16   2    2621     806   1
  -2 -16   2     173     704   1
  -1 -16   2     118    1114   1
   0 -16   2    -497     497   1
   1 -16   2     461     591   1
   2 -16   2     561     589   1
   3 -16   2     725     527   1
   4 -16   2     222     361   1
   5 -16   2    -409     758   1
   6 -16   2     296     517   1
 -15 -15   2     754     583   1
 -14 -15   2     519     267   1
 -13 -15   2    2746     469   1
 -12 -15   2    -380     380   1
 -11 -15   2    1828     393   1
 -10 -15   2     212     418   1
  -9 -15   2    4011     960   1
  -8 -15   2    4868     857   1
  -7 -15   2    4902     891   1
  -6 -15   2     891     789   1
  -5 -15   2    8882    5434   1
   4  -2  15    -275     681  -2
  -4 -15   2    -275     681   1
  -3 -15   2    3771    2263   1
  -2 -15   2   12234    1518   1
  -1 -15   2    4898     831   1
   0 -15   2    -365     714   1
   1 -15   2     -10     403   1
   2 -15   2    5912     767   1
   3 -15   2    1353     697   1
   4 -15   2    1656     524   1
   5 -15   2    -360     582   1
   6 -15   2     331     653   1
   7 -15   2    1040     482   1
   8 -15   2     994     720   1
 -15 -14   2    1178     386   1
 -14 -14   2    1999     490   1
 -13 -14   2    2979     411   1
 -12 -14   2    3779     655   1
 -11 -14   2     465     410   1
 -10 -14   2      41     418   1
  -9 -14   2    2777    1131   1
  -8 -14   2     376     688   1
  -7 -14   2     342    1063   1
  -6 -14   2    1927     754   1
  -5 -14   2   15461    2125   1
   4  -2  14    1885    1097  -2
  -4 -14   2    1885    1097   1
   3  -2  14    9976    1714  -2
  -3 -14   2    9976    1714   1
  -2 -14   2    1010     801   1
  -1 -14   2    4323     751   1
   0 -14   2    2912     624   1
   1 -14   2    1122     513   1
   2 -14   2    4097     495   1
   3 -14   2    2076     633   1
   4 -14   2     514     517   1
   5 -14   2     287     534   1
   6 -14   2     274     705   1
   7 -14   2    1376     789   1
   8 -14   2    -152     345   1
   9 -14   2     309     789   1
 -16 -13   2     960     617   1
 -15 -13   2     481     396   1
 -14 -13   2     547     396   1
 -13 -13   2     179     472   1
 -12 -13   2    5241     555   1
 -11 -13   2     727     421   1
 -10 -13   2   12057    1880   1
  -9 -13   2    3080    1007   1
  -8 -13   2    1989     528   1
  -7 -13   2    2710     775   1
  -6 -13   2   20980    2640   1
   4  -2  13    3702     926  -2
  -4 -13   2    3702     926   1
   3  -2  13    2743    1063  -2
  -3 -13   2    2743    1063   1
  -2 -13   2   19586    1756   1
  -1 -13   2    4504    1229   1
   0 -13   2    2250     514   1
   1 -13   2   10888    1364   1
   2 -13   2    3090     479   1
   3 -13   2    6561     768   1
   4 -13   2     273     641   1
   5 -13   2    -119     527   1
   6 -13   2     917     867   1
   7 -13   2     834     977   1
   8 -13   2     292     634   1
   9 -13   2     754     994   1
  10 -13   2     617     789   1
 -16 -12   2     263     531   1
 -15 -12   2     231     343   1
 -14 -12   2    3777     443   1
 -13 -12   2    4801     673   1
 -12 -12   2     376     589   1
 -11 -12   2   16451    1095   1
 -10 -12   2    9129    1239   1
  -9 -12   2    7331    1518   1
  -8 -12   2   16612    1648   1
  -7 -12   2    1722     681   1
  -6 -12   2   18649    2365   1
   3  -2  12    3222    1063  -2
  -3 -12   2    3222    1063   1
  -2 -12   2    2331     791   1
  -1 -12   2     -31     613   1
   0 -12   2    7767     656   1
   1 -12   2    1059     423   1
   2 -12   2    4739     848   1
   3 -12   2    5325     506   1
   4 -12   2    3208     599   1
   5 -12   2    1220     670   1
   6 -12   2    7963     698   1
   7 -12   2   22151    1861   1
   8 -12   2   38301    4011   1
   9 -12   2     887     518   1
  10 -12   2    -309     994   1
  11 -12   2     137     651   1
 -16 -11   2    1241     487   1
 -15 -11   2    1006     552   1
 -14 -11   2      53     355   1
 -13 -11   2     256     368   1
 -12 -11   2    2776     480   1
 -11 -11   2   17290    1135   1
 -10 -11   2    1855     382   1
  -9 -11   2   12300    1088   1
  -8 -11   2    1573     610   1
  -7 -11   2    5186     646   1
  -6 -11   2    1082     943   1
   2  -2  11    6370    1521  -2
  -2 -11   2    6370    1521   1
  -1 -11   2     335     626   1
   0 -11   2    1463     510   1
   1 -11   2    6664     627   1
   2 -11   2   10949     760   1
   3 -11   2   27383    1410   1
   4 -11   2     -75     401   1
   5 -11   2    2744     600   1
   6 -11   2     -22     515   1
   7 -11   2    1107     664   1
   8 -11   2    1435    1278   1
   9 -11   2      18     515   1
  10 -11   2    3462    1714   1
  11 -11   2    2811    1028   1
  12 -11   2     240     514   1
 -17 -10   2     583     651   1
 -16 -10   2     646     431   1
 -15 -10   2     491     727   1
 -14 -10   2    -391     391   1
 -13 -10   2     238     333   1
 -12 -10   2   15096    1132   1
 -11 -10   2     505     759   1
 -10 -10   2     250     476   1
  -9 -10   2    9570     724   1
  -8 -10   2    4680     507   1
  -7 -10   2    1808     803   1
  -6 -10   2   12191    1039   1
  -5 -10   2    8186    1390   1
   3  -2  10    5820    1401  -2
  -3 -10   2    5820    1401   1
   2  -2  10    2000    1349  -2
  -2 -10   2    2000    1349   1
  -1 -10   2   14563    1632   1
   0 -10   2    9274    1331   1
   1 -10   2   30364    1951   1
   2 -10   2     711     382   1
   3 -10   2     654     377   1
   4 -10   2    -284     384   1
   5 -10   2    2830     458   1
   6 -10   2     120     353   1
   7 -10   2    1466     579   1
   8 -10   2   20520    1530   1
   9 -10   2    4654     678   1
  10 -10   2     464     344   1
  11 -10   2     583    1166   1
  12 -10   2    -507     507   1
 -17  -9   2    5656    1131   1
 -16  -9   2     214     425   1
 -15  -9   2     267     510   1
 -14  -9   2    4014     448   1
 -13  -9   2    1353     380   1
 -12  -9   2    8266     840   1
 -11  -9   2     697     271   1
 -10  -9   2    4736     455   1
  -9  -9   2   10366     651   1
  -8  -9   2    4170     736   1
  -7  -9   2    5185    1007   1
  -6  -9   2    2354     754   1
  -5  -9   2   34119    3332   1
  -4  -9   2    7636    1313   1
  -3  -9   2   12667    2931   1
   2  -2   9    5836    1249  -2
  -2  -9   2    5836    1249   1
  -1  -9   2    3880     971   1
   0  -9   2     190     925   1
   1  -9   2    7399    1276   1
   2  -9   2    4393     978   1
   3  -9   2    7050     518   1
   4  -9   2   15459     745   1
   5  -9   2    -121     432   1
   6  -9   2      94     390   1
   7  -9   2      38     426   1
   8  -9   2    1925     630   1
   9  -9   2    7160     891   1
  10  -9   2    5710     846   1
  11  -9   2    8699     960   1
  12  -9   2    1053     676   1
  13  -9   2    -191     576   1
 -17  -8   2     240     720   1
 -16  -8   2     836     472   1
 -15  -8   2    1800     506   1
 -14  -8   2    2481     872   1
 -13  -8   2    1912     467   1
 -12  -8   2    1390     369   1
 -11  -8   2     452     411   1
 -10  -8   2   14682     821   1
  -9  -8   2    -229     337   1
  -8  -8   2    1425     506   1
  -7  -8   2   21566    1976   1
  -6  -8   2     514     621   1
  -5  -8   2    5020     992   1
  -4  -8   2    5283     761   1
  -3  -8   2   35482    1883   1
   2  -2   8    1173     591  -2
  -2  -8   2    1173     591   1
  -1  -8   2   12374    1348   1
   0  -8   2   16813    2024   1
   1  -8   2   15513    1623   1
   2  -8   2     389     854   1
   3  -8   2   20857    1837   1
   4  -8   2    2257     469   1
   5  -8   2   12386     722   1
   6  -8   2    5964     501   1
   7  -8   2    4406     437   1
   8  -8   2    -486     533   1
   9  -8   2    -569     569   1
  10  -8   2    -312     492   1
  11  -8   2      86     788   1
  12  -8   2     939     698   1
  13  -8   2     805     580   1
 -17  -7   2     514     789   1
 -16  -7   2     218     409   1
 -15  -7   2    1171     538   1
 -14  -7   2    1319     397   1
 -13  -7   2    2649     387   1
 -12  -7   2     440     303   1
 -11  -7   2   21996    1287   1
 -10  -7   2   10084     635   1
  -9  -7   2     768     313   1
  -8  -7   2   12557    1712   1
  -7  -7   2    4123     889   1
  -6  -7   2   14717    2220   1
  -5  -7   2   22170    1597   1
  -4  -7   2    2135     611   1
  -3  -7   2   32897    1838   1
   2  -2   7    8579     845  -2
  -2  -7   2    8579     845   1
   1  -2   7    2605     579  -2
  -1  -7   2    2605     579   1
   0  -7   2   18881    1386   1
   1  -7   2   14288    1218   1
   2  -7   2   19242    1776   1
   3  -7   2    1063     891   1
   4  -7   2   39458    2921   1
   5  -7   2     102     450   1
   6  -7   2     202     463   1
   7  -7   2     870     297   1
   8  -7   2    2131     555   1
   9  -7   2     164     538   1
  10  -7   2    4371    1116   1
  11  -7   2    2181     863   1
  12  -7   2    2597     670   1
  13  -7   2    -820     820   1
  14  -7   2     309     617   1
 -17  -6   2     994     789   1
 -16  -6   2    4273     926   1
 -15  -6   2     539     911   1
 -14  -6   2     -87     659   1
 -13  -6   2     412     762   1
 -12  -6   2     887     320   1
 -11  -6   2    1478     340   1
 -10  -6   2    -157     328   1
  -9  -6   2    3435     350   1
  -8  -6   2     846     733   1
  -7  -6   2     654     747   1
  -6  -6   2   96896    6456   1
  -5  -6   2    1638     631   1
  -4  -6   2    1142    1322   1
  -3  -6   2   49400    2522   1
   2  -2   6    7847     677  -2
  -2  -6   2    7847     677   1
   1  -2   6   71481    3265  -2
  -1  -6   2   71481    3265   1
   0  -6   2   22775    1251   1
   1  -6   2    1364     549   1
   2  -6   2   65029    3227   1
   3  -6   2   25089    1678   1
   4  -6   2   10862    1151   1
   5  -6   2    2723     766   1
   6  -6   2     680     332   1
   7  -6   2     147     262   1
   8  -6   2    1175     475   1
   9  -6   2     975     675   1
  10  -6   2    -475     475   1
  11  -6   2     387     693   1
  12  -6   2    4954    1418   1
  13  -6   2    -585     639   1
  14  -6   2    7804    1028   1
  15  -6   2     -68     436   1
 -17  -5   2    -754     754   1
 -16  -5   2    3360    1063   1
 -15  -5   2    4145     589   1
 -14  -5   2      96     395   1
 -13  -5   2     675     292   1
 -12  -5   2    1309     336   1
 -11  -5   2    3143     346   1
 -10  -5   2    9773     584   1
  -9  -5   2   10002     611   1
  -8  -5   2    2759     823   1
  -7  -5   2    9059    1271   1
  -6  -5   2   69175    4618   1
  -5  -5   2     392     553   1
  -4  -5   2   14924     970   1
  -3  -5   2   22397    2736   1
  -2  -5   2    9587     807   1
   1  -2   5   14573     936  -2
  -1  -5   2   14573     936   1
   0  -5   2    3142     548   1
   1  -5   2   24854    1527   1
   2  -5   2    2213     395   1
   3  -5   2   36448    1646   1
   4  -5   2   11526     774   1
   5  -5   2    6162     575   1
   6  -5   2     164     590   1
   7  -5   2    1006     337   1
   8  -5   2     866     411   1
   9  -5   2   22766    1371   1
  10  -5   2   18091    1256   1
  11  -5   2    1294     400   1
  12  -5   2     974     582   1
  13  -5   2    4340     703   1
  14  -5   2     562     930   1
  15  -5   2     694     943   1
 -17  -4   2     171     357   1
 -16  -4   2    -255     423   1
 -15  -4   2     812     423   1
 -14  -4   2    1676     549   1
 -13  -4   2    1277     481   1
 -12  -4   2   16788     938   1
 -11  -4   2    2534     407   1
 -10  -4   2    5384     457   1
  -9  -4   2     989     209   1
  -8  -4   2    1609     718   1
  -7  -4   2    6524     847   1
  -6  -4   2   17758    1567   1
  -5  -4   2   34012    1998   1
  -4  -4   2    8079     682   1
  -3  -4   2   31729    1684   1
  -2  -4   2   23903    1353   1
   1  -2   4   15689    1027  -2
  -1  -4   2   15689    1027   1
   0  -2   4  264074   11331  -2
   0  -4   2  264074   11331   1
   1  -4   2   21170    1248   1
   2  -4   2   13207     745   1
   3  -4   2   31229    1434   1
   4  -4   2   12309     708   1
   5  -4   2    3929     406   1
   6  -4   2    5737     687   1
   7  -4   2    6993    2468   1
   8  -4   2     946     353   1
   9  -4   2    1844     387   1
  10  -4   2    1051     585   1
  11  -4   2     910     610   1
  12  -4   2    -436     542   1
  13  -4   2     -98     610   1
  14  -4   2    2544     627   1
  15  -4   2    -100     651   1
  16  -4   2    -478     478   1
 -17  -3   2    -274     720   1
 -16  -3   2      85     415   1
 -15  -3   2    -378     396   1
 -14  -3   2    4086     793   1
 -13  -3   2     695     421   1
 -12  -3   2   10674     667   1
 -11  -3   2     829     378   1
 -10  -3   2      62     252   1
  -9  -3   2    6697     480   1
  -8  -3   2   18243    1498   1
  -7  -3   2  137495    8932   1
  -6  -3   2    5363     772   1
  -5  -3   2   32267    1967   1
  -4  -3   2    1044     620   1
  -3  -3   2   40849    1943   1
  -2  -3   2    8817    1787   1
   1  -2   3   51585    2480  -2
  -1  -3   2   51585    2480   1
   0  -2   3  114559    5004  -2
   0  -3   2  114559    5004   1
   1  -3   2   16232     788   1
   2  -3   2   40718    1753   1
   3  -3   2   13425     833   1
   4  -3   2   15671     763   1
   5  -3   2    5702     402   1
   6  -3   2    1428     243   1
   7  -3   2    -448     743   1
   8  -3   2      32     525   1
   9  -3   2    1999     323   1
  10  -3   2     212     613   1
  11  -3   2    6293     496   1
  12  -3   2     196     656   1
  13  -3   2    4582     717   1
  14  -3   2     707     526   1
  15  -3   2    1234     495   1
  16  -3   2    -387     617   1
 -17  -2   2     651     651   1
 -16  -2   2     539     445   1
 -15  -2   2      82     301   1
 -14  -2   2    2689     546   1
 -13  -2   2    1308     376   1
 -12  -2   2   16749    1059   1
 -11  -2   2   13620     685   1
 -10  -2   2   12708     671   1
  -9  -2   2   14659     743   1
  -8  -2   2    1021     690   1
  -7  -2   2   16966    2543   1
  -6  -2   2    8893     763   1
  -5  -2   2  110293    6057   1
  -4  -2   2   16769     944   1
  -3  -2   2   59968    2736   1
  -2  -2   2    1179     393   1
  -1  -2   2   21920    1179   1
   0  -2   2  177858    6875  -2
   0  -2   2  177858    6875   1
   1  -2   2   40397    1623   1
   2  -2   2    4654     330   1
   3  -2   2   41527    1917   1
   4  -2   2    4197     500   1
   5  -2   2  126008    4732   1
   6  -2   2   13555    1552   1
   7  -2   2  124782    9486   1
   8  -2   2      42     995   1
   9  -2   2    7601     566   1
  10  -2   2    9762     579   1
  11  -2   2    7690     735   1
  12  -2   2    9800     871   1
  13  -2   2   15480    1242   1
  14  -2   2      42    1218   1
  15  -2   2     572     651   1
  16  -2   2    1062     510   1
 -17  -1   2    4079     823   1
 -16  -1   2     242     405   1
 -15  -1   2    2859    1423   1
 -14  -1   2     100     485   1
 -13  -1   2     -49     579   1
 -12  -1   2   14081     911   1
 -11  -1   2    3561     323   1
 -10  -1   2    1490     287   1
  -9  -1   2   36956    1567   1
  -8  -1   2    -146     866   1
  -7  -1   2   25062    1879   1
  -6  -1   2      86     513   1
  -5  -1   2   26594    1343   1
  -4  -1   2    5739     528   1
  -3  -1   2    1128     354   1
  -2  -1   2   10663     602   1
  -1  -1   2   19947     925   1
   0  -2   1   17716     889  -2
   0  -1   2   17716     889   1
  -1  -2   1   61297    2514  -2
   1  -1   2   61297    2514   1
   2  -1   2    3394     238   1
   3  -1   2  198051    9688   1
   4  -1   2   10852    1054   1
   5  -1   2   12146    1105   1
   6  -1   2    6193     937   1
   7  -1   2   10879    2855   1
   8  -1   2    1201    1349   1
   9  -1   2     219     413   1
  10  -1   2    1253     339   1
  11  -1   2    1187     298   1
  12  -1   2     329     405   1
  13  -1   2    1422     507   1
  14  -1   2    2550     562   1
  15  -1   2    3096     684   1
  16  -1   2     342     451   1
  17  -1   2     402     444   1
 -16   0   2     482     483   1
 -15   0   2     451     426   1
 -14   0   2    -119     391   1
 -13   0   2    9945     880   1
 -12   0   2     262     474   1
 -11   0   2     427     321   1
 -10   0   2     526     279   1
  -9   0   2     122     259   1
  -8   0   2    4882     749   1
  -7   0   2   35022    2446   1
  -6   0   2   24640    1809   1
  -5   0   2    5884     511   1
  -4   0   2     612     506   1
  -3   0   2   19536    1150   1
  -2   0   2    2814     365   1
  -1   0   2   55656    2319   1
   0  -2   0    -260     260  -2
   0   0   2    -260     260   1
  -1  -2   0   13199     608  -2
   1   0   2   13199     608   1
  -2  -2   0    7829     489  -2
   2   0   2    7829     489   1
   3   0   2    2311     619   1
   4   0   2   41189    2943   1
   5   0   2    3869     726   1
   6   0   2    1200    2057   1
   7   0   2    8208     946   1
   8   0   2    3501    1344   1
   9   0   2    9032    1753   1
  10   0   2    4166     350   1
  11   0   2    8914     658   1
  12   0   2   19394    1011   1
  13   0   2   12156     989   1
  14   0   2   11853    1047   1
  15   0   2     440     527   1
  16   0   2    1690     874   1
  17   0   2     741     456   1
 -16   1   2     234     549   1
 -15   1   2     540     693   1
 -14   1   2     764     320   1
 -13   1   2    6285     623   1
 -12   1   2   13803    1012   1
 -11   1   2    1394     521   1
 -10   1   2    -129     322   1
  -9   1   2    8561     505   1
  -8   1   2   21569    1065   1
  -7   1   2    -619     619   1
  -6   1   2   95377    6133   1
  -5   1   2   28683    1365   1
  -4   1   2    2274     417   1
  -3   1   2  130968    6431   1
  -2   1   2   14721     849   1
   1  -2  -1   74783    3255  -2
  -1   1   2   74783    3255   1
   0  -2  -1   18205     872  -2
   0   1   2   18205     872   1
  -1  -2  -1   19202    1039  -2
   1   1   2   19202    1039   1
  -2  -2  -1   46922    1793  -2
   2   1   2   46922    1793   1
  -3  -2  -1    6715     335  -2
   3   1   2    6715     335   1
   4   1   2  173530    6496   1
   5   1   2    1173     230   1
   6   1   2   13760    1030   1
   7   1   2    2518     783   1
   8   1   2    4328    1002   1
   9   1   2    -236    1169   1
  10   1   2   18686     968   1
  11   1   2   18639     953   1
  12   1   2   19942    1066   1
  13   1   2    4413     572   1
  14   1   2    1464     577   1
  15   1   2     639     706   1
  16   1   2    -977    1320   1
  17   1   2     572     672   1
  18   1   2    3257     823   1
 -16   2   2     651     549   1
 -15   2   2    -109     815   1
 -14   2   2    5012     652   1
 -13   2   2     576     419   1
 -12   2   2    8730     812   1
 -11   2   2    -264     403   1
 -10   2   2     320     278   1
  -9   2   2    7244     454   1
  -8   2   2   25175    1097   1
  -7   2   2    1683     625   1
  -6   2   2    4762     791   1
  -5   2   2     326     645   1
  -4   2   2   30298    1646   1
  -3   2   2   27516    1470   1
  -2   2   2    1872     396   1
   1  -2  -2   31876    1510  -2
  -1   2   2   31876    1510   1
   0  -2  -2  174332    8456  -2
   0   2   2  174332    8456   1
  -1  -2  -2   31065    1424  -2
   1   2   2   31065    1424   1
  -2  -2  -2      98     244  -2
   2   2   2      98     244   1
  -3  -2  -2    8386     442  -2
   3   2   2    8386     442   1
  -4  -2  -2   56751    2175  -2
   4   2   2   56751    2175   1
   5   2   2    2475     364   1
   6   2   2   17940     836   1
   7   2   2    8722     480   1
   8   2   2   86201    3937   1
   9   2   2    -956    1203   1
  10   2   2    3072     307   1
  11   2   2    1276     267   1
  12   2   2     593     288   1
  13   2   2    6975     639   1
  14   2   2     347    1043   1
  15   2   2    1585     570   1
  16   2   2    3495     590   1
  17   2   2    -183     533   1
  18   2   2    -374     374   1
 -15   3   2     352     545   1
 -14   3   2     597     640   1
 -13   3   2    3430     510   1
 -12   3   2    3275     752   1
 -11   3   2    1873     459   1
 -10   3   2     570     251   1
  -9   3   2    1184     355   1
  -8   3   2   20199     984   1
  -7   3   2    6017     881   1
  -6   3   2    8723    1005   1
  -5   3   2   16198    1400   1
  -4   3   2   46556    2381   1
  -3   3   2   66055    3036   1
  -2   3   2   24157    1109   1
   1  -2  -3   42098    1973  -2
  -1   3   2   42098    1973   1
   0  -2  -3  101200    4648  -2
   0   3   2  101200    4648   1
  -1  -2  -3   21298    1075  -2
   1   3   2   21298    1075   1
  -2  -2  -3   17695     991  -2
   2   3   2   17695     991   1
  -3  -2  -3   98352    6263  -2
   3   3   2   98352    6263   1
  -4  -2  -3  143271    5870  -2
   4   3   2  143271    5870   1
   5   3   2   32883    1415   1
   6   3   2    9799     786   1
   7   3   2    1809     291   1
   8   3   2   17333     919   1
   9   3   2    3579     480   1
  10   3   2   17756     944   1
  11   3   2    2294     307   1
  12   3   2    6177     535   1
  13   3   2     186     309   1
  14   3   2     -30     591   1
  15   3   2    -226     584   1
  16   3   2     -59     513   1
  17   3   2    1143     583   1
  18   3   2     237     418   1
 -15   4   2     -83     444   1
 -14   4   2    1175     641   1
 -13   4   2     274     375   1
 -12   4   2    1281     471   1
 -11   4   2    3514     619   1
 -10   4   2    1985     555   1
  -9   4   2     -49     353   1
  -8   4   2    1938     429   1
  -7   4   2   24692    1165   1
  -6   4   2    9947    1084   1
  -5   4   2   18723    1882   1
  -4   4   2     766     721   1
  -3   4   2   11889    1223   1
  -2   4   2   68045    2792   1
  -1   4   2   17141     976   1
   0  -2  -4  306776   13844  -2
   0   4   2  306776   13844   1
  -1  -2  -4   54333    2299  -2
   1   4   2   54333    2299   1
  -2  -2  -4   16812     875  -2
   2   4   2   16812     875   1
  -3  -2  -4   34733    2342  -2
   3   4   2   34733    2342   1
  -4  -2  -4   18509    1735  -2
   4   4   2   18509    1735   1
   5   4   2   39380    1730   1
   6   4   2  173818    7208   1
   7   4   2     807     333   1
   8   4   2    1727     361   1
   9   4   2     375     424   1
  10   4   2   10673     470   1
  11   4   2   10807     695   1
  12   4   2    -347     347   1
  13   4   2   15683     955   1
  14   4   2     763     305   1
  15   4   2     345     913   1
  16   4   2     465     499   1
  17   4   2    1098     470   1
  18   4   2     332    1028   1
 -14   5   2     -48     462   1
 -13   5   2     286     651   1
 -12   5   2     -64     451   1
 -11   5   2     242     444   1
 -10   5   2    4340     535   1
  -9   5   2    2443     319   1
  -8   5   2     960     348   1
  -7   5   2    4612     419   1
  -6   5   2    2106     453   1
  -5   5   2    4475    1095   1
  -4   5   2    5766     960   1
  -3   5   2    5727    1006   1
  -2   5   2     387     648   1
  -1   5   2     509     540   1
   0   5   2    6708     589   1
  -1  -2  -5    3453     485  -2
   1   5   2    3453     485   1
  -2  -2  -5   13370     799  -2
   2   5   2   13370     799   1
  -3  -2  -5   12314    1177  -2
   3   5   2   12314    1177   1
  -4  -2  -5    5452     505  -2
   4   5   2    5452     505   1
   5   5   2   27516    1388   1
   6   5   2    3742     444   1
   7   5   2     924     478   1
   8   5   2    1090     548   1
   9   5   2    9388     916   1
  10   5   2    3592     276   1
  11   5   2    3705     262   1
  12   5   2   29468    1629   1
  13   5   2   12537     886   1
  14   5   2    1750     391   1
  15   5   2     851     971   1
  16   5   2     364     485   1
  17   5   2    1937     491   1
  18   5   2    1179     478   1
 -14   6   2     443     425   1
 -13   6   2    1252     720   1
 -12   6   2     647     500   1
 -11   6   2     671     539   1
 -10   6   2    1015     603   1
  -9   6   2   25282    1259   1
  -8   6   2    -333     454   1
  -7   6   2    2554     374   1
  -6   6   2     818     230   1
  -5   6   2    1937     821   1
  -4   6   2    2918     859   1
  -3   6   2    5296    1620   1
  -2   6   2   18853    1406   1
  -1   6   2   10071     718   1
   0   6   2   16301     922   1
  -1  -2  -6   59470    2564  -2
   1   6   2   59470    2564   1
  -2  -2  -6    2238     427  -2
   2   6   2    2238     427   1
  -3  -2  -6   12759    1057  -2
   3   6   2   12759    1057   1
  -4  -2  -6    1358     493  -2
   4   6   2    1358     493   1
   5   6   2   49480    2733   1
   6   6   2    1092     535   1
   7   6   2  114891    7519   1
   8   6   2    6337    1009   1
   9   6   2   95535    6291   1
  10   6   2    4812     353   1
  11   6   2    9168     510   1
  12   6   2   33968    1850   1
  13   6   2    1713     675   1
  14   6   2     634     476   1
  15   6   2    5978     580   1
  16   6   2    -237     452   1
  17   6   2    4774     840   1
  18   6   2    1200     754   1
 -13   7   2    2331    1011   1
 -12   7   2      27     188   1
 -11   7   2    1160     469   1
 -10   7   2     790     521   1
  -9   7   2    8038     802   1
  -8   7   2   18151    1294   1
  -7   7   2     716     396   1
  -6   7   2    9084     685   1
  -5   7   2    -296     296   1
  -4   7   2    -229    1161   1
  -3   7   2    3465     894   1
  -2   7   2    2218     878   1
  -1   7   2   35148    2238   1
   0   7   2   11301     738   1
   1   7   2   15662    1100   1
  -2  -2  -7    7452     633  -2
   2   7   2    7452     633   1
  -3  -2  -7   20898    1083  -2
   3   7   2   20898    1083   1
  -4  -2  -7    3874     618  -2
   4   7   2    3874     618   1
   5   7   2    8027     989   1
   6   7   2     -52    1435   1
   7   7   2   39546    4241   1
   8   7   2   18510    1509   1
   9   7   2   21764    2051   1
  10   7   2   11045     575   1
  11   7   2    3004     312   1
  12   7   2    1295     267   1
  13   7   2    -374     374   1
  14   7   2    3742     732   1
  15   7   2    3744     482   1
  16   7   2     522     451   1
  17   7   2    1328     576   1
  18   7   2    2434     823   1
 -13   8   2     686     686   1
 -12   8   2     441     488   1
 -11   8   2    2396     471   1
 -10   8   2     301     442   1
  -9   8   2    -224     970   1
  -8   8   2   17877    1133   1
  -7   8   2     497     401   1
  -6   8   2     101     405   1
  -5   8   2   11793     681   1
  -4   8   2    7332     544   1
  -3   8   2    3163     964   1
  -2   8   2    6657    1117   1
  -1   8   2    2448     922   1
   0   8   2   27284    2028   1
   1   8   2     352     554   1
  -2  -2  -8   10983     805  -2
   2   8   2   10983     805   1
  -3  -2  -8   30886    2602  -2
   3   8   2   30886    2602   1
  -4  -2  -8   20853    1555  -2
   4   8   2   20853    1555   1
   5   8   2   11486    1062   1
   6   8   2   14894    1427   1
   7   8   2    1666     728   1
   8   8   2   22406    1793   1
   9   8   2   17055     896   1
  10   8   2   12357     662   1
  11   8   2    4300     351   1
  12   8   2    7344     511   1
  13   8   2     576     440   1
  14   8   2     407     419   1
  15   8   2    -396     396   1
  16   8   2    3044     419   1
  17   8   2     487     480   1
  18   8   2    -103     583   1
 -12   9   2    1371     789   1
 -11   9   2     202     529   1
 -10   9   2     396     417   1
  -9   9   2    2332     936   1
  -8   9   2     496     447   1
  -7   9   2    3208     560   1
  -6   9   2    1986     580   1
  -5   9   2     549     353   1
  -4   9   2    3553     491   1
  -3   9   2     158     394   1
  -2   9   2   12395    1120   1
  -1   9   2    1981     831   1
   0   9   2     676     852   1
   1   9   2    7840    1085   1
   2   9   2   27323    3128   1
  -3  -2  -9    1744     548  -2
   3   9   2    1744     548   1
  -4  -2  -9    2238     715  -2
   4   9   2    2238     715   1
   5   9   2    1496     649   1
   6   9   2   16283    2914   1
   7   9   2    1644     716   1
   8   9   2   17330    1063   1
   9   9   2    1593     439   1
  10   9   2    8521     603   1
  11   9   2    7059     512   1
  12   9   2   18276     949   1
  13   9   2    -388     782   1
  14   9   2    3165     534   1
  15   9   2    1072     408   1
  16   9   2    1887     375   1
  17   9   2     -56     472   1
  18   9   2     720     549   1
 -12  10   2     171     583   1
 -11  10   2     172     545   1
 -10  10   2    -422     429   1
  -9  10   2    3044     645   1
  -8  10   2    6475     978   1
  -7  10   2     969     507   1
  -6  10   2    1425     581   1
  -5  10   2    3620     539   1
  -4  10   2   23922    1220   1
  -3  10   2     556     663   1
  -2  10   2    3621     548   1
  -1  10   2    7242     834   1
   0  10   2   13439    2246   1
   1  10   2   21818    2065   1
   2  10   2    2994    1186   1
  -3  -2 -10   16729    2914  -2
   3  10   2   16729    2914   1
  -4  -2 -10   21281    2361  -2
   4  10   2   21281    2361   1
   5  10   2   27258    2377   1
   6  10   2   31446    2661   1
   7  10   2    6086     696   1
   8  10   2    5117     414   1
   9  10   2     392     347   1
  10  10   2    -296     384   1
  11  10   2     688     301   1
  12  10   2    9009     590   1
  13  10   2    4362     463   1
  14  10   2    2149     514   1
  15  10   2     411     434   1
  16  10   2    -332     771   1
  17  10   2    -459     459   1
  18  10   2     240     514   1
 -11  11   2    -411     446   1
 -10  11   2     641     399   1
  -9  11   2     936     891   1
  -8  11   2      51     608   1
  -7  11   2    2405     556   1
  -6  11   2    1331     609   1
  -5  11   2    4852     746   1
  -4  11   2    1572     351   1
  -3  11   2     -63     393   1
  -2  11   2    7360     663   1
  -1  11   2    3975     747   1
   0  11   2    3524     587   1
   1  11   2    -629     629   1
   2  11   2    3999    1266   1
  -5  -2 -11   10299    3154  -2
   5  11   2   10299    3154   1
   6  11   2    1499     935   1
   7  11   2    -315     315   1
   8  11   2    1210     659   1
   9  11   2    5872     458   1
  10  11   2    7123     637   1
  11  11   2    2892     399   1
  12  11   2    8325     707   1
  13  11   2    8909     735   1
  14  11   2    3644     420   1
  15  11   2    3854     667   1
  16  11   2    -127     312   1
  17  11   2     720     686   1
  18  11   2    -103     480   1
 -10  12   2     -95     480   1
  -9  12   2    -403     403   1
  -8  12   2    1501     583   1
  -7  12   2     682     713   1
  -6  12   2     524     577   1
  -5  12   2    3785     730   1
  -4  12   2     823     418   1
  -3  12   2     -45     390   1
  -2  12   2   26697    1779   1
  -1  12   2    2524     937   1
   0  12   2   14185    1161   1
   1  12   2    2142     756   1
   2  12   2   13061    1920   1
  -5  -2 -12   54095    6376  -2
   5  12   2   54095    6376   1
   6  12   2    3042     754   1
   7  12   2   16849    1251   1
   8  12   2    3793     666   1
   9  12   2   13332    1050   1
  10  12   2   11953     838   1
  11  12   2    1488     358   1
  12  12   2    1247     526   1
  13  12   2    4834     656   1
  14  12   2    2295     557   1
  15  12   2    8734    2297   1
  16  12   2     217     436   1
  17  12   2    1063     686   1
  -9  13   2     513     340   1
  -8  13   2    3334    1063   1
  -7  13   2    1649     766   1
  -6  13   2    2280     609   1
  -5  13   2    2617     671   1
  -4  13   2    2720     805   1
  -3  13   2    1631     619   1
  -2  13   2     840     497   1
  -1  13   2    9284     832   1
   0  13   2    1829     630   1
   1  13   2     240     857   1
   2  13   2    1028     960   1
   3  13   2   10044    1611   1
  -5  -2 -13   12135    1680  -2
   5  13   2   12135    1680   1
   6  13   2    5039     857   1
   7  13   2     603     495   1
   8  13   2    1619     397   1
   9  13   2    1491     391   1
  10  13   2    9764     904   1
  11  13   2    2391     411   1
  12  13   2    4829     715   1
  13  13   2     767     548   1
  14  13   2    1100     370   1
  15  13   2     -27     532   1
  16  13   2    -146     353   1
  17  13   2    1371     617   1
  -8  14   2     846     425   1
  -7  14   2     935    1114   1
  -6  14   2    1395     775   1
  -5  14   2     107     521   1
  -4  14   2    -414     603   1
  -3  14   2    -296     737   1
  -2  14   2    3640     945   1
  -1  14   2     545     573   1
   0  14   2    4070     745   1
   1  14   2    4054     809   1
   2  14   2    -857     926   1
   3  14   2    1337     960   1
  -4  -2 -14   -1028    1028  -2
   4  14   2   -1028    1028   1
  -5  -2 -14    1234     754  -2
   5  14   2    1234     754   1
   6  14   2   12787    1680   1
   7  14   2   12924    1680   1
   8  14   2     447     486   1
   9  14   2   13467    1300   1
  10  14   2    7317     762   1
  11  14   2   21170    2222   1
  12  14   2    1052     590   1
  13  14   2     -80     434   1
  14  14   2     470     373   1
  15  14   2     986    1080   1
  16  14   2    1788     469   1
  17  14   2     206     514   1
  -7  15   2      90     461   1
  -6  15   2    -570    1371   1
  -5  15   2    1373     448   1
  -4  15   2    1238     490   1
  -3  15   2    -610     610   1
  -2  15   2    7318     593   1
  -1  15   2    1056     488   1
   0  15   2    -333     575   1
   1  15   2    6589     836   1
   2  15   2    2160     675   1
   3  15   2    5451    1268   1
   4  15   2    3051    1131   1
  -5  -2 -15    2194     823  -2
   5  15   2    2194     823   1
  -6  -2 -15     857     549  -2
   6  15   2     857     549   1
   7  15   2     789     754   1
   8  15   2     515    1729   1
   9  15   2    1568     517   1
  10  15   2    2430    1131   1
  11  15   2   10740     781   1
  12  15   2     436     846   1
  13  15   2      53     370   1
  14  15   2     997     386   1
  15  15   2    -176     583   1
  16  15   2     287     411   1
  -6  16   2    1019     493   1
  -5  16   2     352     716   1
  -4  16   2    1460     490   1
  -3  16   2     166     493   1
  -2  16   2    2958     693   1
  -1  16   2    -406     406   1
   0  16   2     251     534   1
   1  16   2    3003     709   1
   2  16   2    1636     756   1
   3  16   2    -377     686   1
   4  16   2    7645    1474   1
  -5  -2 -16    3680    1731  -2
   5  16   2    3680    1731   1
  -6  -2 -16    4491     994  -2
   6  16   2    4491     994   1
   7  16   2    6136    1131   1
   8  16   2    5074     739   1
   9  16   2     857     737   1
  10  16   2    -177     484   1
  11  16   2    1200     391   1
  12  16   2    4587     587   1
  13  16   2    1115     452   1
  14  16   2    1038     369   1
  15  16   2     -29     497   1
  16  16   2    -411     411   1
  -5  17   2     552     354   1
  -4  17   2     -60     686   1
  -3  17   2     -23     447   1
  -2  17   2    1557     615   1
  -1  17   2    1197     513   1
   0  17   2     347     363   1
   1  17   2    -122     498   1
   2  17   2     299     658   1
   3  17   2    3120    1063   1
   4  17   2    6513    1166   1
   5  17   2     717     532   1
  -6  -2 -17      28     608  -2
   6  17   2      28     608   1
   7  17   2    6308    1028   1
   8  17   2    2826     533   1
   9  17   2    2952     600   1
  10  17   2    1680    1097   1
  11  17   2    1882     516   1
  12  17   2     458     571   1
  13  17   2    4682    2025   1
  14  17   2     255     278   1
  15  17   2    1364     994   1
  -3  18   2    -357    2280   1
  -2  18   2    1231     433   1
  -1  18   2    1003     514   1
   0  18   2    2750     564   1
   1  18   2     128     404   1
   2  18   2     732    1114   1
   3  18   2    4422    1817   1
   4  18   2    9754    2314   1
   5  18   2    5802     943   1
  -6  -2 -18     399     601  -2
   6  18   2     399     601   1
   7  18   2    4761    1166   1
   8  18   2     857     686   1
   9  18   2    4361     617   1
  10  18   2    1381     551   1
  11  18   2    3119    1131   1
  12  18   2     490     352   1
  13  18   2     390     356   1
  14  18   2     529     566   1
  -1  19   2     134     459   1
   0  19   2     617     686   1
   1  19   2    -374     527   1
   2  19   2    2676    1286   1
   3  19   2     371     583   1
   4  19   2    1429     444   1
   5  19   2    1368     823   1
  -6  -2 -19    -505     527  -2
   6  19   2    -505     527   1
  -7  -2 -19     899     543  -2
   7  19   2     899     543   1
   8  19   2      45     399   1
   9  19   2    2897     977   1
  10  19   2     775     279   1
  11  19   2    5139     754   1
  12  19   2     654     420   1
  13  19   2     240     309   1
   1  20   2    -137     514   1
   2  20   2     411     583   1
   3  20   2    4148     980   1
   4  20   2    1247     563   1
   5  20   2    2922     600   1
   6  20   2   11347    1440   1
  -7  -2 -20     736     357  -2
   7  20   2     736     357   1
   8  20   2     141     265   1
   9  20   2     112     207   1
  10  20   2      34     549   1
  11  20   2     206     480   1
   5  21   2      22     193   1
   6  21   2     426     205   1
  -7  -2 -21     165     211  -2
   7  21   2     165     211   1
  -8 -20   3    -208     229   1
  -7 -20   3    1236     209   1
  -6 -20   3     350     256   1
   5  -3  20     109     218  -2
  -5 -20   3     109     218   1
  -4 -20   3     339     545   1
  -3 -20   3     891     493   1
  -2 -20   3     122     420   1
  -1 -20   3       3     304   1
 -10 -19   3    -218     394   1
  -9 -19   3      73     242   1
  -8 -19   3     674     312   1
  -7 -19   3     -69     686   1
  -6 -19   3    3304    1663   1
   5  -3  19     742     404  -2
  -5 -19   3     742     404   1
  -4 -19   3     340     453   1
  -3 -19   3     870     278   1
  -2 -19   3    -705     994   1
  -1 -19   3     278     593   1
   0 -19   3     364     443   1
   1 -19   3     727     472   1
   2 -19   3    1646     617   1
 -12 -18   3    -514     583   1
 -11 -18   3      -5     480   1
 -10 -18   3    1231     389   1
  -9 -18   3     793     323   1
  -8 -18   3     696     340   1
  -7 -18   3      61     371   1
  -6 -18   3     476     431   1
   5  -3  18     934     617  -2
  -5 -18   3     934     617   1
  -4 -18   3     107     840   1
  -3 -18   3    2208     565   1
  -2 -18   3     504     331   1
  -1 -18   3     830     909   1
   0 -18   3     826     556   1
   1 -18   3    1109     550   1
   2 -18   3     502     332   1
   3 -18   3    -274     412   1
   4 -18   3     686     446   1
 -13 -17   3    5965    1028   1
 -12 -17   3     722     337   1
 -11 -17   3    1395     584   1
 -10 -17   3    4636     494   1
  -9 -17   3    1262     604   1
  -8 -17   3     823     686   1
  -7 -17   3     880     418   1
  -6 -17   3    1630     754   1
  -5 -17   3    2708     789   1
   4  -3  17    4731    1097  -2
  -4 -17   3    4731    1097   1
  -3 -17   3    2054     595   1
  -2 -17   3    1202     569   1
  -1 -17   3     840     361   1
   0 -17   3     616     714   1
   1 -17   3     512     671   1
   2 -17   3      51     530   1
   3 -17   3     551     337   1
   4 -17   3     552     360   1
   5 -17   3     -72     361   1
 -13 -16   3     346     313   1
 -12 -16   3    4850     669   1
 -11 -16   3     431     294   1
 -10 -16   3    1730     349   1
  -9 -16   3    5681    1004   1
  -7 -16   3    2272     538   1
  -6 -16   3    1386    1251   1
  -5 -16   3    2503    1063   1
   4  -3  16    1371     994  -2
  -4 -16   3    1371     994   1
  -3 -16   3    4829     970   1
  -2 -16   3    1159     685   1
  -1 -16   3    3191     675   1
   0 -16   3    1792     572   1
   1 -16   3    -207     719   1
   2 -16   3     483     639   1
   3 -16   3     704     446   1
   4 -16   3     927     481   1
   5 -16   3     262     432   1
   6 -16   3     175     617   1
   7 -16   3     823     617   1
 -14 -15   3     988     269   1
 -13 -15   3    -208     325   1
 -12 -15   3    -336     336   1
 -11 -15   3      24     344   1
 -10 -15   3    -400     471   1
  -9 -15   3    -315     424   1
  -8 -15   3     514     514   1
  -7 -15   3    -103     514   1
  -6 -15   3    4277    1714   1
  -5 -15   3   11518    1920   1
   4  -3  15   11038    1748  -2
  -4 -15   3   11038    1748   1
  -3 -15   3    1906     947   1
  -2 -15   3     469     763   1
  -1 -15   3    -717    2845   1
   0 -15   3    2854     661   1
   1 -15   3    -212     559   1
   2 -15   3    1185     585   1
   3 -15   3    1751     622   1
   4 -15   3    1495     569   1
   5 -15   3    1683    1454   1
   6 -15   3     874     891   1
   7 -15   3     883     514   1
   8 -15   3    -206     686   1
 -14 -14   3     780     259   1
 -13 -14   3    2606     410   1
 -12 -14   3    4046     481   1
 -11 -14   3    5908    1110   1
 -10 -14   3     524     449   1
  -9 -14   3    3327     508   1
  -8 -14   3     514     720   1
  -7 -14   3    3105     751   1
  -6 -14   3    9725    1155   1
  -5 -14   3    1633    3771   1
   4  -3  14   33726    4371  -2
  -4 -14   3   33726    4371   1
   3  -3  14     561     840  -2
  -3 -14   3     561     840   1
  -2 -14   3    1636     831   1
  -1 -14   3   16371    1435   1
   0 -14   3    9224    1153   1
   1 -14   3    5209     600   1
   2 -14   3    4072     686   1
   3 -14   3    1985     759   1
   4 -14   3     -54     561   1
   5 -14   3    -376     376   1
   6 -14   3    2275     605   1
   7 -14   3    -664    1131   1
   8 -14   3     513     531   1
   9 -14   3     206     686   1
 -15 -13   3     330     348   1
 -14 -13   3     928     327   1
 -13 -13   3    4512     530   1
 -12 -13   3   12482    1072   1
 -11 -13   3     469     311   1
 -10 -13   3     106     445   1
  -9 -13   3     608     470   1
  -8 -13   3     248    1303   1
  -7 -13   3   16921    1845   1
  -6 -13   3     195    1046   1
  -4 -13   3    1440     789   1
   3  -3  13    1646    1337  -2
  -3 -13   3    1646    1337   1
  -2 -13   3    1885     955   1
  -1 -13   3    1522     638   1
   0 -13   3    1708     550   1
   1 -13   3     411     568   1
   2 -13   3    3675     732   1
   3 -13   3     234     953   1
   4 -13   3    1784     580   1
   5 -13   3     813     564   1
   6 -13   3    -393     656   1
   7 -13   3     109     725   1
   8 -13   3   15406    1564   1
   9 -13   3    2674    1440   1
  10 -13   3    1646     857   1
 -16 -12   3    1817     617   1
 -15 -12   3    -655     771   1
 -14 -12   3     185     316   1
 -13 -12   3    2588     432   1
 -12 -12   3      -1     486   1
 -11 -12   3      35     280   1
 -10 -12   3     189     391   1
  -9 -12   3     671     410   1
  -8 -12   3    2347     521   1
  -7 -12   3    2726     738   1
  -6 -12   3    1804     674   1
  -4 -12   3    1303     720   1
   3  -3  12   17895    2468  -2
  -3 -12   3   17895    2468   1
  -2 -12   3    3314     967   1
  -1 -12   3    3238    1010   1
   0 -12   3    5591     619   1
   1 -12   3    -400     400   1
   2 -12   3    4109     479   1
   3 -12   3    3154     563   1
   4 -12   3     825     595   1
   5 -12   3    7444     731   1
   6 -12   3      61     355   1
   7 -12   3      32     549   1
   8 -12   3    1404     750   1
   9 -12   3      21     617   1
  10 -12   3    -823     994   1
  11 -12   3    -446     754   1
 -16 -11   3    1161     908   1
 -15 -11   3     216     347   1
 -14 -11   3    2058     589   1
 -13 -11   3    -349     349   1
 -12 -11   3    1042     445   1
 -11 -11   3     840     411   1
 -10 -11   3    1101     358   1
  -9 -11   3    -401     401   1
  -8 -11   3    1106     692   1
  -7 -11   3   15265    2571   1
  -6 -11   3    -335     400   1
   3  -3  11    8605    1508  -2
  -3 -11   3    8605    1508   1
   2  -3  11    -484     721  -2
  -2 -11   3    -484     721   1
  -1 -11   3    3725    1017   1
   0 -11   3    6962     668   1
   1 -11   3     923     460   1
   2 -11   3    -366     366   1
   3 -11   3    6905     537   1
   4 -11   3    2289     523   1
   5 -11   3     819     601   1
   6 -11   3    7001     648   1
   7 -11   3    1326     683   1
   8 -11   3   30760    2372   1
   9 -11   3   13482    1230   1
  10 -11   3     583    1166   1
  11 -11   3   -1337    1337   1
  12 -11   3     171     651   1
 -16 -10   3    1572     502   1
 -15 -10   3    4249     584   1
 -14 -10   3    1398     391   1
 -13 -10   3    2360     449   1
 -12 -10   3    4376     514   1
 -11 -10   3    1401     291   1
 -10 -10   3    -302     350   1
  -9 -10   3    5588     471   1
  -8 -10   3    3888     989   1
  -7 -10   3    -545     821   1
  -6 -10   3    2509     574   1
  -3 -10   3   17474    2306   1
   2  -3  10    1273    1111  -2
  -2 -10   3    1273    1111   1
  -1 -10   3    1232    1079   1
   0 -10   3   16698    1306   1
   1 -10   3    1035     505   1
   2 -10   3   31774    1626   1
   3 -10   3    3739     426   1
   4 -10   3    9425     684   1
   5 -10   3    1407     424   1
   6 -10   3    7167     533   1
   7 -10   3     710     551   1
   8 -10   3     501     527   1
   9 -10   3     858     517   1
  10 -10   3    -407     603   1
  11 -10   3    1097    1200   1
  12 -10   3     823     926   1
 -16  -9   3    -270     270   1
 -15  -9   3    1312     505   1
 -14  -9   3    3094     493   1
 -13  -9   3    1767     435   1
 -12  -9   3    1530     450   1
 -11  -9   3    1679     391   1
 -10  -9   3    3333     382   1
  -9  -9   3    4492     456   1
  -8  -9   3   14017     907   1
  -7  -9   3    7385     686   1
  -6  -9   3    3605     855   1
  -5  -9   3   14099    1766   1
  -4  -9   3    1406    1508   1
  -3  -9   3    3073    1388   1
   2  -3   9    6811    1401  -2
  -2  -9   3    6811    1401   1
  -1  -9   3     447    1114   1
   0  -9   3    1758     975   1
   1  -9   3    9897    1264   1
   2  -9   3     692     649   1
   3  -9   3    2467     391   1
   4  -9   3     169     394   1
   5  -9   3     656     469   1
   6  -9   3    1188     388   1
   7  -9   3   14184    1031   1
   8  -9   3    9131     915   1
   9  -9   3     563     632   1
  10  -9   3     569     365   1
  11  -9   3     980    1251   1
  12  -9   3    1081     665   1
  13  -9   3    -240     686   1
 -17  -8   3     789     651   1
 -16  -8   3     663     322   1
 -15  -8   3     737     384   1
 -14  -8   3     319     319   1
 -13  -8   3    5243     569   1
 -12  -8   3     535     422   1
 -11  -8   3   17318     956   1
 -10  -8   3   22038    1186   1
  -9  -8   3     169     322   1
  -8  -8   3    8508     580   1
  -7  -8   3    5554    1022   1
  -6  -8   3    1734     974   1
  -5  -8   3    8485    1117   1
  -4  -8   3   15697    3160   1
  -3  -8   3     575     679   1
   2  -3   8    2359     987  -2
  -2  -8   3    2359     987   1
   1  -3   8   10581    1791  -2
  -1  -8   3   10581    1791   1
   0  -8   3   14102    1609   1
   1  -8   3   17325    1633   1
   2  -8   3    2131     833   1
   3  -8   3   38924    2882   1
   4  -8   3   27012    1383   1
   5  -8   3    1610     404   1
   6  -8   3    5138     699   1
   7  -8   3     -99     460   1
   8  -8   3     463     517   1
   9  -8   3     369     581   1
  10  -8   3    -165     465   1
  11  -8   3     764    1250   1
  12  -8   3     777     729   1
  13  -8   3      97     670   1
 -17  -7   3     343     617   1
 -16  -7   3     155     415   1
 -15  -7   3     554     417   1
 -14  -7   3     150     485   1
 -13  -7   3   21087    1444   1
 -12  -7   3     154     333   1
 -11  -7   3    2869     457   1
 -10  -7   3     735     295   1
  -9  -7   3    3886     351   1
  -8  -7   3    4457     468   1
  -7  -7   3    4005    1052   1
  -6  -7   3   33185    2705   1
  -5  -7   3    1416     805   1
  -4  -7   3    1964     551   1
  -3  -7   3   10085    1060   1
   2  -3   7    2652     638  -2
  -2  -7   3    2652     638   1
   1  -3   7   21777    1694  -2
  -1  -7   3   21777    1694   1
   0  -7   3    6167     890   1
   1  -7   3   13007    1524   1
   2  -7   3   24940    2048   1
   3  -7   3   26977    2150   1
   4  -7   3    9753    1157   1
   5  -7   3    1160     400   1
   6  -7   3    1249     339   1
   7  -7   3    9752     724   1
   8  -7   3    7944     761   1
   9  -7   3     806    1280   1
  10  -7   3     576     539   1
  11  -7   3     920     752   1
  12  -7   3    1399     885   1
  13  -7   3    -530     615   1
  14  -7   3     299     669   1
 -17  -6   3     651     617   1
 -16  -6   3     198     840   1
 -15  -6   3    -100     393   1
 -14  -6   3    1400    1138   1
 -13  -6   3   14029     922   1
 -12  -6   3    2035     386   1
 -11  -6   3   16198    1317   1
 -10  -6   3   20018    1005   1
  -9  -6   3    7501     501   1
  -8  -6   3    5170     589   1
  -7  -6   3    7086    1016   1
  -6  -6   3   13265    1412   1
  -5  -6   3    -619     619   1
  -4  -6   3   34949    1815   1
  -3  -6   3    5818     703   1
  -2  -6   3   13588    1286   1
   1  -3   6    3604     613  -2
  -1  -6   3    3604     613   1
   0  -6   3   14805    1171   1
   1  -6   3    6081     847   1
   2  -6   3    2354     641   1
   3  -6   3    1001     908   1
   4  -6   3   10367    1108   1
   5  -6   3    3020     732   1
   6  -6   3    2541     355   1
   7  -6   3     814     473   1
   8  -6   3    8826     638   1
   9  -6   3    2949     644   1
  10  -6   3     955     460   1
  11  -6   3     320     564   1
  12  -6   3    4070     776   1
  13  -6   3     362     845   1
  14  -6   3    1063    1131   1
  15  -6   3     583     651   1
 -17  -5   3    -549     549   1
 -16  -5   3     353     265   1
 -15  -5   3    -424     424   1
 -14  -5   3    9743     974   1
 -13  -5   3    -139     319   1
 -12  -5   3    9512     760   1
 -11  -5   3    1001     309   1
 -10  -5   3    9543     545   1
  -9  -5   3    1714     330   1
  -8  -5   3     126     339   1
  -7  -5   3   11000    1237   1
  -6  -5   3    8132    1084   1
  -5  -5   3   11057    1056   1
  -4  -5   3    6244    1100   1
  -3  -5   3   35009    1911   1
  -2  -5   3    5937     610   1
   1  -3   5   62910    3065  -2
  -1  -5   3   62910    3065   1
   0  -3   5   83901    3782  -2
   0  -5   3   83901    3782   1
   1  -5   3   23990    1773   1
   2  -5   3    4847     495   1
   3  -5   3   61031    2622   1
   4  -5   3   11333     917   1
   5  -5   3      25     586   1
   6  -5   3    6469     917   1
   7  -5   3    1653     367   1
   8  -5   3   19633    1020   1
   9  -5   3   10400     760   1
  10  -5   3     320     359   1
  11  -5   3    7168     953   1
  12  -5   3    2234     613   1
  13  -5   3     324     562   1
  14  -5   3     723     692   1
  15  -5   3    -720     754   1
 -17  -4   3     583     651   1
 -16  -4   3    1563     450   1
 -15  -4   3    -248     401   1
 -14  -4   3    -201     412   1
 -13  -4   3     400     364   1
 -12  -4   3    1802     385   1
 -11  -4   3    3757     423   1
 -10  -4   3    1639     327   1
  -9  -4   3     917     229   1
  -8  -4   3    3073     716   1
  -7  -4   3    5432     844   1
  -6  -4   3   16575    1509   1
  -5  -4   3    1099     600   1
  -4  -4   3   25670    1600   1
  -3  -4   3    7163    1223   1
  -2  -4   3    8681     866   1
   1  -3   4   16136     990  -2
  -1  -4   3   16136     990   1
   0  -3   4  924592   37412  -2
   0  -4   3  924592   37412   1
   1  -4   3    2504     425   1
   2  -4   3    4666    1951   1
   3  -4   3   51851    2209   1
   4  -4   3   49840    2122   1
   5  -4   3   38883    1776   1
   6  -4   3   31423    2265   1
   7  -4   3   15181    2200   1
   8  -4   3    -207     316   1
   9  -4   3    1599     346   1
  10  -4   3     -26     430   1
  11  -4   3     -52     614   1
  12  -4   3    7129     858   1
  13  -4   3     431     604   1
  14  -4   3      89     614   1
  15  -4   3    1580     658   1
  16  -4   3     966     519   1
 -17  -3   3     514     583   1
 -16  -3   3     923     410   1
 -15  -3   3    -221     392   1
 -14  -3   3     220     364   1
 -13  -3   3    3938     734   1
 -12  -3   3   16491    1163   1
 -11  -3   3    7196     571   1
 -10  -3   3     140     282   1
  -9  -3   3   10332     533   1
  -8  -3   3    7353     954   1
  -7  -3   3    7872    1783   1
  -6  -3   3    3687     747   1
  -5  -3   3   28593    1760   1
  -4  -3   3   63951    2939   1
  -3  -3   3   33283    1689   1
  -2  -3   3    5650     830   1
  -1  -3   3   41110    1950   1
   0  -3   3 3096959  148672  -2
   0  -3   3 3096959  148672   1
   1  -3   3   14163     745   1
   2  -3   3   22071     985   1
   3  -3   3   16228    2463   1
   4  -3   3     857     572   1
   5  -3   3   49676    1923   1
   6  -3   3   16326    1867   1
   7  -3   3   19828    2062   1
   8  -3   3    1158     457   1
   9  -3   3   14013     795   1
  10  -3   3    4118     403   1
  11  -3   3    4916     580   1
  12  -3   3   13754    1197   1
  13  -3   3     768     581   1
  14  -3   3    4685     791   1
  15  -3   3    2936     560   1
  16  -3   3     377     754   1
 -16  -2   3    1665     425   1
 -15  -2   3    8808    1132   1
 -14  -2   3    2351    1078   1
 -13  -2   3    2451     562   1
 -12  -2   3    1982     582   1
 -11  -2   3    3450     485   1
 -10  -2   3    7181     675   1
  -9  -2   3    4657     324   1
  -8  -2   3    6476     861   1
  -7  -2   3   30121    2210   1
  -6  -2   3    8158     915   1
  -5  -2   3     -93     557   1
  -4  -2   3    6369     554   1
  -3  -2   3   29024    1360   1
  -2  -2   3    6641    1021   1
  -1  -2   3    5269     539   1
   0  -3   2  126627    5512  -2
   0  -2   3  126627    5512   1
  -1  -3   2   37570    1556  -2
   1  -2   3   37570    1556   1
   2  -2   3   50494    2083   1
   3  -2   3   43370    1713   1
   4  -2   3   33242    1332   1
   5  -2   3   10749    1146   1
   6  -2   3   16272    1456   1
   7  -2   3    7146    1928   1
   8  -2   3    1495     870   1
   9  -2   3    1027     358   1
  10  -2   3     817     238   1
  11  -2   3    3663     476   1
  12  -2   3   12310    1047   1
  13  -2   3    9843     864   1
  14  -2   3    1699     719   1
  15  -2   3    -350     891   1
  16  -2   3    1504     560   1
  17  -2   3     549     686   1
 -16  -1   3    -891     891   1
 -15  -1   3    1426     857   1
 -14  -1   3    9490     845   1
 -13  -1   3     206     413   1
 -12  -1   3   10087     828   1
 -11  -1   3    -279     279   1
 -10  -1   3    7394     491   1
  -9  -1   3    2291     285   1
  -8  -1   3     954     432   1
  -7  -1   3    3153     733   1
  -6  -1   3    -241     620   1
  -5  -1   3    7352    1283   1
  -4  -1   3    2467     441   1
  -3  -1   3   12666     902   1
  -2  -1   3   46161    2021   1
  -1  -1   3  165378    6704   1
   0  -3   1  406906   17308  -2
   0  -1   3  406906   17308   1
  -1  -3   1   13058     659  -2
   1  -1   3   13058     659   1
   2  -1   3   40010    1629   1
   3  -1   3   14654     745   1
   4  -1   3    6742     794   1
   5  -1   3   10543    1104   1
   6  -1   3   14078    1310   1
   7  -1   3   46162    3543   1
   8  -1   3     473     749   1
   9  -1   3     278     525   1
  10  -1   3    3566     299   1
  11  -1   3   36283    1787   1
  12  -1   3    4860     536   1
  13  -1   3   18769    1295   1
  14  -1   3    4210     610   1
  15  -1   3     983     518   1
  16  -1   3     704     448   1
  17  -1   3    -101     425   1
 -16   0   3    -137     583   1
 -15   0   3     199     385   1
 -14   0   3     778     357   1
 -13   0   3    8617     812   1
 -12   0   3    2455     455   1
 -11   0   3    2890     372   1
 -10   0   3   17925     871   1
  -9   0   3    1285     293   1
  -8   0   3    2618     324   1
  -7   0   3   12802    1266   1
  -6   0   3   14528    1312   1
  -5   0   3    1656     634   1
  -4   0   3   41203    1810   1
  -3   0   3    1626     473   1
  -2   0   3    3133     380   1
  -1   0   3    -235     320   1
   0  -3   0     -38     353  -2
   0   0   3     -38     353   1
  -1  -3   0     707     186  -2
   1   0   3     707     186   1
  -2  -3   0    4105     282  -2
   2   0   3    4105     282   1
   3   0   3   48193    2060   1
   4   0   3   46393    4666   1
   5   0   3   12436    1179   1
   6   0   3    -100    1110   1
   7   0   3    1172     697   1
   8   0   3     -29     836   1
   9   0   3    5899    2743   1
  10   0   3    1832     389   1
  11   0   3    6095     485   1
  12   0   3     224     440   1
  13   0   3    1514     546   1
  14   0   3     153     467   1
  15   0   3    2520     529   1
  16   0   3    -609     642   1
  17   0   3    -531     531   1
 -16   1   3     926     549   1
 -15   1   3     511     688   1
 -14   1   3    5835     653   1
 -13   1   3    8582     798   1
 -12   1   3     119     409   1
 -11   1   3    6344     551   1
 -10   1   3    2064     370   1
  -9   1   3    6282     429   1
  -8   1   3    2171     341   1
  -7   1   3   44806    3109   1
  -6   1   3   27730    2044   1
  -5   1   3    3853     645   1
  -4   1   3    6330     752   1
  -3   1   3   17675    1007   1
  -2   1   3   36238    1763   1
  -1   1   3   45338    2093   1
   0  -3  -1  451278   19178  -2
   0   1   3  451278   19178   1
  -1  -3  -1   49435    2062  -2
   1   1   3   49435    2062   1
  -2  -3  -1  107787    4200  -2
   2   1   3  107787    4200   1
  -3  -3  -1   98957    4062  -2
   3   1   3   98957    4062   1
   4   1   3    4096     249   1
   5   1   3   13253    1192   1
   6   1   3   37949    5416   1
   7   1   3    4541     817   1
   8   1   3   21506    1795   1
   9   1   3   30752    3120   1
  10   1   3     -20     261   1
  11   1   3    1828     328   1
  12   1   3     731     376   1
  13   1   3   13391    1030   1
  14   1   3     505     434   1
  15   1   3    3223     666   1
  16   1   3    1328     531   1
  17   1   3     175     583   1
  18   1   3     290     368   1
 -15   2   3    -333     494   1
 -14   2   3    -492     492   1
 -13   2   3     -74     402   1
 -12   2   3     821     397   1
 -11   2   3     927     391   1
 -10   2   3    4016     399   1
  -9   2   3    1061     374   1
  -8   2   3    1398     320   1
  -7   2   3   23838    2647   1
  -6   2   3    8024     968   1
  -5   2   3   11823    1158   1
  -4   2   3    5900     821   1
  -3   2   3   56711    2697   1
  -2   2   3    9850    1148   1
   1  -3  -2    9365    1222  -2
  -1   2   3    9365    1222   1
   0  -3  -2  118165    5771  -2
   0   2   3  118165    5771   1
  -1  -3  -2   18072     915  -2
   1   2   3   18072     915   1
  -2  -3  -2   50662    2247  -2
   2   2   3   50662    2247   1
  -3  -3  -2  201824    7894  -2
   3   2   3  201824    7894   1
  -4  -3  -2   16447    3384  -2
   4   2   3   16447    3384   1
   5   2   3     367     302   1
   6   2   3   77998    2920   1
   7   2   3    1221     804   1
   8   2   3   10406    2243   1
   9   2   3    3839    1002   1
  10   2   3     -71     258   1
  11   2   3    3517     314   1
  12   2   3    3839     350   1
  13   2   3    6139     950   1
  14   2   3    2575     490   1
  15   2   3    4330     707   1
  16   2   3    1804     534   1
  17   2   3     459     526   1
  18   2   3    -114     436   1
 -15   3   3    -399     549   1
 -14   3   3     165     799   1
 -13   3   3     941     385   1
 -12   3   3      52     609   1
 -11   3   3     -89     474   1
 -10   3   3    4065     541   1
  -9   3   3     522     458   1
  -8   3   3   17292     890   1
  -7   3   3     292     292   1
  -6   3   3   24727    1925   1
  -5   3   3     598     625   1
  -4   3   3   80699    5018   1
  -3   3   3   34143    1842   1
  -2   3   3    4771     557   1
   1  -3  -3   60846    2905  -2
  -1   3   3   60846    2905   1
   0  -3  -3 2584905  123167  -2
   0   3   3 2584905  123167   1
  -1  -3  -3   79273    3696  -2
   1   3   3   79273    3696   1
  -2  -3  -3   38402    1797  -2
   2   3   3   38402    1797   1
  -3  -3  -3   13525     769  -2
   3   3   3   13525     769   1
  -4  -3  -3   56252    2410  -2
   4   3   3   56252    2410   1
   5   3   3   21409    1016   1
   6   3   3  146606    6273   1
   7   3   3     442     235   1
   8   3   3   61546    3022   1
   9   3   3    2191    1136   1
  10   3   3   45771    2256   1
  11   3   3     470     223   1
  12   3   3    1112     261   1
  13   3   3    7606     618   1
  14   3   3    7270     723   1
  15   3   3     783     499   1
  16   3   3     277     479   1
  17   3   3     166     432   1
  18   3   3     148     453   1
 -15   4   3     514     651   1
 -14   4   3    2690     994   1
 -13   4   3    -115     336   1
 -12   4   3     154     369   1
 -11   4   3     784     659   1
 -10   4   3    8996     673   1
  -9   4   3     110     525   1
  -8   4   3   10122     616   1
  -7   4   3    2347     254   1
  -6   4   3    3404    1168   1
  -5   4   3    7259    1138   1
  -4   4   3   13396    1970   1
  -3   4   3   10706     939   1
  -2   4   3   52357    2434   1
  -1   4   3   14462     931   1
   0  -3  -4  955768   48922  -2
   0   4   3  955768   48922   1
  -1  -3  -4   18318    1045  -2
   1   4   3   18318    1045   1
  -2  -3  -4   18422    1015  -2
   2   4   3   18422    1015   1
  -3  -3  -4  123000    5049  -2
   3   4   3  123000    5049   1
  -4  -3  -4   17605     957  -2
   4   4   3   17605     957   1
  -5  -3  -4   34480    1562  -2
   5   4   3   34480    1562   1
   6   4   3   10550     986   1
   7   4   3   13194     740   1
   8   4   3   28528    1473   1
   9   4   3     903     360   1
  10   4   3    4956     536   1
  11   4   3     733     248   1
  12   4   3    6304     511   1
  13   4   3     223     286   1
  14   4   3    7374     681   1
  15   4   3     400     530   1
  16   4   3    1409     568   1
  17   4   3    1192     489   1
  18   4   3     435     469   1
 -14   5   3     248    1114   1
 -13   5   3    1234    1166   1
 -12   5   3    3799     590   1
 -11   5   3     662     514   1
 -10   5   3      74     367   1
  -9   5   3   13816     812   1
  -8   5   3    1136     341   1
  -7   5   3      10     377   1
  -6   5   3   13463     868   1
  -5   5   3    3702    1611   1
  -4   5   3    2382     932   1
  -3   5   3   13361    1334   1
  -2   5   3    5471     802   1
  -1   5   3   13790     926   1
   0  -3  -5   92912    4181  -2
   0   5   3   92912    4181   1
  -1  -3  -5   87859    3679  -2
   1   5   3   87859    3679   1
  -2  -3  -5    5569     549  -2
   2   5   3    5569     549   1
  -3  -3  -5   20607    1599  -2
   3   5   3   20607    1599   1
  -4  -3  -5   43754    2227  -2
   4   5   3   43754    2227   1
  -5  -3  -5    4702    1286  -2
   5   5   3    4702    1286   1
   6   5   3    9982     631   1
   7   5   3    8016     589   1
   8   5   3    6303     725   1
   9   5   3  170193   11044   1
  10   5   3     328     196   1
  11   5   3    8150     530   1
  12   5   3    1389     293   1
  13   5   3    3108     602   1
  14   5   3     451     322   1
  15   5   3     469     566   1
  16   5   3     522     822   1
  17   5   3    1580     526   1
  18   5   3    -122     634   1
 -14   6   3     480     617   1
 -13   6   3    1938     943   1
 -12   6   3     920     397   1
 -11   6   3    1449     506   1
 -10   6   3     231     547   1
  -9   6   3    1374     476   1
  -8   6   3    6208     496   1
  -7   6   3    2209     399   1
  -6   6   3     447     319   1
  -5   6   3     157     460   1
  -4   6   3   14108    1520   1
  -3   6   3    2734    1009   1
  -2   6   3    1624     781   1
  -1   6   3   10286    1317   1
   0   6   3   12641     783   1
  -1  -3  -6   43010    1972  -2
   1   6   3   43010    1972   1
  -2  -3  -6    7428     726  -2
   2   6   3    7428     726   1
  -3  -3  -6    5698     527  -2
   3   6   3    5698     527   1
  -4  -3  -6   12785     855  -2
   4   6   3   12785     855   1
  -5  -3  -6    1358     553  -2
   5   6   3    1358     553   1
   6   6   3    3853     624   1
   7   6   3   96763    6379   1
   8   6   3   10925    1031   1
   9   6   3    9113    1001   1
  10   6   3     329     283   1
  11   6   3    1855     427   1
  12   6   3   29825    1653   1
  13   6   3     901     302   1
  14   6   3    1543     542   1
  15   6   3     524     555   1
  16   6   3     794     549   1
  17   6   3    1674     874   1
  18   6   3    -147     411   1
 -13   7   3    2331     857   1
 -12   7   3     677     322   1
 -11   7   3    1467     503   1
 -10   7   3     133     534   1
  -9   7   3    5963     623   1
  -8   7   3     764     438   1
  -7   7   3   10030     698   1
  -6   7   3    1585     332   1
  -5   7   3    2645     482   1
  -4   7   3    -434     434   1
  -3   7   3    1415     877   1
  -2   7   3    1414     852   1
  -1   7   3   53046    3436   1
   0   7   3    3024     494   1
   1   7   3   14193     895   1
  -2  -3  -7     393     462  -2
   2   7   3     393     462   1
  -3  -3  -7   19577    1851  -2
   3   7   3   19577    1851   1
  -4  -3  -7   14552    1636  -2
   4   7   3   14552    1636   1
  -5  -3  -7   30540    1926  -2
   5   7   3   30540    1926   1
   6   7   3    6776     873   1
   7   7   3   67875    4507   1
   8   7   3    7554     881   1
   9   7   3      33     371   1
  10   7   3    5252     383   1
  11   7   3   37170    1546   1
  12   7   3    3619     310   1
  13   7   3   29667    1644   1
  14   7   3    1671     573   1
  15   7   3     533     391   1
  16   7   3     678     498   1
  17   7   3     313     458   1
  18   7   3      34     514   1
 -13   8   3     171     549   1
 -12   8   3     377    1063   1
 -11   8   3     580     427   1
 -10   8   3    1482     559   1
  -9   8   3    1724     548   1
  -8   8   3     634     571   1
  -7   8   3    2712     796   1
  -6   8   3    1185     492   1
  -5   8   3    1244     337   1
  -4   8   3    4072     559   1
  -3   8   3   46946    3161   1
  -2   8   3    4432    1058   1
  -1   8   3      83     806   1
   0   8   3   16009    1461   1
   1   8   3   11354     832   1
  -2  -3  -8    5103     599  -2
   2   8   3    5103     599   1
  -3  -3  -8    6563    1012  -2
   3   8   3    6563    1012   1
  -4  -3  -8    7880     998  -2
   4   8   3    7880     998   1
  -5  -3  -8   66186    4520  -2
   5   8   3   66186    4520   1
   6   8   3   11837    1828   1
   7   8   3    4291     752   1
   8   8   3    2447     752   1
   9   8   3    7849     523   1
  10   8   3    3693     340   1
  11   8   3     633     286   1
  12   8   3   15475     859   1
  13   8   3    5735     561   1
  14   8   3     455     362   1
  15   8   3   15745    1172   1
  16   8   3      73     609   1
  17   8   3     457    1303   1
  18   8   3    1577     583   1
 -12   9   3    1508     686   1
 -11   9   3    1234     411   1
 -10   9   3     358     756   1
  -9   9   3    1308     591   1
  -8   9   3     969     491   1
  -7   9   3   17926    1268   1
  -6   9   3    2229     692   1
  -5   9   3    7855     744   1
  -4   9   3   14240     896   1
  -3   9   3    6913    1020   1
  -2   9   3    1158     601   1
  -1   9   3    -910     910   1
   0   9   3    1636     808   1
   1   9   3    2921    1539   1
   2   9   3   30962    1870   1
  -3  -3  -9   12354    1832  -2
   3   9   3   12354    1832   1
  -4  -3  -9   13654    1242  -2
   4   9   3   13654    1242   1
  -5  -3  -9    4470     997  -2
   5   9   3    4470     997   1
   6   9   3   26867    2289   1
   7   9   3    2828     764   1
   8   9   3   15763    1022   1
   9   9   3    7516     487   1
  10   9   3     262     233   1
  11   9   3    2594     356   1
  12   9   3   13864    1045   1
  13   9   3    7231     715   1
  14   9   3    -372     391   1
  15   9   3    -110     446   1
  16   9   3     122     301   1
  17   9   3    1146     703   1
  18   9   3    2660     703   1
 -11  10   3     411     651   1
 -10  10   3    1453     468   1
  -9  10   3    1703     648   1
  -8  10   3    -304     334   1
  -7  10   3    1851     557   1
  -6  10   3     239     598   1
  -5  10   3    1328     393   1
  -4  10   3    3637     460   1
  -3  10   3   14895    1050   1
  -2  10   3    1388     659   1
  -1  10   3    3749     619   1
   0  10   3   20006    1972   1
   1  10   3     190     934   1
   2  10   3    5050    1281   1
  -3  -3 -10   15505    1845  -2
   3  10   3   15505    1845   1
  -4  -3 -10    6424    2383  -2
   4  10   3    6424    2383   1
  -5  -3 -10    8625    1076  -2
   5  10   3    8625    1076   1
   6  10   3   23642    2122   1
   7  10   3    2416     485   1
   8  10   3   15375     818   1
   9  10   3    8788     569   1
  10  10   3    -257     387   1
  11  10   3      10     326   1
  12  10   3      59     390   1
  13  10   3    1528     439   1
  14  10   3    1328     494   1
  15  10   3    5285     971   1
  16  10   3    2224     653   1
  17  10   3     503     425   1
  18  10   3    1232     463   1
 -10  11   3    -219     291   1
  -9  11   3    -466     466   1
  -8  11   3     310     632   1
  -7  11   3     133     573   1
  -6  11   3     773     553   1
  -5  11   3     518     851   1
  -4  11   3    6165     594   1
  -3  11   3    8737    1242   1
  -2  11   3   14500    1036   1
  -1  11   3     434     721   1
   0  11   3    3294     888   1
   1  11   3    3765     871   1
  -4  -3 -11   20260    3428  -2
   4  11   3   20260    3428   1
  -5  -3 -11   25431    2762  -2
   5  11   3   25431    2762   1
   6  11   3   11502    1103   1
   7  11   3     183     325   1
   8  11   3   12313     891   1
   9  11   3    7596     530   1
  10  11   3     174     396   1
  11  11   3     726     514   1
  12  11   3    6524     530   1
  13  11   3    3224     367   1
  14  11   3    1200     445   1
  15  11   3    -141     664   1
  16  11   3      49     360   1
  17  11   3     857     460   1
  18  11   3     754     617   1
  -9  12   3     400     322   1
  -8  12   3     428     431   1
  -7  12   3     -85     846   1
  -6  12   3     285     524   1
  -5  12   3    -118     763   1
  -4  12   3    4006     943   1
  -3  12   3    5005     549   1
  -2  12   3    -457     457   1
  -1  12   3    2412     490   1
   0  12   3     685     718   1
   1  12   3    1761     631   1
   2  12   3    5005     960   1
  -5  -3 -12    3977     823  -2
   5  12   3    3977     823   1
   6  12   3    2860     663   1
   7  12   3    1897     370   1
   8  12   3   10229     690   1
   9  12   3     -40     346   1
  10  12   3    1612     334   1
  11  12   3     228     371   1
  12  12   3    3268     448   1
  13  12   3     262     396   1
  14  12   3     647     315   1
  15  12   3    1355     461   1
  16  12   3    1044     341   1
  17  12   3    -240     651   1
  18  12   3    -274     480   1
  -9  13   3     763     281   1
  -8  13   3    -538     720   1
  -7  13   3    -512     555   1
  -6  13   3     745     762   1
  -5  13   3    2205     726   1
  -4  13   3     862     670   1
  -3  13   3    1901     481   1
  -2  13   3     572     477   1
  -1  13   3    3427     935   1
   0  13   3    1877     910   1
   1  13   3    6890    1303   1
   2  13   3    3154     823   1
   3  13   3    1371     720   1
  -5  -3 -13    1714     754  -2
   5  13   3    1714     754   1
  -6  -3 -13     857     686  -2
   6  13   3     857     686   1
   7  13   3   10009    1796   1
   8  13   3    6179     671   1
   9  13   3    1065     380   1
  10  13   3    4660     898   1
  11  13   3    9156     805   1
  12  13   3     839     484   1
  13  13   3    6246     898   1
  14  13   3     774     414   1
  15  13   3    2052     659   1
  16  13   3     119     444   1
  17  13   3     -69     651   1
  -8  14   3     240     411   1
  -7  14   3    1803     874   1
  -6  14   3     206     837   1
  -5  14   3    2177     739   1
  -4  14   3     110     693   1
  -3  14   3     146     254   1
  -2  14   3    -196     464   1
  -1  14   3    9616     968   1
   0  14   3    2511     794   1
   1  14   3   13840    1491   1
   2  14   3     103     926   1
   3  14   3    2331    1028   1
  -5  -3 -14   13644    1885  -2
   5  14   3   13644    1885   1
  -6  -3 -14    1954     754  -2
   6  14   3    1954     754   1
   7  14   3    3500     697   1
   8  14   3    1675     741   1
   9  14   3     791     631   1
  10  14   3      54     410   1
  11  14   3    7275     821   1
  12  14   3    1207     596   1
  13  14   3     535     445   1
  14  14   3    5164     965   1
  15  14   3    -140     507   1
  16  14   3    3085    1097   1
  17  14   3    2468     720   1
  -7  15   3    1277     444   1
  -6  15   3     388     482   1
  -5  15   3     110     495   1
  -4  15   3    2201    1577   1
  -3  15   3    -181     697   1
  -2  15   3     160     392   1
  -1  15   3    1659    1070   1
   0  15   3    7263     867   1
   1  15   3    3664    1373   1
   2  15   3    1200     720   1
   3  15   3     994     994   1
   4  15   3    6205    1337   1
  -5  -3 -15    1646     617  -2
   5  15   3    1646     617   1
  -6  -3 -15    3120     891  -2
   6  15   3    3120     891   1
   7  15   3    2194     823   1
   8  15   3    5227     958   1
   9  15   3     104     617   1
  10  15   3    1308     484   1
  11  15   3   15062    1272   1
  12  15   3     637     820   1
  13  15   3    -211     559   1
  14  15   3     261     338   1
  15  15   3     437     566   1
  16  15   3    5394     697   1
  -6  16   3      69     446   1
  -5  16   3     804     580   1
  -4  16   3    1463     410   1
  -3  16   3    3748     675   1
  -2  16   3     347     680   1
  -1  16   3    -177     640   1
   0  16   3    1047     610   1
   1  16   3    -133     621   1
   2  16   3    5341    1628   1
   3  16   3    1714     754   1
   4  16   3   13267    1308   1
  -5  -3 -16    2530     606  -2
   5  16   3    2530     606   1
  -6  -3 -16    5931     994  -2
   6  16   3    5931     994   1
   7  16   3     480     754   1
   9  16   3    4877     701   1
  10  16   3    1553    1097   1
  11  16   3    1296     283   1
  12  16   3    -122     514   1
  13  16   3     -65     353   1
  14  16   3      -9     414   1
  15  16   3    1577     507   1
  16  16   3      76     337   1
  -4  17   3     278     566   1
  -3  17   3     521     443   1
  -2  17   3    2009     517   1
  -1  17   3     657    1028   1
   0  17   3     500     666   1
   1  17   3      75     847   1
   2  17   3    2670     622   1
   3  17   3    -891     891   1
   4  17   3   11726    1258   1
   5  17   3    8586    1042   1
  -6  -3 -17     246     626  -2
   6  17   3     246     626   1
   7  17   3    4525     994   1
   8  17   3    2490     672   1
   9  17   3    3563     659   1
  10  17   3    -117     429   1
  11  17   3    8854    2023   1
  12  17   3    2830     594   1
  13  17   3     725     551   1
  14  17   3      82     497   1
  15  17   3    -375     375   1
  -3  18   3     384     456   1
  -2  18   3     -30     375   1
  -1  18   3    -224     601   1
   0  18   3    -144     532   1
   1  18   3     729     391   1
   2  18   3     229     545   1
   3  18   3     309     583   1
   4  18   3   32506    4697   1
   5  18   3    5550     739   1
  -6  -3 -18    1707     469  -2
   6  18   3    1707     469   1
  -7  -3 -18    -581     581  -2
   7  18   3    -581     581   1
   8  18   3    1837     542   1
   9  18   3    3232     771   1
  10  18   3      63     609   1
  11  18   3    -353     531   1
  12  18   3     656     439   1
  13  18   3     133     356   1
  14  18   3     459     384   1
  -1  19   3    1440     617   1
   0  19   3    -411     651   1
   1  19   3     686     658   1
   2  19   3     941     583   1
   3  19   3     -46    1217   1
   4  19   3    2101     497   1
   5  19   3    4875     926   1
   6  19   3    1002     535   1
  -7  -3 -19    -737     737  -2
   7  19   3    -737     737   1
   8  19   3     317     462   1
   9  19   3    3704     960   1
  10  19   3    7106    1177   1
  11  19   3    8193    1234   1
  12  19   3     -18     410   1
  13  19   3    -245     309   1
   1  20   3    -343     720   1
   2  20   3    1055     737   1
   3  20   3      -4     206   1
   4  20   3    2073     779   1
   5  20   3    1132     371   1
   6  20   3     398     312   1
  -7  -3 -20     276     297  -2
   7  20   3     276     297   1
   8  20   3     482     476   1
   9  20   3      11     375   1
  10  20   3    -291     514   1
  11  20   3    -137     446   1
   5  21   3    1885     343   1
   6  21   3     916     263   1
  -7  -3 -21     336     360  -2
   7  21   3     336     360   1
  -7 -20   4      78     207   1
  -6 -20   4     114     229   1
   5  -4  20    -103     583  -2
  -5 -20   4    -103     583   1
  -4 -20   4     534     600   1
  -3 -20   4    -310     420   1
  -2 -20   4     136     346   1
  -9 -19   4     249     309   1
  -8 -19   4     277     469   1
  -7 -19   4     705     337   1
  -6 -19   4     514     411   1
   5  -4  19     595     298  -2
  -5 -19   4     595     298   1
  -4 -19   4     751     363   1
  -3 -19   4    -449     697   1
  -2 -19   4    -326     533   1
  -1 -19   4    2405     560   1
   0 -19   4     377     417   1
   1 -19   4      41     806   1
 -11 -18   4    -480     480   1
 -10 -18   4     432     229   1
  -9 -18   4     411     281   1
  -8 -18   4      57     247   1
  -7 -18   4    -103     754   1
  -6 -18   4     -38     531   1
  -5 -18   4     727     411   1
   4  -4  18    -324     505  -2
  -4 -18   4    -324     505   1
  -3 -18   4     117     394   1
  -2 -18   4     314     591   1
  -1 -18   4    1398     761   1
   0 -18   4      30     540   1
   1 -18   4    1662     529   1
   2 -18   4    -191     472   1
   3 -18   4     607     514   1
 -12 -17   4    4354     891   1
 -11 -17   4    1639     497   1
 -10 -17   4    3739     686   1
  -9 -17   4     362     424   1
  -8 -17   4    1395     563   1
  -7 -17   4    -857     857   1
  -6 -17   4     732     478   1
  -5 -17   4    1474     926   1
   4  -4  17    1244    1011  -2
  -4 -17   4    1244    1011   1
  -3 -17   4    3479     787   1
  -2 -17   4    1783     473   1
  -1 -17   4     566     376   1
   0 -17   4     195     757   1
   1 -17   4     120     635   1
   2 -17   4    -184     497   1
   3 -17   4     994     582   1
   4 -17   4     355     507   1
   5 -17   4     960     583   1
 -13 -16   4   10490    1406   1
 -12 -16   4    1508     789   1
 -11 -16   4    1554     252   1
 -10 -16   4     144     729   1
  -9 -16   4    -353     353   1
  -8 -16   4    -449     527   1
  -7 -16   4    2151    1234   1
  -6 -16   4     -28     669   1
  -5 -16   4    2297     789   1
   4  -4  16    1303     720  -2
  -4 -16   4    1303     720   1
  -3 -16   4    1154     729   1
  -2 -16   4     411     662   1
  -1 -16   4    1191     520   1
   0 -16   4     418     276   1
   1 -16   4    -699     723   1
   2 -16   4    2408     764   1
   3 -16   4     161     423   1
   4 -16   4     -75     562   1
   5 -16   4    1785     478   1
   6 -16   4     -74     600   1
 -13 -15   4    2035     431   1
 -12 -15   4     426     315   1
 -11 -15   4      46     295   1
 -10 -15   4     505     385   1
  -9 -15   4      21     396   1
  -7 -15   4    3771     926   1
  -6 -15   4     256     444   1
  -5 -15   4    9804    1680   1
   4  -4  15    7302    1440  -2
  -4 -15   4    7302    1440   1
   3  -4  15    3785     970  -2
  -3 -15   4    3785     970   1
  -2 -15   4    -291     524   1
  -1 -15   4    -527     602   1
   0 -15   4    2132     713   1
   1 -15   4     519     272   1
   2 -15   4     246     617   1
   3 -15   4     518     503   1
   4 -15   4    -196     448   1
   5 -15   4     130     603   1
   6 -15   4    2795     771   1
   7 -15   4    -182     384   1
   8 -15   4    -103     583   1
 -14 -14   4    2341     566   1
 -13 -14   4    3469     834   1
 -12 -14   4      94     302   1
 -11 -14   4    3723     781   1
 -10 -14   4      53     489   1
  -9 -14   4    1008     405   1
  -7 -14   4    -480     480   1
  -6 -14   4    1870     539   1
  -5 -14   4    -777     899   1
  -4 -14   4    6342    2880   1
   3  -4  14      28     944  -2
  -3 -14   4      28     944   1
  -2 -14   4    -158     821   1
  -1 -14   4     470    1169   1
   0 -14   4    1944    1371   1
   1 -14   4    1262     496   1
   2 -14   4   11172    1020   1
   3 -14   4    1249     748   1
   4 -14   4     729     532   1
   5 -14   4     778     639   1
   6 -14   4    1361     600   1
   7 -14   4     962     477   1
   8 -14   4   -1200    1200   1
   9 -14   4    2331     789   1
 -15 -13   4     859     420   1
 -14 -13   4     581     333   1
 -13 -13   4    1166     329   1
 -12 -13   4     349     335   1
 -11 -13   4    1543     390   1
 -10 -13   4    7261     746   1
  -9 -13   4    5151     580   1
  -8 -13   4   -2023    2023   1
  -7 -13   4     894     703   1
  -6 -13   4    2679     607   1
  -5 -13   4   10045    1343   1
  -4 -13   4   14554    2331   1
   3  -4  13    1297     929  -2
  -3 -13   4    1297     929   1
  -2 -13   4    5915     769   1
  -1 -13   4    3418     693   1
   0 -13   4     605     879   1
   1 -13   4    5667     674   1
   2 -13   4    8043     636   1
   3 -13   4    -391     738   1
   4 -13   4     -35     623   1
   5 -13   4     298     650   1
   6 -13   4    3564     775   1
   7 -13   4     741     441   1
   8 -13   4     690     431   1
   9 -13   4     994     960   1
  10 -13   4     891     823   1
 -15 -12   4     924     517   1
 -14 -12   4    7726     811   1
 -13 -12   4    -194     301   1
 -12 -12   4      51     407   1
 -11 -12   4    1128     559   1
 -10 -12   4      44     431   1
  -9 -12   4    1257     398   1
  -8 -12   4    1543    1474   1
  -7 -12   4    8149    1018   1
  -6 -12   4    -194    1128   1
  -5 -12   4    1601    2777   1
  -4 -12   4    4370     942   1
   3  -4  12    5430    1577  -2
  -3 -12   4    5430    1577   1
   2  -4  12   10669    1007  -2
  -2 -12   4   10669    1007   1
  -1 -12   4     999     738   1
   0 -12   4    4038     602   1
   1 -12   4    4480     615   1
   2 -12   4   32502    1529   1
   3 -12   4    2674     605   1
   4 -12   4     459     752   1
   5 -12   4    6335     679   1
   6 -12   4    3636     659   1
   7 -12   4    2456     624   1
   8 -12   4   29557    4474   1
   9 -12   4    2169     823   1
  10 -12   4    -583    1371   1
  11 -12   4     686     789   1
 -16 -11   4     -29     375   1
 -15 -11   4    -331     491   1
 -14 -11   4    6973     881   1
 -13 -11   4    3560     495   1
 -12 -11   4    5347     915   1
 -11 -11   4    1216     305   1
 -10 -11   4     936     435   1
  -9 -11   4    -396     396   1
  -8 -11   4     123     406   1
  -7 -11   4     549    1885   1
  -6 -11   4     244     581   1
  -5 -11   4    1792    2383   1
  -4 -11   4   13687    1786   1
  -3 -11   4    6298    1834   1
   2  -4  11   11710    1846  -2
  -2 -11   4   11710    1846   1
  -1 -11   4   15991    1237   1
   0 -11   4    1165     480   1
   1 -11   4    8339     677   1
   2 -11   4     553     403   1
   3 -11   4    1689     388   1
   4 -11   4    8401     656   1
   5 -11   4      69     511   1
   6 -11   4    7465     673   1
   7 -11   4    2372     632   1
   8 -11   4    1064     527   1
   9 -11   4    4330     612   1
  10 -11   4      34    1097   1
  11 -11   4   -1303    1303   1
  12 -11   4    -651     651   1
 -16 -10   4      -1     531   1
 -15 -10   4     750     720   1
 -14 -10   4     868     379   1
 -13 -10   4    3822     521   1
 -12 -10   4    4357     628   1
 -11 -10   4     849     321   1
 -10 -10   4    7159    1011   1
  -9 -10   4    2218     517   1
  -8 -10   4     -15     406   1
  -7 -10   4     689     516   1
  -6 -10   4   17049    1725   1
  -5 -10   4   21768    3839   1
  -3 -10   4   13712    3360   1
   2  -4  10     864    1030  -2
  -2 -10   4     864    1030   1
  -1 -10   4     810     678   1
   0 -10   4    3125     911   1
   1 -10   4    -198     452   1
   2 -10   4    1006     515   1
   3 -10   4     -30     336   1
   4 -10   4    6424     559   1
   5 -10   4     514     548   1
   6 -10   4     530     396   1
   7 -10   4    4192     776   1
   8 -10   4    -227     668   1
   9 -10   4    1704     540   1
  10 -10   4   -1303    1303   1
  11 -10   4    2855     773   1
  12 -10   4     -69     891   1
  13 -10   4     789     583   1
 -16  -9   4    -393     393   1
 -15  -9   4     173     576   1
 -14  -9   4     303     315   1
 -13  -9   4     357     447   1
 -12  -9   4    1176     614   1
 -11  -9   4   20725    1737   1
 -10  -9   4     669     611   1
  -9  -9   4    4793     460   1
  -8  -9   4    5901     667   1
  -7  -9   4     217     727   1
  -6  -9   4    1356     722   1
  -5  -9   4   15475    3102   1
  -3  -9   4    6390    1663   1
   2  -4   9    1933    1268  -2
  -2  -9   4    1933    1268   1
   1  -4   9   17092    1829  -2
  -1  -9   4   17092    1829   1
   0  -9   4    3835    1149   1
   1  -9   4    3268    1554   1
   2  -9   4    3916     586   1
   3  -9   4    2712     365   1
   4  -9   4   12860     736   1
   5  -9   4    6602     504   1
   6  -9   4     325     327   1
   7  -9   4    4625     625   1
   8  -9   4    3577     797   1
   9  -9   4    2608     619   1
  10  -9   4     173     741   1
  11  -9   4    3195     993   1
  12  -9   4    1234    1097   1
  13  -9   4    1851     926   1
 -16  -8   4    1187     436   1
 -15  -8   4    3021    1131   1
 -14  -8   4     350     465   1
 -13  -8   4     999     448   1
 -12  -8   4    3696     522   1
 -11  -8   4    7019    1031   1
 -10  -8   4     889     326   1
  -9  -8   4    8023     562   1
  -8  -8   4   11745     905   1
  -7  -8   4    5007     458   1
  -6  -8   4    4411     937   1
  -5  -8   4   12817    1382   1
  -4  -8   4   23974    2508   1
  -3  -8   4    5436    1328   1
  -2  -8   4    8686    1716   1
   1  -4   8   62504    4753  -2
  -1  -8   4   62504    4753   1
   0  -8   4   13500    1649   1
   1  -8   4    2060     893   1
   2  -8   4    4026    1043   1
   3  -8   4    -512    1183   1
   4  -8   4   16663     924   1
   5  -8   4    2428     382   1
   6  -8   4   19461     988   1
   7  -8   4    2399     543   1
   8  -8   4     226     761   1
   9  -8   4    1484     464   1
  10  -8   4    1401     706   1
  11  -8   4    1777     814   1
  12  -8   4    2620     823   1
  13  -8   4    1668     667   1
 -16  -7   4    -207     384   1
 -15  -7   4     -14     478   1
 -14  -7   4     561     447   1
 -13  -7   4    8472    1179   1
 -12  -7   4    3069     478   1
 -11  -7   4    9806     659   1
 -10  -7   4    2868     365   1
  -9  -7   4     740     270   1
  -8  -7   4    8276     569   1
  -7  -7   4    3071     995   1
  -6  -7   4    4516     831   1
  -5  -7   4    5578    1072   1
  -4  -7   4   11297    1055   1
  -3  -7   4   17819    1626   1
  -2  -7   4   18291    2035   1
   1  -4   7    7071    1185  -2
  -1  -7   4    7071    1185   1
   0  -7   4   12892    1539   1
   1  -7   4    9966    1467   1
   2  -7   4   26325    2093   1
   3  -7   4    6379     958   1
   4  -7   4     566     653   1
   5  -7   4   18593     905   1
   6  -7   4     -24     464   1
   7  -7   4   12393     961   1
   8  -7   4    2669     530   1
   9  -7   4      78     422   1
  10  -7   4    1118     841   1
  11  -7   4     963     771   1
  12  -7   4    -380     771   1
  13  -7   4     436     745   1
  14  -7   4    1020    1200   1
 -16  -6   4    1414     463   1
 -15  -6   4    1846     576   1
 -14  -6   4    5910    1385   1
 -13  -6   4    2926     569   1
 -12  -6   4    7570     813   1
 -11  -6   4     695     352   1
 -10  -6   4     917     469   1
  -9  -6   4     -42     364   1
  -8  -6   4    1632     335   1
  -7  -6   4    -705     745   1
  -6  -6   4   20378    1830   1
  -5  -6   4    3723     791   1
  -4  -6   4    2874     585   1
  -3  -6   4    4512     672   1
  -2  -6   4   87045    4204   1
   1  -4   6   11229     863  -2
  -1  -6   4   11229     863   1
   0  -4   6   25848    1713  -2
   0  -6   4   25848    1713   1
   1  -6   4  158589    7986   1
   2  -6   4   17818    1580   1
   3  -6   4    2317     818   1
   4  -6   4     631     699   1
   5  -6   4   13925    1302   1
   6  -6   4   21258     919   1
   7  -6   4   62009    2823   1
   8  -6   4    -483     520   1
   9  -6   4     577     402   1
  10  -6   4    2308     738   1
  11  -6   4    2931     651   1
  12  -6   4    -537     741   1
  13  -6   4     270    1009   1
  14  -6   4    2003     840   1
  15  -6   4    2057     720   1
 -16  -5   4      74     463   1
 -15  -5   4     539    1217   1
 -14  -5   4    1255     427   1
 -13  -5   4      49     401   1
 -12  -5   4     673     384   1
 -11  -5   4    2457     382   1
 -10  -5   4     829     259   1
  -9  -5   4    5900     461   1
  -8  -5   4   13163     817   1
  -7  -5   4   24939    2179   1
  -6  -5   4    3172     772   1
  -5  -5   4   38411    2253   1
  -4  -5   4    2769     612   1
  -3  -5   4    8926     718   1
  -2  -5   4    8575    1028   1
   1  -4   5    -604     665  -2
  -1  -5   4    -604     665   1
   0  -4   5   45497    2205  -2
   0  -5   4   45497    2205   1
   1  -5   4   22123    1205   1
   2  -5   4  115396    5094   1
   3  -5   4   27559    1570   1
   4  -5   4    1031     364   1
   5  -5   4    7936     766   1
   6  -5   4    6095     482   1
   7  -5   4    6628     649   1
   8  -5   4     319     334   1
   9  -5   4   18047    1131   1
  10  -5   4   34959    2241   1
  11  -5   4     733     588   1
  12  -5   4     416     564   1
  13  -5   4     524     517   1
  14  -5   4    1166     926   1
  15  -5   4     240     789   1
  16  -5   4     617     583   1
 -16  -4   4     960     720   1
 -15  -4   4    -289     462   1
 -14  -4   4    1777     448   1
 -13  -4   4    1744     359   1
 -12  -4   4     205     411   1
 -11  -4   4    1428     378   1
 -10  -4   4     776     263   1
  -9  -4   4    9035     553   1
  -8  -4   4     207     258   1
  -7  -4   4    7660    1054   1
  -6  -4   4    7048    1038   1
  -5  -4   4   34171    2285   1
  -4  -4   4   13128     843   1
  -3  -4   4   33525    1642   1
  -2  -4   4   17265    1036   1
  -1  -4   4    5271     586   1
   0  -4   4  538152   22924  -2
   0  -4   4  538152   22924   1
   1  -4   4   14407     831   1
   2  -4   4   34772    1454   1
   3  -4   4    4134    1079   1
   4  -4   4     847     365   1
   5  -4   4    1606     327   1
   6  -4   4    9482    2050   1
   7  -4   4   12599    3120   1
   8  -4   4    1426     363   1
   9  -4   4     -91     420   1
  10  -4   4    3285     646   1
  11  -4   4    -434     434   1
  12  -4   4    5361     723   1
  13  -4   4    5992     761   1
  14  -4   4     130     616   1
  15  -4   4     446     823   1
  16  -4   4      34     754   1
 -16  -3   4     137     720   1
 -15  -3   4     851     345   1
 -14  -3   4     573     386   1
 -13  -3   4    1041     757   1
 -12  -3   4    2040     417   1
 -11  -3   4     321     368   1
 -10  -3   4   12426     730   1
  -9  -3   4    1249     231   1
  -8  -3   4      97     338   1
  -7  -3   4     583     782   1
  -6  -3   4   10828    1196   1
  -5  -3   4   26188    2075   1
  -4  -3   4    1889     660   1
  -3  -3   4    2883     735   1
  -2  -3   4   79474    3373   1
  -1  -3   4    9296     713   1
   0  -4   3  985246   41811  -2
   0  -3   4  985246   41811   1
  -1  -4   3   20650    1108  -2
   1  -3   4   20650    1108   1
   2  -3   4    3210     391   1
   3  -3   4   17018     963   1
   4  -3   4   71966    2845   1
   5  -3   4   18870     795   1
   6  -3   4     917    1323   1
   7  -3   4    7591    1877   1
   8  -3   4    -391     690   1
   9  -3   4    2687     394   1
  10  -3   4    6890    1022   1
  11  -3   4   12955     913   1
  12  -3   4     769     470   1
  13  -3   4     542     536   1
  14  -3   4     434     557   1
  15  -3   4    -112     502   1
  16  -3   4    1371     823   1
 -16  -2   4     343     686   1
 -15  -2   4     499     357   1
 -14  -2   4    1744    1049   1
 -13  -2   4     711     447   1
 -12  -2   4     308     449   1
 -11  -2   4    -392     400   1
 -10  -2   4    2185     323   1
  -9  -2   4   10209     557   1
  -8  -2   4    3973     343   1
  -7  -2   4    6808     882   1
  -6  -2   4    3516     861   1
  -5  -2   4    2365     650   1
  -4  -2   4    1019     475   1
  -3  -2   4    7932    1007   1
  -2  -2   4   10867     771   1
  -1  -2   4    9412     637   1
   0  -4   2  281957   13518  -2
   0  -2   4  281957   13518   1
  -1  -4   2   39403    1849  -2
   1  -2   4   39403    1849   1
   2  -2   4   40071    1676   1
   3  -2   4   27191    1203   1
   4  -2   4     678     209   1
   5  -2   4   18448    1617   1
   6  -2   4   30729    2305   1
   7  -2   4   15639    1439   1
   8  -2   4    2338    1053   1
   9  -2   4     621     478   1
  10  -2   4    6450     499   1
  11  -2   4    1211     470   1
  12  -2   4    5173     497   1
  13  -2   4    7235     783   1
  14  -2   4    6292     894   1
  15  -2   4    1594    1148   1
  16  -2   4    -486     486   1
  17  -2   4    2228     789   1
 -16  -1   4    1851     686   1
 -15  -1   4     675     566   1
 -14  -1   4     974     355   1
 -13  -1   4    6021     941   1
 -12  -1   4    3536     398   1
 -11  -1   4    2400     374   1
 -10  -1   4   20363    1026   1
  -9  -1   4     -43     183   1
  -8  -1   4     586     333   1
  -7  -1   4   11737    1173   1
  -6  -1   4   10226    1127   1
  -5  -1   4   13084    1121   1
  -4  -1   4   11458     879   1
  -3  -1   4     577     394   1
  -2  -1   4   11897     954   1
  -1  -1   4   31266    1448   1
   0  -1   4  129733    5528   1
  -1  -4   1   18374    1133  -2
   1  -1   4   18374    1133   1
   2  -1   4   10135     621   1
   3  -1   4  164822    6201   1
   4  -1   4    4607    1291   1
   5  -1   4   14553    2118   1
   6  -1   4    5924    1596   1
   7  -1   4   25042    2009   1
   8  -1   4    4619     875   1
   9  -1   4    1645     525   1
  10  -1   4    1235     338   1
  11  -1   4   11065     767   1
  12  -1   4    3708     443   1
  13  -1   4       9     395   1
  14  -1   4    -320     432   1
  15  -1   4     685     538   1
  16  -1   4    1531     666   1
  17  -1   4    4318     727   1
 -16   0   4     549     514   1
 -15   0   4     902     591   1
 -14   0   4     881     594   1
 -13   0   4   11893     903   1
 -12   0   4    4578     607   1
 -11   0   4    1940     368   1
 -10   0   4    3110     383   1
  -9   0   4   14950     789   1
  -8   0   4     418     209   1
  -7   0   4   22870    1824   1
  -6   0   4    1498     721   1
  -5   0   4   37140    2656   1
  -4   0   4    8634     832   1
  -3   0   4   16643    1056   1
  -2   0   4   12065     700   1
  -1   0   4   66784    2838   1
   0   0   4  369827   15094   1
  -1  -4   0  290825   12265  -2
   1   0   4  290825   12265   1
  -2  -4   0   12766     800  -2
   2   0   4   12766     800   1
   3   0   4   10865     730   1
   4   0   4    3682     301   1
   5   0   4     795     675   1
   6   0   4   32570    3018   1
   7   0   4   13554    1300   1
   8   0   4    2598     771   1
   9   0   4    4883    1761   1
  10   0   4    1671     345   1
  11   0   4    6528     503   1
  12   0   4    9004     838   1
  13   0   4   25036    1465   1
  14   0   4     574     471   1
  15   0   4     408     499   1
  16   0   4     457    1354   1
  17   0   4    1133     519   1
 -15   1   4     170     486   1
 -14   1   4      10     351   1
 -13   1   4     430     399   1
 -12   1   4     229     353   1
 -11   1   4    2488     387   1
 -10   1   4    6946     747   1
  -9   1   4   25537    1195   1
  -8   1   4   24286    1062   1
  -7   1   4    -317     654   1
  -6   1   4    6479     908   1
  -5   1   4     624     710   1
  -4   1   4    1159     538   1
  -3   1   4   19297    1109   1
  -2   1   4    4170     564   1
  -1   1   4   95205    3971   1
   0   1   4  159726    7759   1
  -1  -4  -1   40880    1884  -2
   1   1   4   40880    1884   1
  -2  -4  -1   23942    1138  -2
   2   1   4   23942    1138   1
  -3  -4  -1     940     274  -2
   3   1   4     940     274   1
   4   1   4   14987     675   1
   5   1   4   25941    2018   1
   6   1   4  112933    7602   1
   7   1   4   16526    1969   1
   8   1   4    1827     766   1
   9   1   4    2634     940   1
  10   1   4   17848     987   1
  11   1   4    9585     643   1
  12   1   4     783     312   1
  13   1   4    2313     659   1
  14   1   4    2006     455   1
  15   1   4     -74     831   1
  16   1   4     836     449   1
  17   1   4    2321     657   1
  18   1   4    1257     444   1
 -15   2   4     530     425   1
 -14   2   4    3625     560   1
 -13   2   4     731     381   1
 -12   2   4    9866     847   1
 -11   2   4    1530     381   1
 -10   2   4    1414     569   1
  -9   2   4    1939     343   1
  -8   2   4    1857     259   1
  -7   2   4     -63     249   1
  -6   2   4   12614    1270   1
  -5   2   4   21662    1713   1
  -4   2   4    2463     672   1
  -3   2   4   54020    2502   1
  -2   2   4   18374    1772   1
  -1   2   4   17601    1014   1
   0  -4  -2  280293   12652  -2
   0   2   4  280293   12652   1
  -1  -4  -2   49467    2280  -2
   1   2   4   49467    2280   1
  -2  -4  -2   41229    2034  -2
   2   2   4   41229    2034   1
  -3  -4  -2   87937    3447  -2
   3   2   4   87937    3447   1
  -4  -4  -2   50968    2050  -2
   4   2   4   50968    2050   1
   5   2   4   16231    1393   1
   6   2   4   65755    3247   1
   7   2   4    3852     819   1
   8   2   4   10712    1298   1
   9   2   4    -803     803   1
  10   2   4    5315     454   1
  11   2   4   12757     834   1
  12   2   4    3856     453   1
  13   2   4   36330    1998   1
  14   2   4    -107     391   1
  15   2   4    5750     740   1
  16   2   4     115     542   1
  17   2   4     173     651   1
  18   2   4    1009     469   1
 -15   3   4    -206     651   1
 -14   3   4     700     576   1
 -13   3   4    -367     417   1
 -12   3   4    1619     444   1
 -11   3   4    2899     472   1
 -10   3   4   10151     756   1
  -9   3   4    1385     360   1
  -8   3   4     253     303   1
  -7   3   4    4662     416   1
  -6   3   4    5581     843   1
  -5   3   4    1597     802   1
  -4   3   4   13549    1163   1
  -3   3   4    3612     831   1
  -2   3   4    6910    1309   1
  -1   3   4   25626    1432   1
   0  -4  -3  929122   44328  -2
   0   3   4  929122   44328   1
  -1  -4  -3   15942    1008  -2
   1   3   4   15942    1008   1
  -2  -4  -3   43811    2013  -2
   2   3   4   43811    2013   1
  -3  -4  -3   77944    3998  -2
   3   3   4   77944    3998   1
  -4  -4  -3    5773     455  -2
   4   3   4    5773     455   1
  -5  -4  -3   56828    2438  -2
   5   3   4   56828    2438   1
   6   3   4   23897    1509   1
   7   3   4     309     199   1
   8   3   4   23755    2739   1
   9   3   4   15992    2133   1
  10   3   4   15152     857   1
  11   3   4     222     257   1
  12   3   4     383     180   1
  13   3   4     123     437   1
  14   3   4    1397     489   1
  15   3   4     600     713   1
  16   3   4    -197     509   1
  17   3   4      26     453   1
  18   3   4     422     720   1
 -14   4   4     802     456   1
 -13   4   4     -16     626   1
 -12   4   4    1557     591   1
 -11   4   4     809     452   1
 -10   4   4     907     600   1
  -9   4   4    3976     617   1
  -8   4   4   17108     958   1
  -7   4   4    -227     227   1
  -6   4   4     691     321   1
  -5   4   4    7721    1105   1
  -4   4   4   36309    3732   1
  -3   4   4    4200     850   1
  -2   4   4  127649    5549   1
  -1   4   4   10550     803   1
   0  -4  -4  491783   25174  -2
   0   4   4  491783   25174   1
  -1  -4  -4   63121    3042  -2
   1   4   4   63121    3042   1
  -2  -4  -4    1234     488  -2
   2   4   4    1234     488   1
  -3  -4  -4   37997    1695  -2
   3   4   4   37997    1695   1
  -4  -4  -4   14777     854  -2
   4   4   4   14777     854   1
  -5  -4  -4    6762     501  -2
   5   4   4    6762     501   1
   6   4   4   47426    2274   1
   7   4   4   16423    1014   1
   8   4   4    5240     410   1
   9   4   4    2446    2657   1
  10   4   4   15935     873   1
  11   4   4     189     254   1
  12   4   4    2806     314   1
  13   4   4    1328     258   1
  14   4   4   12709    1077   1
  15   4   4     834     493   1
  16   4   4    1425     485   1
  17   4   4     194     453   1
  18   4   4    1767     517   1
 -14   5   4    1337     686   1
 -13   5   4     305     503   1
 -12   5   4     524     497   1
 -11   5   4     706     803   1
 -10   5   4    5367     555   1
  -9   5   4    1568     442   1
  -8   5   4   62954    2652   1
  -7   5   4    2520     353   1
  -6   5   4   22966    1055   1
  -5   5   4    4421     622   1
  -4   5   4    4073     923   1
  -3   5   4    2613    1154   1
  -2   5   4   38438    2388   1
  -1   5   4   35055    1727   1
   0  -4  -5   45715    3188  -2
   0   5   4   45715    3188   1
  -1  -4  -5    9912     718  -2
   1   5   4    9912     718   1
  -2  -4  -5    3127     544  -2
   2   5   4    3127     544   1
  -3  -4  -5   14938     933  -2
   3   5   4   14938     933   1
  -4  -4  -5   10091     673  -2
   4   5   4   10091     673   1
  -5  -4  -5   28296    1917  -2
   5   5   4   28296    1917   1
   6   5   4    2370     387   1
   7   5   4    3037     424   1
   8   5   4     715     409   1
   9   5   4    3286     392   1
  10   5   4    7260     411   1
  11   5   4    5315     415   1
  12   5   4    -181     284   1
  13   5   4     340     407   1
  14   5   4    1172     496   1
  15   5   4     505     413   1
  16   5   4     647     455   1
  17   5   4     521     516   1
  18   5   4     642     455   1
 -13   6   4     411     789   1
 -12   6   4     350     620   1
 -11   6   4     955     536   1
 -10   6   4    -494     494   1
  -9   6   4     642     454   1
  -8   6   4    3269     515   1
  -7   6   4    1563     423   1
  -6   6   4    2427     370   1
  -5   6   4    3638     415   1
  -4   6   4   19681    1934   1
  -3   6   4    8612    1219   1
  -2   6   4     481     833   1
  -1   6   4   59307    3420   1
   0   6   4   22241    1172   1
  -1  -4  -6    3691     580  -2
   1   6   4    3691     580   1
  -2  -4  -6   27868    1386  -2
   2   6   4   27868    1386   1
  -3  -4  -6   35885    1673  -2
   3   6   4   35885    1673   1
  -4  -4  -6   16243    1295  -2
   4   6   4   16243    1295   1
  -5  -4  -6      94     555  -2
   5   6   4      94     555   1
   6   6   4   44184    2557   1
   7   6   4    3661     806   1
   8   6   4     403     517   1
   9   6   4   59179    3963   1
  10   6   4    3034     321   1
  11   6   4    1648     540   1
  12   6   4    6554     496   1
  13   6   4    6522     511   1
  14   6   4    4228     612   1
  15   6   4    1475     509   1
  16   6   4    -497     497   1
  17   6   4     893     432   1
  18   6   4     514     583   1
 -13   7   4     411     651   1
 -12   7   4     553     411   1
 -11   7   4    7401    1100   1
 -10   7   4    -454     576   1
  -9   7   4      24     338   1
  -8   7   4    1020     485   1
  -7   7   4    1987     732   1
  -6   7   4    4432     437   1
  -5   7   4    4033     539   1
  -4   7   4    2596     395   1
  -3   7   4   17442    1809   1
  -2   7   4    4340    1029   1
  -1   7   4   16632    1421   1
   0   7   4    8190    1156   1
  -1  -4  -7   37712    1878  -2
   1   7   4   37712    1878   1
  -2  -4  -7    8057     809  -2
   2   7   4    8057     809   1
  -3  -4  -7   61511    2794  -2
   3   7   4   61511    2794   1
  -4  -4  -7    2760     674  -2
   4   7   4    2760     674   1
  -5  -4  -7   48580    4135  -2
   5   7   4   48580    4135   1
  -6  -4  -7    6359    1103  -2
   6   7   4    6359    1103   1
   7   7   4    3930     694   1
   8   7   4    1679     653   1
   9   7   4   33136    1698   1
  10   7   4   13946     667   1
  11   7   4    9644     545   1
  12   7   4     712     367   1
  13   7   4    1004     560   1
  14   7   4     726     335   1
  15   7   4    2611     338   1
  16   7   4    1981     796   1
  17   7   4     534     483   1
  18   7   4     686     617   1
 -12   8   4     137     720   1
 -11   8   4      45     501   1
 -10   8   4     971     534   1
  -9   8   4   11379    1068   1
  -8   8   4     -97     813   1
  -7   8   4    6121     758   1
  -6   8   4     977     377   1
  -5   8   4   39771    2142   1
  -4   8   4     672     390   1
  -3   8   4   28706    2284   1
  -2   8   4    7688    1242   1
  -1   8   4    8814    1625   1
   0   8   4   15056    1494   1
   1   8   4   34308    1838   1
  -2  -4  -8    7352     899  -2
   2   8   4    7352     899   1
  -3  -4  -8   16316    1566  -2
   3   8   4   16316    1566   1
  -4  -4  -8    7639     919  -2
   4   8   4    7639     919   1
  -5  -4  -8   22746    2372  -2
   5   8   4   22746    2372   1
   6   8   4    9804    1135   1
   7   8   4   20447    1642   1
   8   8   4    3550     773   1
   9   8   4    1538     327   1
  10   8   4    7392     532   1
  11   8   4    2324     305   1
  12   8   4     310     246   1
  13   8   4  131005    7365   1
  14   8   4    -132     349   1
  15   8   4    2804     445   1
  16   8   4     912     840   1
  17   8   4    -478     478   1
  18   8   4    -268     404   1
 -12   9   4     309     583   1
 -11   9   4    -233    1320   1
 -10   9   4    4327     609   1
  -9   9   4     -94     669   1
  -8   9   4     643     486   1
  -7   9   4    2144     536   1
  -6   9   4    6069     719   1
  -5   9   4    2092     399   1
  -4   9   4     482     348   1
  -3   9   4    5740     504   1
  -2   9   4     647     509   1
  -1   9   4    3069    1015   1
   0   9   4    -367     797   1
   1   9   4   14256    1531   1
   2   9   4    3635     704   1
  -3  -4  -9    9817    1480  -2
   3   9   4    9817    1480   1
  -4  -4  -9    8771    1065  -2
   4   9   4    8771    1065   1
  -5  -4  -9   50625    3946  -2
   5   9   4   50625    3946   1
   6   9   4    7362    1058   1
   7   9   4    6358    1111   1
   8   9   4    1516     316   1
   9   9   4    2726     288   1
  10   9   4    6952     471   1
  11   9   4   13891     737   1
  12   9   4    -116     258   1
  13   9   4    1717     761   1
  14   9   4     829     380   1
  15   9   4    2753     397   1
  16   9   4     209     527   1
  17   9   4    5192    1920   1
  18   9   4    5394     758   1
 -11  10   4     926     583   1
 -10  10   4    -440     440   1
  -9  10   4    1010    1103   1
  -8  10   4    1099     465   1
  -7  10   4    3339     592   1
  -6  10   4     210     604   1
  -5  10   4    -169     518   1
  -4  10   4    5671     618   1
  -3  10   4   11633     834   1
  -2  10   4    4211     571   1
  -1  10   4    3694     867   1
   0  10   4   12075    1381   1
   1  10   4    1872     842   1
  -3  -4 -10    6921    2503  -2
   3  10   4    6921    2503   1
  -4  -4 -10   17383    1695  -2
   4  10   4   17383    1695   1
  -5  -4 -10    5408     975  -2
   5  10   4    5408     975   1
   6  10   4    3149     895   1
   7  10   4   19752    1157   1
   8  10   4   10470     619   1
   9  10   4    2480     379   1
  10  10   4    1120     326   1
  11  10   4    4462     502   1
  12  10   4   45612    2235   1
  13  10   4    1485     353   1
  14  10   4    4197     550   1
  15  10   4    3268     555   1
  16  10   4      94     617   1
  17  10   4     204     960   1
  18  10   4     488    1320   1
 -10  11   4     164     287   1
  -9  11   4    -185     488   1
  -8  11   4    1655     697   1
  -7  11   4     790     571   1
  -6  11   4     171     515   1
  -5  11   4      31     564   1
  -4  11   4    1353     713   1
  -3  11   4    7847     726   1
  -2  11   4   15281    1172   1
  -1  11   4   19339    1394   1
   0  11   4     718     521   1
   1  11   4    2468     908   1
  -4  -4 -11    7726    1594  -2
   4  11   4    7726    1594   1
  -5  -4 -11   10175    1043  -2
   5  11   4   10175    1043   1
  -6  -4 -11    1311     332  -2
   6  11   4    1311     332   1
   7  11   4   12507     816   1
   8  11   4     984     284   1
   9  11   4    1881     420   1
  10  11   4    1572     613   1
  11  11   4    2317     432   1
  12  11   4    -133     362   1
  13  11   4     151     299   1
  14  11   4    -392     392   1
  15  11   4     546     471   1
  16  11   4    -189     336   1
  17  11   4    2254     533   1
  18  11   4     563     361   1
  -9  12   4     -41     333   1
  -8  12   4     870     552   1
  -7  12   4     240     584   1
  -6  12   4     -18     494   1
  -5  12   4    2311     817   1
  -4  12   4      93     391   1
  -3  12   4    1183     526   1
  -2  12   4     464     852   1
  -1  12   4    3249     583   1
   0  12   4    9212     932   1
   1  12   4    4868     926   1
   2  12   4    9153    1508   1
  -4  -4 -12    2468     583  -2
   4  12   4    2468     583   1
  -5  -4 -12   10216    1474  -2
   5  12   4   10216    1474   1
  -6  -4 -12    1814     505  -2
   6  12   4    1814     505   1
   7  12   4    1724     578   1
   8  12   4    9300     651   1
   9  12   4   10195    1025   1
  10  12   4   10339     809   1
  11  12   4    3110     682   1
  12  12   4     -82     423   1
  13  12   4     -67     358   1
  14  12   4    1293     476   1
  15  12   4    -291     439   1
  16  12   4    4818     715   1
  17  12   4    -524     524   1
  18  12   4    2811     754   1
  -8  13   4    2444     593   1
  -7  13   4     963     558   1
  -6  13   4    2020     728   1
  -5  13   4    -678     678   1
  -4  13   4     -25     613   1
  -3  13   4     340     461   1
  -2  13   4     888     520   1
  -1  13   4    -566     566   1
   0  13   4      80     736   1
   1  13   4   14878    2125   1
   2  13   4    5691    1200   1
   3  13   4   11004    1646   1
  -4  -4 -13     583     686  -2
   4  13   4     583     686   1
  -5  -4 -13    1577     549  -2
   5  13   4    1577     549   1
  -6  -4 -13   14364    1920  -2
   6  13   4   14364    1920   1
   7  13   4     751     346   1
   8  13   4   14092    1373   1
   9  13   4   11916     795   1
  10  13   4   11648     990   1
  11  13   4    1225     678   1
  12  13   4     659     433   1
  13  13   4    -179     450   1
  14  13   4    1081     303   1
  15  13   4     262     480   1
  16  13   4     471     720   1
  17  13   4     994     720   1
  -8  14   4    -137     274   1
  -7  14   4    -256     436   1
  -6  14   4     666     691   1
  -5  14   4     376     592   1
  -4  14   4    1978     626   1
  -3  14   4     520     279   1
  -2  14   4    2788     497   1
  -1  14   4     236     650   1
   0  14   4    1598     708   1
   1  14   4     857     960   1
   2  14   4   10833    1748   1
   3  14   4    7028    1406   1
   4  14   4    1748     583   1
  -5  -4 -14    9290    1474  -2
   5  14   4    9290    1474   1
  -6  -4 -14    9039     994  -2
   6  14   4    9039     994   1
   7  14   4   10436     916   1
   8  14   4     154     636   1
   9  14   4   11626    1896   1
  10  14   4    3685    1064   1
  11  14   4   25717    1403   1
  12  14   4    3199     495   1
  13  14   4    -248     338   1
  14  14   4    1048     683   1
  15  14   4     320     431   1
  16  14   4      39     429   1
  17  14   4    -309     583   1
  -6  15   4     775     518   1
  -5  15   4     854     437   1
  -4  15   4     388     754   1
  -3  15   4    4788     751   1
  -2  15   4     410     397   1
  -1  15   4    2706     592   1
   0  15   4     704     740   1
   1  15   4    1411     627   1
   2  15   4    3394    1097   1
   3  15   4   13884    1920   1
   4  15   4    3972    1046   1
  -5  -4 -15    7268    1234  -2
   5  15   4    7268    1234   1
  -6  -4 -15    4765     857  -2
   6  15   4    4765     857   1
   7  15   4    2565     615   1
   8  15   4    4856    1352   1
   9  15   4    1270     560   1
  10  15   4    4642     869   1
  11  15   4    6110    1319   1
  12  15   4    -362     545   1
  13  15   4     941     474   1
  14  15   4     754     509   1
  15  15   4    1151     703   1
  16  15   4     812     463   1
  -5  16   4    1788     538   1
  -4  16   4     207     427   1
  -3  16   4      28     454   1
  -2  16   4    3881     802   1
  -1  16   4     429     400   1
   0  16   4    1985     573   1
   1  16   4    1016     781   1
   2  16   4     866     650   1
   3  16   4    3805     912   1
   4  16   4    1702     658   1
   5  16   4    9472    1611   1
  -6  -4 -16    3531     926  -2
   6  16   4    3531     926   1
  -7  -4 -16   19026    2400  -2
   7  16   4   19026    2400   1
   8  16   4    8317    1029   1
   9  16   4    3373     977   1
  10  16   4      34     669   1
  11  16   4    9151     958   1
  12  16   4     229     445   1
  13  16   4    5288     770   1
  14  16   4    4015     621   1
  15  16   4    1046     686   1
  16  16   4     178     634   1
  -4  17   4     930     434   1
  -3  17   4     135     727   1
  -2  17   4     260     543   1
  -1  17   4    1322     639   1
   0  17   4     313     406   1
   1  17   4      27     855   1
   2  17   4    4287     632   1
   3  17   4     960     926   1
   4  17   4   10465    2417   1
   5  17   4    2218     683   1
  -6  -4 -17    3017     891  -2
   6  17   4    3017     891   1
  -7  -4 -17     583     754  -2
   7  17   4     583     754   1
   8  17   4    1679     651   1
   9  17   4    3186     585   1
  10  17   4     960     446   1
  11  17   4    2440     574   1
  12  17   4     652     703   1
  13  17   4    -445     445   1
  14  17   4     507     450   1
  15  17   4     -74     329   1
  -2  18   4    -182     625   1
  -1  18   4     466     558   1
   0  18   4     533     647   1
   1  18   4    -116     617   1
   2  18   4    1358    1371   1
   3  18   4    2228     857   1
   4  18   4   15362    1478   1
   5  18   4    2627    1731   1
  -6  -4 -18    1599     503  -2
   6  18   4    1599     503   1
  -7  -4 -18    6239    1097  -2
   7  18   4    6239    1097   1
   8  18   4    1794    1166   1
   9  18   4    8709    1903   1
  10  18   4    6642     847   1
  11  18   4    2666    1063   1
  12  18   4     111     778   1
  13  18   4    4452     481   1
  14  18   4     194     361   1
  -1  19   4     137     514   1
   0  19   4    -549     549   1
   1  19   4     926    1063   1
   2  19   4     134     246   1
   3  19   4     701     731   1
   4  19   4    6342     994   1
   5  19   4    -233     507   1
   6  19   4    1014     600   1
  -7  -4 -19    2252     908  -2
   7  19   4    2252     908   1
   8  19   4    1371     583   1
   9  19   4     815     376   1
  10  19   4    -549     908   1
  11  19   4    1603    1337   1
  12  19   4     249     346   1
  13  19   4    -149     211   1
   2  20   4       0     651   1
   3  20   4      76     473   1
   4  20   4    1475     806   1
   5  20   4     402     329   1
   6  20   4     668     651   1
  -7  -4 -20     173     393  -2
   7  20   4     173     393   1
   8  20   4     455     285   1
   9  20   4     737     388   1
  10  20   4     429     394   1
  11  20   4    -446     446   1
  -9 -19   5    -206     206   1
  -8 -19   5    -162     297   1
  -7 -19   5      23     279   1
  -6 -19   5    1162     702   1
  -5 -19   5     673     431   1
   4  -5  19     -80    2297  -2
  -4 -19   5     -80    2297   1
  -3 -19   5    1131     582   1
  -2 -19   5    -141     609   1
  -1 -19   5    1062     393   1
   0 -19   5     137     720   1
 -10 -18   5     -30     200   1
  -9 -18   5    1362     285   1
  -8 -18   5      -7     297   1
  -7 -18   5    -382     532   1
  -6 -18   5    1100     431   1
  -5 -18   5     438     619   1
   4  -5  18     274     330  -2
  -4 -18   5     274     330   1
  -3 -18   5    2240     571   1
  -2 -18   5     176     629   1
  -1 -18   5     209     628   1
   0 -18   5    1250     618   1
   1 -18   5    -242     460   1
   2 -18   5    -432     472   1
   3 -18   5     240     514   1
 -12 -17   5    2057     514   1
 -11 -17   5    1783     617   1
 -10 -17   5    1377     292   1
  -9 -17   5       0     364   1
  -8 -17   5     315     406   1
  -7 -17   5     121     275   1
  -6 -17   5     274     857   1
  -5 -17   5    1406     823   1
   4  -5  17     162     442  -2
  -4 -17   5     162     442   1
  -3 -17   5    2443     542   1
  -2 -17   5     100     696   1
  -1 -17   5    1667     761   1
   0 -17   5    4498     800   1
   1 -17   5     526     554   1
   2 -17   5    -512     825   1
   3 -17   5     477     596   1
   4 -17   5     291     436   1
   5 -17   5      69     274   1
 -13 -16   5     343     343   1
 -12 -16   5    1506     410   1
 -11 -16   5     887     290   1
 -10 -16   5    2123     476   1
  -9 -16   5     103     531   1
  -8 -16   5     366     327   1
  -7 -16   5     651     960   1
  -6 -16   5    1329     453   1
  -5 -16   5     789     960   1
  -4 -16   5    4936    1131   1
   3  -5  16     178     708  -2
  -3 -16   5     178     708   1
  -2 -16   5    4175     652   1
  -1 -16   5     -12     408   1
   0 -16   5    -242    1098   1
   1 -16   5    -370     690   1
   2 -16   5    1634     659   1
   3 -16   5    3921     811   1
   4 -16   5    1346     520   1
   5 -16   5      23     449   1
   6 -16   5     329     281   1
 -13 -15   5    6411    1131   1
 -12 -15   5    1068     478   1
 -11 -15   5      62     478   1
 -10 -15   5    1359     436   1
  -9 -15   5     452     434   1
  -8 -15   5    3417     566   1
  -7 -15   5     343     994   1
  -6 -15   5    1424     507   1
  -5 -15   5     -69     720   1
  -4 -15   5   17106    2263   1
   3  -5  15      83     697  -2
  -3 -15   5      83     697   1
  -2 -15   5    9549    1163   1
  -1 -15   5     -52     756   1
   0 -15   5    3991     534   1
   1 -15   5    1017     910   1
   2 -15   5     623     811   1
   3 -15   5    -540     540   1
   4 -15   5    2686    1053   1
   5 -15   5     198     472   1
   6 -15   5    -490     490   1
   7 -15   5    1200     720   1
   8 -15   5     720     583   1
 -14 -14   5     506     686   1
 -13 -14   5     781     467   1
 -12 -14   5     307     515   1
 -11 -14   5      81     322   1
 -10 -14   5     639     436   1
  -9 -14   5     -25     410   1
  -8 -14   5    5601    1423   1
  -6 -14   5     564     596   1
  -5 -14   5    -525     704   1
  -4 -14   5    6076    1481   1
   3  -5  14    1703    1465  -2
  -3 -14   5    1703    1465   1
  -2 -14   5     787    1406   1
  -1 -14   5     767     773   1
   0 -14   5     628     750   1
   1 -14   5   10415    1285   1
   2 -14   5    -319     757   1
   3 -14   5    1669     708   1
   4 -14   5    1038     614   1
   5 -14   5     255    1233   1
   6 -14   5    -369     602   1
   7 -14   5    -320     531   1
   8 -14   5    -651     823   1
   9 -14   5    -103     686   1
 -14 -13   5     739     408   1
 -13 -13   5    -156     376   1
 -12 -13   5   22556    2121   1
 -11 -13   5     407     353   1
 -10 -13   5    1381     414   1
  -9 -13   5    1838     651   1
  -8 -13   5     630     386   1
  -7 -13   5    1920    1543   1
  -6 -13   5    1504     993   1
  -5 -13   5    8941    1687   1
  -4 -13   5   24903    2783   1
   3  -5  13    7072    3137  -2
  -3 -13   5    7072    3137   1
   2  -5  13    5100     845  -2
  -2 -13   5    5100     845   1
  -1 -13   5    1867     619   1
   0 -13   5     319     646   1
   1 -13   5    3943     585   1
   2 -13   5    1623     549   1
   3 -13   5    1537     698   1
   4 -13   5     482     732   1
   5 -13   5    3292     547   1
   6 -13   5    2226     662   1
   7 -13   5    1437     475   1
   8 -13   5     301     300   1
   9 -13   5    1142     545   1
  10 -13   5       0     651   1
 -15 -12   5    -361     361   1
 -14 -12   5     521     364   1
 -13 -12   5     864     415   1
 -12 -12   5      67     552   1
 -11 -12   5    1266     720   1
 -10 -12   5     310     345   1
  -9 -12   5    4186     537   1
  -8 -12   5   16164    1425   1
  -7 -12   5    4662    2160   1
  -6 -12   5    1628     629   1
  -5 -12   5   12948    1504   1
  -4 -12   5     910    1954   1
  -3 -12   5   24729    3822   1
   2  -5  12    2728     660  -2
  -2 -12   5    2728     660   1
  -1 -12   5    2670     670   1
   0 -12   5    4083     611   1
   1 -12   5   14568    1083   1
   2 -12   5    2337     404   1
   3 -12   5    7796     779   1
   4 -12   5    2722     643   1
   5 -12   5    -184     496   1
   6 -12   5      19     975   1
   7 -12   5    -439     484   1
   8 -12   5    -211     455   1
   9 -12   5    2178     760   1
  10 -12   5     920     666   1
  11 -12   5     -22     457   1
 -15 -11   5    3144     606   1
 -14 -11   5     881     714   1
 -13 -11   5     246     367   1
 -12 -11   5    2053     518   1
 -11 -11   5     778     395   1
 -10 -11   5     676     786   1
  -9 -11   5    5439     892   1
  -8 -11   5     462     688   1
  -7 -11   5    8330    2365   1
  -6 -11   5     487     483   1
  -5 -11   5    -479    2194   1
  -4 -11   5     866     963   1
  -3 -11   5   10035    1383   1
   2  -5  11     562     749  -2
  -2 -11   5     562     749   1
  -1 -11   5   10254    1014   1
   0 -11   5    7336     731   1
   1 -11   5    2224     540   1
   2 -11   5     799     385   1
   3 -11   5    8362     726   1
   4 -11   5    1398     507   1
   5 -11   5    1588     659   1
   6 -11   5     118     532   1
   7 -11   5    4233     645   1
   8 -11   5    2486     572   1
   9 -11   5     797     535   1
  10 -11   5    -622     622   1
  11 -11   5    -535     535   1
  12 -11   5     -69     686   1
 -15 -10   5     527     994   1
 -14 -10   5     596     353   1
 -13 -10   5     476     623   1
 -12 -10   5     642     644   1
 -11 -10   5     466     440   1
 -10 -10   5    -502     677   1
  -9 -10   5    1760     358   1
  -8 -10   5    6585     704   1
  -7 -10   5    2520     723   1
  -6 -10   5   17442    1787   1
  -5 -10   5    4131    1480   1
  -4 -10   5    3347    1406   1
  -3 -10   5   22927    1820   1
   2  -5  10    7852    1001  -2
  -2 -10   5    7852    1001   1
   1  -5  10    5651     963  -2
  -1 -10   5    5651     963   1
   0 -10   5    1188     669   1
   1 -10   5   13338     972   1
   2 -10   5    5735     512   1
   3 -10   5   10930     640   1
   4 -10   5    6047     583   1
   5 -10   5     824     431   1
   6 -10   5    1370     368   1
   7 -10   5    1177     555   1
   8 -10   5    2246     656   1
   9 -10   5    7513     920   1
  10 -10   5    -259     920   1
  11 -10   5     577     943   1
  12 -10   5     446     960   1
 -16  -9   5     -34     274   1
 -15  -9   5    -408     602   1
 -14  -9   5     189     457   1
 -13  -9   5    4310    1817   1
 -12  -9   5    1263     533   1
 -11  -9   5    9415     749   1
 -10  -9   5    2592     565   1
  -9  -9   5     204     342   1
  -8  -9   5    8249     869   1
  -7  -9   5     139     414   1
  -6  -9   5   36012    3434   1
  -5  -9   5     568     934   1
  -4  -9   5    1770    1954   1
  -3  -9   5   15347    2753   1
  -2  -9   5    -126    1073   1
   1  -5   9   12770    1583  -2
  -1  -9   5   12770    1583   1
   0  -9   5    2059     679   1
   1  -9   5   21442    1507   1
   2  -9   5    6540     604   1
   3  -9   5    3169     369   1
   4  -9   5   12871     796   1
   5  -9   5    -179     409   1
   6  -9   5    2204     677   1
   7  -9   5   13451    1038   1
   8  -9   5   12524     937   1
   9  -9   5    4465     870   1
  10  -9   5     368     844   1
  11  -9   5    1364    1011   1
  12  -9   5     653     698   1
  13  -9   5     921     576   1
 -16  -8   5     342     368   1
 -15  -8   5    4577     672   1
 -14  -8   5     291     366   1
 -13  -8   5      22     569   1
 -12  -8   5    -311     561   1
 -11  -8   5   22450    1455   1
 -10  -8   5    1043     372   1
  -9  -8   5    7531     690   1
  -8  -8   5    2488     612   1
  -7  -8   5     665     367   1
  -6  -8   5    3004     942   1
  -5  -8   5    3574     839   1
  -4  -8   5    5717    1920   1
  -3  -8   5   24271    2578   1
  -2  -8   5    2597    1029   1
   1  -5   8      91     982  -2
  -1  -8   5      91     982   1
   0  -8   5   19231    1902   1
   1  -8   5    1560     987   1
   2  -8   5    1888     892   1
   3  -8   5   43556    2496   1
   4  -8   5   11058     651   1
   5  -8   5    2945     450   1
   6  -8   5    6056     439   1
   7  -8   5    2627     537   1
   8  -8   5   20920    1325   1
   9  -8   5    4900     833   1
  10  -8   5    3335    1287   1
  11  -8   5     -38     645   1
  12  -8   5    1976     702   1
  13  -8   5    1531     726   1
  14  -8   5    -720     720   1
 -16  -7   5    1176     330   1
 -15  -7   5    -313     441   1
 -14  -7   5    2386     715   1
 -13  -7   5    -153     982   1
 -12  -7   5    1126     573   1
 -11  -7   5    5308     519   1
 -10  -7   5    2599     524   1
  -9  -7   5    5613     622   1
  -8  -7   5    9881     687   1
  -7  -7   5   11273    1202   1
  -6  -7   5    9193    1179   1
  -5  -7   5   20817    1696   1
  -4  -7   5    4480    1417   1
  -3  -7   5   23332    3657   1
  -2  -7   5    9512    1918   1
   1  -5   7   18129    1867  -2
  -1  -7   5   18129    1867   1
   0  -5   7   93228    7121  -2
   0  -7   5   93228    7121   1
   1  -7   5   23824    2965   1
   2  -7   5    9709    1668   1
   3  -7   5    1853     779   1
   4  -7   5     658     716   1
   5  -7   5   14407     757   1
   6  -7   5    6282     439   1
   7  -7   5    4121     581   1
   8  -7   5    1350     511   1
   9  -7   5    2945     493   1
  10  -7   5    1007     677   1
  11  -7   5      91     812   1
  12  -7   5    -530     652   1
  13  -7   5     578    1406   1
  14  -7   5     511     720   1
 -16  -6   5       3     583   1
 -15  -6   5     538     436   1
 -14  -6   5    2413     823   1
 -13  -6   5    2390     911   1
 -12  -6   5    8797    1152   1
 -11  -6   5    1836     456   1
 -10  -6   5     230     307   1
  -9  -6   5    1935     417   1
  -8  -6   5    2036     346   1
  -7  -6   5   34005    2042   1
  -6  -6   5    -595     740   1
  -5  -6   5   10682    1094   1
  -4  -6   5   19622    1489   1
  -3  -6   5    1560     491   1
  -2  -6   5   17538    1223   1
   1  -5   6   12637    1272  -2
  -1  -6   5   12637    1272   1
   0  -5   6    8287    1492  -2
   0  -6   5    8287    1492   1
   1  -6   5    1038     976   1
   2  -6   5    3512     973   1
   3  -6   5    3919     871   1
   4  -6   5    9829    1153   1
   5  -6   5   12967    1435   1
   6  -6   5    4816     319   1
   7  -6   5     348     398   1
   8  -6   5    -124     439   1
   9  -6   5    4337     479   1
  10  -6   5     335     489   1
  11  -6   5   16637    2478   1
  12  -6   5    6249    1234   1
  13  -6   5     205     605   1
  14  -6   5     808     594   1
  15  -6   5     823     686   1
 -16  -5   5     960     686   1
 -15  -5   5     152     569   1
 -14  -5   5    1369     629   1
 -13  -5   5    2711     510   1
 -12  -5   5    1015     730   1
 -11  -5   5    -572     572   1
 -10  -5   5    9682     829   1
  -9  -5   5   11302    1280   1
  -8  -5   5    3469     408   1
  -7  -5   5    5410     672   1
  -6  -5   5    1872    1385   1
  -5  -5   5     817     703   1
  -4  -5   5    3820     857   1
  -3  -5   5   49713    2284   1
  -2  -5   5    5225     651   1
  -1  -5   5    4533     632   1
   0  -5   5  204987   10315  -2
   0  -5   5  204987   10315   1
   1  -5   5   14664    1275   1
   2  -5   5    2547     748   1
   3  -5   5   34293    2216   1
   4  -5   5     738     387   1
   5  -5   5   21428    1548   1
   6  -5   5   21525    3908   1
   7  -5   5   10008     689   1
   8  -5   5   11490     763   1
   9  -5   5     483     368   1
  10  -5   5     402     629   1
  11  -5   5    1155     776   1
  12  -5   5    2195     787   1
  13  -5   5     631     717   1
  14  -5   5     696     666   1
  15  -5   5     617     789   1
  16  -5   5    1063     617   1
 -16  -4   5    1028     583   1
 -15  -4   5     108     494   1
 -14  -4   5     891     720   1
 -13  -4   5     915     400   1
 -12  -4   5     712     669   1
 -11  -4   5    4129     985   1
 -10  -4   5   18836    1270   1
  -9  -4   5   15813    1155   1
  -8  -4   5    6516     508   1
  -7  -4   5   14195    1121   1
  -6  -4   5    6959    1006   1
  -5  -4   5   63285    4345   1
  -4  -4   5   40842    2125   1
  -3  -4   5   42860    2005   1
  -2  -4   5   43333    5600   1
  -1  -4   5   18153    1077   1
   0  -5   4   49962    2372  -2
   0  -4   5   49962    2372   1
  -1  -5   4    -201     476  -2
   1  -4   5    -201     476   1
   2  -4   5   23587    1163   1
   3  -4   5    2963     380   1
   4  -4   5   30260    1458   1
   5  -4   5    4055     449   1
   6  -4   5    2491    2331   1
   7  -4   5   47063    5110   1
   8  -4   5    3539     427   1
   9  -4   5    4809     502   1
  10  -4   5    1978     517   1
  11  -4   5    1941     725   1
  12  -4   5    3705     792   1
  13  -4   5    -196     531   1
  14  -4   5     757     460   1
  15  -4   5    1611     891   1
  16  -4   5    -720     720   1
 -16  -3   5     -34     583   1
 -15  -3   5       5     355   1
 -14  -3   5     665     456   1
 -13  -3   5     189     630   1
 -12  -3   5    2716     476   1
 -11  -3   5    1741     529   1
 -10  -3   5    1136     341   1
  -9  -3   5     -40     466   1
  -8  -3   5    6559     497   1
  -7  -3   5   11462     962   1
  -6  -3   5    4199     862   1
  -5  -3   5   11674    1637   1
  -4  -3   5   13904    1115   1
  -3  -3   5   11858    1736   1
  -2  -3   5    8965     681   1
  -1  -3   5   75047    3162   1
   0  -5   3   96346    4236  -2
   0  -3   5   96346    4236   1
  -1  -5   3   23137    1451  -2
   1  -3   5   23137    1451   1
   2  -3   5   22769    1123   1
   3  -3   5   19948    1793   1
   4  -3   5   19134     941   1
   5  -3   5     828     243   1
   6  -3   5    2473    1841   1
   7  -3   5    1441    1868   1
   8  -3   5    3208     727   1
   9  -3   5    6248     553   1
  10  -3   5    7961     632   1
  11  -3   5      85     523   1
  12  -3   5   34278    2053   1
  13  -3   5    1215     513   1
  14  -3   5    3946     604   1
  15  -3   5    4549     709   1
  16  -3   5    1783     857   1
  17  -3   5     857     651   1
 -16  -2   5    -377     514   1
 -15  -2   5    2382     566   1
 -14  -2   5     561     549   1
 -13  -2   5      70     561   1
 -12  -2   5    1585     504   1
 -11  -2   5    1380     472   1
 -10  -2   5    1465     433   1
  -9  -2   5    3886     554   1
  -8  -2   5   28430    1403   1
  -7  -2   5    2061     428   1
  -6  -2   5   42021    3336   1
  -5  -2   5     170     906   1
  -4  -2   5   39795    2287   1
  -3  -2   5   23565    2094   1
  -2  -2   5    4875     538   1
  -1  -2   5   44145    1913   1
   0  -2   5    3714     730   1
  -1  -5   2    6328     805  -2
   1  -2   5    6328     805   1
   2  -2   5   18148     964   1
   3  -2   5   27652    1251   1
   4  -2   5     639     518   1
   5  -2   5    7219    1117   1
   6  -2   5   16626    2880   1
   7  -2   5    3187     779   1
   8  -2   5   13594    1405   1
   9  -2   5   13513     763   1
  10  -2   5   24484    1080   1
  11  -2   5    5374     468   1
  12  -2   5    5197     558   1
  13  -2   5    6458     563   1
  14  -2   5     313     439   1
  15  -2   5    2369     642   1
  16  -2   5     667     526   1
  17  -2   5    -686     686   1
 -15  -1   5    -446     651   1
 -14  -1   5    1512     490   1
 -13  -1   5    2741     578   1
 -12  -1   5   10492     908   1
 -11  -1   5     683     485   1
 -10  -1   5      67     387   1
  -9  -1   5     -38     320   1
  -8  -1   5    7154     567   1
  -7  -1   5    7998     643   1
  -6  -1   5     698     719   1
  -5  -1   5    -545     545   1
  -4  -1   5    9972    1559   1
  -3  -1   5    7009     692   1
  -2  -1   5    2780     553   1
  -1  -1   5    3042     439   1
   0  -1   5   48645    2449   1
  -1  -5   1    3615     465  -2
   1  -1   5    3615     465   1
  -2  -5   1    6493     532  -2
   2  -1   5    6493     532   1
   3  -1   5    9537     702   1
   4  -1   5    5380     353   1
   5  -1   5    3770     762   1
   6  -1   5    1156     800   1
   7  -1   5   18226    1615   1
   8  -1   5   15708    1502   1
   9  -1   5   24671    1408   1
  10  -1   5     167     265   1
  11  -1   5    1758     362   1
  12  -1   5    1874     424   1
  13  -1   5   26416    1476   1
  14  -1   5     487     522   1
  15  -1   5    5445     663   1
  16  -1   5    1234     603   1
  17  -1   5     143     444   1
 -15   0   5     309     549   1
 -14   0   5    -230     407   1
 -13   0   5      84     416   1
 -12   0   5    3758     467   1
 -11   0   5    3282     549   1
 -10   0   5    1662     428   1
  -9   0   5    1466     276   1
  -8   0   5    9082     613   1
  -7   0   5   18493     972   1
  -6   0   5    8165    1477   1
  -5   0   5    6411     879   1
  -4   0   5   13916    1474   1
  -3   0   5   31808    1818   1
  -2   0   5    2827     581   1
  -1   0   5   24632    1210   1
   0   0   5    1205     390   1
  -1  -5   0   22673    1111  -2
   1   0   5   22673    1111   1
  -2  -5   0   13539     781  -2
   2   0   5   13539     781   1
   3   0   5    4916     417   1
   4   0   5   53929    2072   1
   5   0   5   45483    3832   1
   6   0   5     512     632   1
   7   0   5   21479    1811   1
   8   0   5     581     780   1
   9   0   5     487     751   1
  10   0   5    1907     313   1
  11   0   5     894     319   1
  12   0   5     585     475   1
  13   0   5    1260     400   1
  14   0   5     318     385   1
  15   0   5    3052     582   1
  16   0   5     539    1337   1
  17   0   5    -200     507   1
 -15   1   5      34     549   1
 -14   1   5     237     460   1
 -13   1   5     549    1091   1
 -12   1   5    3655     991   1
 -11   1   5    9575     706   1
 -10   1   5    7267     560   1
  -9   1   5     428     406   1
  -8   1   5    1828     317   1
  -7   1   5    3420     359   1
  -6   1   5   19251    1607   1
  -5   1   5   32276    2571   1
  -4   1   5    6847     940   1
  -3   1   5   31233    1584   1
  -2   1   5    5129     546   1
  -1   1   5   10054     687   1
   0   1   5   41198    1936   1
  -1  -5  -1   48925    2265  -2
   1   1   5   48925    2265   1
  -2  -5  -1   34617    1524  -2
   2   1   5   34617    1524   1
  -3  -5  -1   29046    1218  -2
   3   1   5   29046    1218   1
   4   1   5    5858     390   1
   5   1   5   15603    1021   1
   6   1   5   23216    1907   1
   7   1   5   18438    1584   1
   8   1   5   10516    1155   1
   9   1   5     857     750   1
  10   1   5   12225     697   1
  11   1   5   19595     962   1
  12   1   5    9051     633   1
  13   1   5   18595    1288   1
  14   1   5     343     655   1
  15   1   5     770     593   1
  16   1   5     578     431   1
  17   1   5     -82     511   1
  18   1   5    1275     960   1
 -14   2   5     112     284   1
 -13   2   5     896     482   1
 -12   2   5    3221     744   1
 -11   2   5    -373     373   1
 -10   2   5    7897     774   1
  -9   2   5    6362     470   1
  -8   2   5    2098     296   1
  -7   2   5    4468     432   1
  -6   2   5     907     381   1
  -5   2   5   12908    1277   1
  -4   2   5   21174    1717   1
  -3   2   5    2861     673   1
  -2   2   5    3943     598   1
  -1   2   5    2419     734   1
   0   2   5    3704     501   1
  -1  -5  -2    6831     626  -2
   1   2   5    6831     626   1
  -2  -5  -2   34790    1493  -2
   2   2   5   34790    1493   1
  -3  -5  -2   25725    1134  -2
   3   2   5   25725    1134   1
  -4  -5  -2    5034     394  -2
   4   2   5    5034     394   1
   5   2   5    9718    1112   1
   6   2   5    8189     446   1
   7   2   5    8471     978   1
   8   2   5    8053     968   1
   9   2   5   37397    3987   1
  10   2   5    1105     322   1
  11   2   5    1303     455   1
  12   2   5     694     375   1
  13   2   5    7014     666   1
  14   2   5     757     457   1
  15   2   5    1667     610   1
  16   2   5      37     489   1
  17   2   5     458     482   1
  18   2   5      31     428   1
 -14   3   5       3     446   1
 -13   3   5    2443     458   1
 -12   3   5    1058     529   1
 -11   3   5    -131     272   1
 -10   3   5    -290     351   1
  -9   3   5   10626     727   1
  -8   3   5    3145     307   1
  -7   3   5     368     289   1
  -6   3   5    6109     525   1
  -5   3   5    9528    1064   1
  -4   3   5    5893     893   1
  -3   3   5    1889     713   1
  -2   3   5   23031    1509   1
  -1   3   5   15963    1069   1
   0  -5  -3   99265    4671  -2
   0   3   5   99265    4671   1
  -1  -5  -3  107117    4990  -2
   1   3   5  107117    4990   1
  -2  -5  -3    5637     709  -2
   2   3   5    5637     709   1
  -3  -5  -3   62501    2620  -2
   3   3   5   62501    2620   1
  -4  -5  -3   77679    3102  -2
   4   3   5   77679    3102   1
  -5  -5  -3   12799     703  -2
   5   3   5   12799     703   1
   6   3   5    4557     438   1
   7   3   5     823     205   1
   8   3   5     239     962   1
  10   3   5     109     332   1
  11   3   5    9669     515   1
  12   3   5   14071     857   1
  13   3   5     848     351   1
  14   3   5   10364     844   1
  15   3   5    1435     642   1
  16   3   5    4102     770   1
  17   3   5    6338     920   1
  18   3   5     617     498   1
 -14   4   5     720     720   1
 -13   4   5    4180     503   1
 -12   4   5     585     824   1
 -11   4   5    1910     661   1
 -10   4   5    -203     395   1
  -9   4   5   11106    1027   1
  -8   4   5   50828    2352   1
  -7   4   5    -389     389   1
  -6   4   5   52821    2522   1
  -5   4   5    4636     797   1
  -4   4   5   35641    3561   1
  -3   4   5    8638    2149   1
  -2   4   5    2516    1056   1
  -1   4   5   14105    1007   1
   0  -5  -4   43454    2173  -2
   0   4   5   43454    2173   1
  -1  -5  -4   26724    1466  -2
   1   4   5   26724    1466   1
  -2  -5  -4    8187     727  -2
   2   4   5    8187     727   1
  -3  -5  -4   18313     958  -2
   3   4   5   18313     958   1
  -4  -5  -4    3759     484  -2
   4   4   5    3759     484   1
  -5  -5  -4   40494    1803  -2
   5   4   5   40494    1803   1
   6   4   5    2207     425   1
   7   4   5   16898     936   1
   8   4   5    9634     758   1
   9   4   5    3393    1206   1
  10   4   5     939     275   1
  11   4   5    6483     430   1
  12   4   5    4661     347   1
  13   4   5    -183     443   1
  14   4   5    1893     427   1
  15   4   5     728     413   1
  16   4   5     167     482   1
  17   4   5    -401     401   1
  18   4   5    1032     476   1
 -13   5   5    1063     857   1
 -12   5   5     223     398   1
 -11   5   5     143     450   1
 -10   5   5    -194     772   1
  -9   5   5    7318     690   1
  -8   5   5   14992     960   1
  -7   5   5    1619     388   1
  -6   5   5     279     511   1
  -5   5   5     801     486   1
  -4   5   5     482    1577   1
  -3   5   5   10262    1265   1
  -2   5   5   10164    1141   1
  -1   5   5    2314     608   1
   0   5   5  224735   10240   1
  -1  -5  -5    -511     511  -2
   1   5   5    -511     511   1
  -2  -5  -5   37218    1819  -2
   2   5   5   37218    1819   1
  -3  -5  -5   41951    2437  -2
   3   5   5   41951    2437   1
  -4  -5  -5   24429    1615  -2
   4   5   5   24429    1615   1
  -5  -5  -5    5824     679  -2
   5   5   5    5824     679   1
   6   5   5     411     445   1
   7   5   5   12689    1203   1
   8   5   5   36873    2020   1
   9   5   5     423     273   1
  10   5   5    9662     572   1
  11   5   5     984     316   1
  12   5   5   12978     742   1
  13   5   5    4088     447   1
  14   5   5     581     526   1
  15   5   5     106     633   1
  16   5   5    3254     825   1
  17   5   5    -405     508   1
  18   5   5    1074     472   1
 -13   6   5     480     686   1
 -12   6   5    2194    1114   1
 -11   6   5     489     484   1
 -10   6   5     570     837   1
  -9   6   5     656     407   1
  -8   6   5    1896     712   1
  -7   6   5     744     232   1
  -6   6   5    2678     405   1
  -5   6   5    2373     377   1
  -4   6   5     253     779   1
  -3   6   5   20124    1915   1
  -2   6   5    1270     904   1
  -1   6   5    5925     980   1
   0   6   5    7265     682   1
  -1  -5  -6    1108     551  -2
   1   6   5    1108     551   1
  -2  -5  -6   32473    1542  -2
   2   6   5   32473    1542   1
  -3  -5  -6    9829     791  -2
   3   6   5    9829     791   1
  -4  -5  -6   12564    1033  -2
   4   6   5   12564    1033   1
  -5  -5  -6   64792    3716  -2
   5   6   5   64792    3716   1
  -6  -5  -6   60540    8776  -2
   6   6   5   60540    8776   1
   7   6   5    2041     603   1
   8   6   5   23007    1738   1
   9   6   5    1375     495   1
  10   6   5   17643     766   1
  11   6   5   27463    1463   1
  12   6   5   31260    1917   1
  13   6   5    2249     424   1
  14   6   5    1580     742   1
  15   6   5     -11     620   1
  16   6   5     201     433   1
  17   6   5     996     617   1
  18   6   5     789     617   1
 -12   7   5     947     531   1
 -11   7   5     -36     480   1
 -10   7   5    2352     602   1
  -9   7   5    1111     469   1
  -8   7   5     595     580   1
  -7   7   5   11244     890   1
  -6   7   5    4689     480   1
  -5   7   5   16918    1022   1
  -4   7   5    3277     448   1
  -3   7   5    2829     583   1
  -2   7   5   11732    1513   1
  -1   7   5    9440    1608   1
   0   7   5   94121    5303   1
  -1  -5  -7   64561    2814  -2
   1   7   5   64561    2814   1
  -2  -5  -7   12236     872  -2
   2   7   5   12236     872   1
  -3  -5  -7   25766    1811  -2
   3   7   5   25766    1811   1
  -4  -5  -7   23777    1746  -2
   4   7   5   23777    1746   1
  -5  -5  -7   14304    1324  -2
   5   7   5   14304    1324   1
  -6  -5  -7   91093    6821  -2
   6   7   5   91093    6821   1
   7   7   5    5878     910   1
   8   7   5    7727    1493   1
   9   7   5   12265     700   1
  10   7   5      37     231   1
  11   7   5    4469     524   1
  12   7   5    5150     679   1
  13   7   5   47964    2822   1
  14   7   5    2053     341   1
  15   7   5     874     452   1
  16   7   5     809     478   1
  17   7   5    -383     960   1
  18   7   5     309     583   1
  19   7   5       0     446   1
 -12   8   5     171     617   1
 -11   8   5     384     482   1
 -10   8   5     223     710   1
  -9   8   5     464     387   1
  -8   8   5    -326     515   1
  -7   8   5     -62     435   1
  -6   8   5    3741     415   1
  -5   8   5    -105     652   1
  -4   8   5     629     669   1
  -3   8   5    2352     443   1
  -2   8   5     438     814   1
  -1   8   5     294     846   1
   0   8   5   23673    1915   1
   1   8   5    2293     851   1
  -2  -5  -8    6330     729  -2
   2   8   5    6330     729   1
  -3  -5  -8    -364    1034  -2
   3   8   5    -364    1034   1
  -4  -5  -8   16530    1523  -2
   4   8   5   16530    1523   1
  -5  -5  -8   22303    1983  -2
   5   8   5   22303    1983   1
  -6  -5  -8    3541     855  -2
   6   8   5    3541     855   1
   7   8   5    1308     743   1
   8   8   5     854     616   1
   9   8   5   38729    1603   1
  10   8   5    1009     284   1
  11   8   5    7768     522   1
  12   8   5   17488    1089   1
  13   8   5    9214     755   1
  14   8   5     656     495   1
  15   8   5    4857     508   1
  16   8   5    -210     418   1
  17   8   5    -487     686   1
  18   8   5    -420     420   1
  19   8   5      34     446   1
 -11   9   5    1199     348   1
 -10   9   5     498     789   1
  -9   9   5    3517     852   1
  -8   9   5    1663     507   1
  -7   9   5     181     539   1
  -6   9   5    3937     689   1
  -5   9   5    2024     415   1
  -4   9   5     640     526   1
  -3   9   5    5312     752   1
  -2   9   5    1426     629   1
  -1   9   5   33502    2382   1
   0   9   5     376     850   1
   1   9   5    2577     963   1
  -2  -5  -9    2941     792  -2
   2   9   5    2941     792   1
  -3  -5  -9    6669    1048  -2
   3   9   5    6669    1048   1
  -4  -5  -9     474     776  -2
   4   9   5     474     776   1
  -5  -5  -9   15283    1531  -2
   5   9   5   15283    1531   1
  -6  -5  -9    5219     877  -2
   6   9   5    5219     877   1
   7   9   5   53800    3544   1
   8   9   5    1322     269   1
   9   9   5   50850    2085   1
  10   9   5   20999    1014   1
  11   9   5    4808     386   1
  12   9   5   31244    1395   1
  13   9   5   19399    1253   1
  14   9   5    3117     743   1
  15   9   5   39081    2743   1
  16   9   5    -686     686   1
  17   9   5    4001    1217   1
  18   9   5    -568     568   1
 -10  10   5     312     424   1
  -9  10   5     350     556   1
  -8  10   5     393     534   1
  -7  10   5     466     544   1
  -6  10   5      99     559   1
  -5  10   5     851     358   1
  -4  10   5     993     433   1
  -3  10   5    6522     637   1
  -2  10   5    3042     616   1
  -1  10   5     161     743   1
   0  10   5     109     603   1
  -3  -5 -10   28706    3291  -2
   3  10   5   28706    3291   1
  -4  -5 -10    9336    1213  -2
   4  10   5    9336    1213   1
  -5  -5 -10   17575    1768  -2
   5  10   5   17575    1768   1
  -6  -5 -10    3293     543  -2
   6  10   5    3293     543   1
   7  10   5   14105     806   1
   8  10   5    3414     379   1
   9  10   5    1636     278   1
  10  10   5   22631    1079   1
  11  10   5    4259     376   1
  12  10   5    2672     451   1
  13  10   5    1742     417   1
  14  10   5     921     406   1
  15  10   5    2316     388   1
  16  10   5     111     526   1
  17  10   5    -174     580   1
  18  10   5     545     703   1
 -10  11   5     120     265   1
  -9  11   5    -338     373   1
  -8  11   5     -18     764   1
  -7  11   5    1401     474   1
  -6  11   5    5266     825   1
  -5  11   5    1062     538   1
  -4  11   5      94     397   1
  -3  11   5    3428    1179   1
  -2  11   5    4340     662   1
  -1  11   5    1396     542   1
   0  11   5    6750     970   1
   1  11   5    9839    1611   1
  -4  -5 -11    3463     994  -2
   4  11   5    3463     994   1
  -5  -5 -11    1841     458  -2
   5  11   5    1841     458   1
  -6  -5 -11     680     558  -2
   6  11   5     680     558   1
   7  11   5    6319     623   1
   8  11   5     122     337   1
   9  11   5   11061     688   1
  10  11   5   16921     944   1
  11  11   5    1068     363   1
  12  11   5     330     439   1
  13  11   5      93     299   1
  14  11   5     314     438   1
  15  11   5    1535     390   1
  16  11   5    7606     930   1
  17  11   5    1031     669   1
  18  11   5    3743    2297   1
  -9  12   5     584     296   1
  -8  12   5      97     448   1
  -7  12   5     -85     431   1
  -6  12   5    1421     584   1
  -5  12   5    -587     587   1
  -4  12   5    4317     527   1
  -3  12   5    5174     861   1
  -2  12   5    4426     776   1
  -1  12   5    2166    1272   1
   0  12   5     789     617   1
   1  12   5    1234     891   1
   2  12   5    -377     617   1
  -4  -5 -12    1680     720  -2
   4  12   5    1680     720   1
  -5  -5 -12    2057     583  -2
   5  12   5    2057     583   1
  -6  -5 -12    5531     752  -2
   6  12   5    5531     752   1
   7  12   5    2202     419   1
   8  12   5   12487     756   1
   9  12   5      35     397   1
  10  12   5    1126     359   1
  11  12   5    3405     487   1
  12  12   5     -99     473   1
  13  12   5    -368     368   1
  14  12   5    1479     408   1
  15  12   5    1834     503   1
  16  12   5    -293     304   1
  17  12   5    1311     626   1
  18  12   5      34     617   1
  -8  13   5    -100     348   1
  -7  13   5     377     655   1
  -6  13   5    1489     505   1
  -5  13   5     976     508   1
  -4  13   5    4200     789   1
  -3  13   5     256     397   1
  -2  13   5     723     545   1
  -1  13   5    1440     714   1
   0  13   5     572     524   1
   1  13   5    1851     686   1
   2  13   5     549     926   1
   4  13   5    3085     686   1
  -5  -5 -13     377     686  -2
   5  13   5     377     686   1
  -6  -5 -13    4251     926  -2
   6  13   5    4251     926   1
   7  13   5    2529     446   1
   8  13   5   10868     833   1
   9  13   5    1311     369   1
  10  13   5    -498     498   1
  11  13   5    9085     775   1
  12  13   5    2342     479   1
  13  13   5    2047     499   1
  14  13   5    1647     594   1
  15  13   5    -252     416   1
  16  13   5      29     377   1
  17  13   5    1111     531   1
  -7  14   5    -304     497   1
  -6  14   5     -84     543   1
  -5  14   5     -68     473   1
  -4  14   5    3296    1302   1
  -3  14   5     254     569   1
  -2  14   5    1259     689   1
  -1  14   5   10719    1200   1
   0  14   5    1086     772   1
   1  14   5     446     960   1
   2  14   5    1508     720   1
   3  14   5    1714    1028   1
   4  14   5   17689    2228   1
  -5  -5 -14    6479    1063  -2
   5  14   5    6479    1063   1
  -6  -5 -14    8982    1440  -2
   6  14   5    8982    1440   1
  -7  -5 -14    1653     536  -2
   7  14   5    1653     536   1
   8  14   5    2974    1831   1
   9  14   5   13331     929   1
  10  14   5    3809     521   1
  11  14   5   12717    1218   1
  12  14   5    2437     476   1
  13  14   5    1743     411   1
  14  14   5    3996     610   1
  15  14   5    -402     420   1
  16  14   5     748     410   1
  17  14   5     411     617   1
  -6  15   5     265     386   1
  -5  15   5     642     677   1
  -4  15   5    2200     543   1
  -3  15   5    2521     820   1
  -2  15   5    7890    1108   1
  -1  15   5     621     508   1
   0  15   5    6479     843   1
   1  15   5      78     700   1
   2  15   5    3188    1097   1
   3  15   5     789     994   1
   4  15   5   13714    1428   1
  -5  -5 -15   46553    5554  -2
   5  15   5   46553    5554   1
  -6  -5 -15     232     428  -2
   6  15   5     232     428   1
  -7  -5 -15    1528     546  -2
   7  15   5    1528     546   1
   8  15   5    1821     534   1
   9  15   5   10937    1124   1
  10  15   5    7304     812   1
  11  15   5   14266    1136   1
  12  15   5    1875     448   1
  13  15   5    1087     357   1
  14  15   5     566     582   1
  15  15   5      17     532   1
  16  15   5     288     399   1
  -5  16   5    1554     669   1
  -4  16   5     352     314   1
  -3  16   5    -259     417   1
  -2  16   5    2269     840   1
  -1  16   5     655     379   1
   0  16   5     621     492   1
   1  16   5    -739     739   1
   2  16   5     411     926   1
   3  16   5    3668     891   1
   4  16   5    4751     796   1
   5  16   5    9736    1543   1
  -6  -5 -16    1406     823  -2
   6  16   5    1406     823   1
  -7  -5 -16    2211     533  -2
   7  16   5    2211     533   1
   8  16   5    3641     564   1
   9  16   5    1775     600   1
  10  16   5    3447     474   1
  11  16   5   10763    1015   1
  12  16   5    1561     531   1
  13  16   5     894     558   1
  14  16   5     590     461   1
  15  16   5     857     651   1
  16  16   5     171     265   1
  -4  17   5     -34     583   1
  -3  17   5     627     503   1
  -2  17   5     911     547   1
  -1  17   5    -201     576   1
   0  17   5    2948     495   1
   1  17   5    -193     466   1
   2  17   5     197     609   1
   3  17   5    3952     758   1
   4  17   5    3537    1114   1
   5  17   5    1110     503   1
  -6  -5 -17    7028    1097  -2
   6  17   5    7028    1097   1
  -7  -5 -17    2640     823  -2
   7  17   5    2640     823   1
   8  17   5     325    1028   1
   9  17   5   13117    1326   1
  10  17   5     705     342   1
  11  17   5    5877     651   1
  12  17   5    -472     472   1
  13  17   5     996     404   1
  14  17   5    2365     634   1
  15  17   5     944     857   1
  -2  18   5     962     823   1
  -1  18   5     394     551   1
   0  18   5     178     545   1
   1  18   5    1186     417   1
   2  18   5    1291     517   1
   3  18   5    1264     399   1
   4  18   5    1395     488   1
   5  18   5     129     469   1
   6  18   5     259     600   1
  -7  -5 -18     789     686  -2
   7  18   5     789     686   1
   8  18   5    6328     840   1
   9  18   5    4234     613   1
  10  18   5    2140     750   1
  11  18   5    1710     609   1
  12  18   5     147     387   1
  13  18   5     239     315   1
  14  18   5    -322     384   1
   0  19   5     446     549   1
   1  19   5     152     498   1
   2  19   5    1851     857   1
   3  19   5    -394     424   1
   4  19   5     338     583   1
   5  19   5     449     346   1
   6  19   5    5142     655   1
  -7  -5 -19    -255     703  -2
   7  19   5    -255     703   1
  -8  -5 -19    1870     840  -2
   8  19   5    1870     840   1
   9  19   5      65     343   1
  10  19   5     198    1080   1
  11  19   5     978     891   1
  12  19   5    1111     360   1
  13  19   5     -34     480   1
   3  20   5    2605     651   1
   4  20   5    -328     329   1
   5  20   5    -309     309   1
   6  20   5     372     351   1
   7  20   5    1261     311   1
  -8  -5 -20    1259     301  -2
   8  20   5    1259     301   1
   9  20   5    1154    1268   1
  10  20   5     206     339   1
  11  20   5     747     377   1
  -7 -19   6     -69     181   1
  -6 -19   6     273     343   1
  -5 -19   6    3614     682   1
   4  -6  19     966     507  -2
  -4 -19   6     966     507   1
  -3 -19   6     542     507   1
  -2 -19   6      56     527   1
  -1 -19   6     240     686   1
   0 -19   6     789     617   1
  -9 -18   6    -135     223   1
  -8 -18   6     296     263   1
  -7 -18   6     382     278   1
  -6 -18   6    2747     404   1
  -5 -18   6    2834     620   1
   4  -6  18     518     397  -2
  -4 -18   6     518     397   1
  -3 -18   6    1801     305   1
  -2 -18   6      79     733   1
  -1 -18   6     -11     520   1
   0 -18   6     801     395   1
   1 -18   6    1474     558   1
   2 -18   6    -186     434   1
   3 -18   6     255     321   1
 -11 -17   6     617     480   1
 -10 -17   6     213     552   1
  -9 -17   6     231     260   1
  -8 -17   6     -27     321   1
  -7 -17   6     655     395   1
  -6 -17   6     895     444   1
  -5 -17   6     720     568   1
  -4 -17   6    1563     419   1
   3  -6  17     452     414  -2
  -3 -17   6     452     414   1
  -2 -17   6     660    1048   1
  -1 -17   6    4822     758   1
   0 -17   6    2046     699   1
   1 -17   6    2265     594   1
   2 -17   6    2673    1628   1
   3 -17   6     494     583   1
   4 -17   6       8     386   1
 -12 -16   6    2777     754   1
 -11 -16   6     160     375   1
 -10 -16   6     279     336   1
  -9 -16   6     507     456   1
  -8 -16   6     183     354   1
  -7 -16   6     137     527   1
  -6 -16   6    3234    1543   1
  -5 -16   6    -706     706   1
  -4 -16   6    1961     666   1
   3  -6  16     619     523  -2
  -3 -16   6     619     523   1
  -2 -16   6    3493     898   1
  -1 -16   6     454     600   1
   0 -16   6    -234     637   1
   1 -16   6    -520     671   1
   2 -16   6    7291     902   1
   3 -16   6     598     733   1
   4 -16   6     114     642   1
   5 -16   6     -12     367   1
   6 -16   6      -8     371   1
 -13 -15   6     377     343   1
 -12 -15   6    1030     420   1
 -11 -15   6    2635     633   1
 -10 -15   6    3071     545   1
  -9 -15   6      69     411   1
  -8 -15   6    1786     514   1
  -7 -15   6     648    1046   1
  -6 -15   6    2503    1097   1
  -5 -15   6       0     686   1
  -4 -15   6    6788    1131   1
   3  -6  15    9539    1275  -2
  -3 -15   6    9539    1275   1
  -2 -15   6    2597     717   1
  -1 -15   6    -224     447   1
   0 -15   6    1832     403   1
   1 -15   6    1748     962   1
   2 -15   6    -528     528   1
   3 -15   6    2864     638   1
   4 -15   6     545     723   1
   5 -15   6    1932     494   1
   6 -15   6    -474     474   1
   7 -15   6    -395     395   1
 -13 -14   6      11     429   1
 -12 -14   6    -371     569   1
 -11 -14   6    -229     317   1
 -10 -14   6    9747    1010   1
  -9 -14   6    4330    1028   1
  -8 -14   6       0     686   1
  -7 -14   6    1917     633   1
  -6 -14   6     617    1028   1
  -5 -14   6     926    1028   1
  -4 -14   6    1234    1028   1
   3  -6  14      54     814  -2
  -3 -14   6      54     814   1
   2  -6  14     971     697  -2
  -2 -14   6     971     697   1
  -1 -14   6     982     548   1
   0 -14   6    -569     569   1
   1 -14   6     -70     471   1
   2 -14   6    1601     889   1
   3 -14   6    1250     583   1
   4 -14   6      98     413   1
   5 -14   6     670     676   1
   6 -14   6     624     547   1
   7 -14   6     823     435   1
   8 -14   6       0     533   1
   9 -14   6    3462     823   1
 -14 -13   6    -108     375   1
 -13 -13   6     794     446   1
 -12 -13   6    2130    1526   1
 -11 -13   6      82     326   1
 -10 -13   6    2775     469   1
  -9 -13   6     746     545   1
  -8 -13   6    1268     720   1
  -7 -13   6    8673    1337   1
  -6 -13   6    3634    1200   1
  -5 -13   6    -242     840   1
  -4 -13   6    5888    4628   1
  -3 -13   6    1225    1287   1
   2  -6  13    4054    2390  -2
  -2 -13   6    4054    2390   1
  -1 -13   6   14798    1325   1
   0 -13   6    1786     545   1
   1 -13   6    2748     665   1
   2 -13   6     225    1176   1
   3 -13   6     963     620   1
   4 -13   6     595     628   1
   5 -13   6     530    1240   1
   6 -13   6    2356     584   1
   7 -13   6    1235     663   1
   8 -13   6    4938    1301   1
   9 -13   6    1535     533   1
  10 -13   6     823     720   1
 -14 -12   6    1582     331   1
 -13 -12   6    -597     628   1
 -12 -12   6    4023     526   1
 -11 -12   6     133     600   1
 -10 -12   6     814     498   1
  -9 -12   6    -332     459   1
  -8 -12   6    1611     720   1
  -7 -12   6     994     720   1
  -5 -12   6   17688    1832   1
  -4 -12   6     642     705   1
  -3 -12   6    1221    2897   1
   2  -6  12     716     905  -2
  -2 -12   6     716     905   1
  -1 -12   6    3491     793   1
   0 -12   6    2464     572   1
   1 -12   6   13058    1195   1
   2 -12   6    -423     431   1
   3 -12   6    1990     727   1
   4 -12   6     636     934   1
   5 -12   6    1446     524   1
   6 -12   6    -613     613   1
   7 -12   6    2354     621   1
   8 -12   6    1779     499   1
   9 -12   6     100     511   1
  10 -12   6      48     507   1
  11 -12   6    -386     386   1
 -15 -11   6    -240     329   1
 -14 -11   6    1407     550   1
 -13 -11   6     956     754   1
 -12 -11   6     652     509   1
 -11 -11   6     304     634   1
 -10 -11   6    9620    1025   1
  -9 -11   6    2184     511   1
  -8 -11   6    2537     789   1
  -7 -11   6    -400     669   1
  -6 -11   6    3257    1817   1
  -5 -11   6    5791    2194   1
  -4 -11   6   22349    2105   1
  -3 -11   6    5656    3222   1
   2  -6  11     359     742  -2
  -2 -11   6     359     742   1
   1  -6  11   48930    3006  -2
  -1 -11   6   48930    3006   1
   0 -11   6   12557    1380   1
   1 -11   6    2222     458   1
   2 -11   6    4920     510   1
   3 -11   6    6949     837   1
   4 -11   6    9626     815   1
   5 -11   6    4884     621   1
   6 -11   6    2631    1138   1
   7 -11   6    2807     636   1
   8 -11   6     -72     816   1
   9 -11   6    1380     644   1
  10 -11   6    -735     750   1
  11 -11   6    -519     519   1
  12 -11   6    2967     535   1
 -15 -10   6      63     368   1
 -14 -10   6     445     525   1
 -13 -10   6    7369    1284   1
 -12 -10   6      11     940   1
 -11 -10   6    2690     417   1
 -10 -10   6     206     428   1
  -9 -10   6      64     615   1
  -8 -10   6    8650    1622   1
  -7 -10   6    -706    1217   1
  -6 -10   6   14638    2674   1
  -5 -10   6    2474    1903   1
  -4 -10   6    3650     870   1
  -3 -10   6    1768     908   1
  -2 -10   6    1908     672   1
   1  -6  10     623     600  -2
  -1 -10   6     623     600   1
   0 -10   6    5268     656   1
   1 -10   6     379     516   1
   2 -10   6    5087     498   1
   3 -10   6   14450     870   1
   4 -10   6    -331     408   1
   5 -10   6     425     466   1
   6 -10   6    2012     611   1
   7 -10   6    2438     687   1
   8 -10   6     672     588   1
   9 -10   6    7868     990   1
  10 -10   6     550     695   1
  11 -10   6    1783     820   1
  12 -10   6      13     607   1
 -15  -9   6       7     399   1
 -14  -9   6     927     322   1
 -13  -9   6   11908    1336   1
 -12  -9   6    2586     647   1
 -11  -9   6     389     298   1
 -10  -9   6    6073    1157   1
  -9  -9   6    2115     463   1
  -8  -9   6    3608     587   1
  -7  -9   6    4125    1526   1
  -6  -9   6     340     908   1
  -5  -9   6    1112    1103   1
  -4  -9   6    3239    1301   1
  -3  -9   6     115     490   1
  -2  -9   6    4639     822   1
   1  -6   9     919     565  -2
  -1  -9   6     919     565   1
   0  -9   6   25170    1704   1
   1  -9   6    1831     486   1
   2  -9   6    -313     313   1
   3  -9   6    4008     388   1
   4  -9   6    1666     477   1
   5  -9   6   16886     943   1
   6  -9   6    2458     430   1
   7  -9   6    1504     623   1
   8  -9   6   10270     979   1
   9  -9   6    1539     426   1
  10  -9   6    1284     702   1
  11  -9   6    -497     883   1
  12  -9   6    2161     725   1
  13  -9   6     960     576   1
 -15  -8   6     931     507   1
 -14  -8   6    1276     716   1
 -13  -8   6    3804     562   1
 -12  -8   6    1426     722   1
 -11  -8   6    2920     752   1
 -10  -8   6    6212     759   1
  -9  -8   6     -51     441   1
  -8  -8   6    3426     517   1
  -7  -8   6    7323    1392   1
  -6  -8   6    2730     655   1
  -5  -8   6    2016    1268   1
  -4  -8   6   12134    1935   1
  -3  -8   6   10935    1314   1
  -2  -8   6    5570    1296   1
   1  -6   8    3809    1141  -2
  -1  -8   6    3809    1141   1
   0  -6   8   29886    2827  -2
   0  -8   6   29886    2827   1
   1  -8   6   12711    1534   1
   2  -8   6    2680     485   1
   3  -8   6   35538    1483   1
   4  -8   6    2186     451   1
   5  -8   6    1058     543   1
   6  -8   6    -225     411   1
   7  -8   6     771     667   1
   8  -8   6   58637    3109   1
   9  -8   6    1819     634   1
  10  -8   6    1227     632   1
  11  -8   6    1426     756   1
  12  -8   6    -346     829   1
  13  -8   6    -426     651   1
  14  -8   6     943     600   1
 -15  -7   6    -584     634   1
 -14  -7   6     476     679   1
 -13  -7   6     436     497   1
 -12  -7   6    7917     871   1
 -11  -7   6    7085     611   1
 -10  -7   6    -154     323   1
  -9  -7   6     199     340   1
  -8  -7   6    3212     464   1
  -7  -7   6     146     435   1
  -6  -7   6   10618     929   1
  -5  -7   6    2746    1035   1
  -4  -7   6    9677    1635   1
  -3  -7   6    6141    2945   1
  -2  -7   6    7809    1426   1
   1  -6   7   31295    2882  -2
  -1  -7   6   31295    2882   1
   0  -6   7  298050   22821  -2
   0  -7   6  298050   22821   1
   1  -7   6    3384    1501   1
   2  -7   6    1740    1186   1
   3  -7   6   30724    2438   1
   4  -7   6    7195     618   1
   5  -7   6   13040     716   1
   6  -7   6    2994     422   1
   7  -7   6    2680     492   1
   8  -7   6    6036     625   1
   9  -7   6    2550     478   1
  10  -7   6    1894     646   1
  11  -7   6     245     703   1
  12  -7   6    3171     706   1
  13  -7   6    -750     750   1
  14  -7   6      33     591   1
 -15  -6   6     452     384   1
 -14  -6   6     -69     566   1
 -13  -6   6    -215     843   1
 -12  -6   6    -435     474   1
 -11  -6   6    -409     857   1
 -10  -6   6     757     322   1
  -9  -6   6    3216     469   1
  -8  -6   6    3567     785   1
  -7  -6   6   20552    1351   1
  -6  -6   6    2119     579   1
  -5  -6   6    2108     702   1
  -4  -6   6   31568    2281   1
  -3  -6   6   20573    1800   1
  -2  -6   6    1704     743   1
  -1  -6   6   31865    2653   1
   0  -6   6   60027    4802  -2
   0  -6   6   60027    4802   1
   1  -6   6   15676    1769   1
   2  -6   6    3970    1049   1
   3  -6   6   14048    1412   1
   4  -6   6   15326    1434   1
   5  -6   6    2226     410   1
   6  -6   6     917     278   1
   7  -6   6    9553     777   1
   8  -6   6    4218     486   1
   9  -6   6    8383     755   1
  10  -6   6    1214     738   1
  11  -6   6    2153     724   1
  12  -6   6    -731    1630   1
  13  -6   6    -478     599   1
  14  -6   6    5224     697   1
  15  -6   6    1680     857   1
 -15  -5   6     337     566   1
 -14  -5   6    -558     558   1
 -13  -5   6     426     460   1
 -12  -5   6    -259     494   1
 -11  -5   6   20159    1673   1
 -10  -5   6    3522     484   1
  -9  -5   6    2104     427   1
  -8  -5   6    5337     484   1
  -7  -5   6   10848    1003   1
  -6  -5   6     390     770   1
  -5  -5   6   37246    3058   1
  -4  -5   6     513     561   1
  -3  -5   6     513     481   1
  -2  -5   6   22836    1420   1
  -1  -5   6     727    1288   1
   0  -6   5   14612    1287  -2
   0  -5   6   14612    1287   1
  -1  -6   5   21026    1890  -2
   1  -5   6   21026    1890   1
   2  -5   6    3950    1068   1
   3  -5   6    1661     820   1
   4  -5   6   20322    1691   1
   5  -5   6     226     531   1
   6  -5   6    2345     489   1
   7  -5   6    5554     586   1
   8  -5   6   12289     803   1
   9  -5   6    -302     823   1
  10  -5   6    2947     848   1
  11  -5   6    1623     525   1
  12  -5   6     875     563   1
  13  -5   6    2362     693   1
  14  -5   6      55     705   1
  15  -5   6    -686    1097   1
 -15  -4   6    -280     480   1
 -14  -4   6    1968     754   1
 -13  -4   6     506     382   1
 -12  -4   6      48     450   1
 -11  -4   6     691     498   1
 -10  -4   6    3935     544   1
  -9  -4   6    6379     665   1
  -8  -4   6     179     419   1
  -7  -4   6    5313     508   1
  -6  -4   6    1016     783   1
  -5  -4   6      74     717   1
  -4  -4   6    4269     740   1
  -3  -4   6   18756    1082   1
  -2  -4   6   16465    1449   1
  -1  -4   6   55892    3418   1
   0  -6   4   28742    1853  -2
   0  -4   6   28742    1853   1
  -1  -6   4   35402    2301  -2
   1  -4   6   35402    2301   1
   2  -4   6  109549    5170   1
   3  -4   6    5497     543   1
   4  -4   6   19525    1405   1
   5  -4   6     159     574   1
   6  -4   6    4455    1879   1
   7  -4   6   33646    2164   1
   8  -4   6    8942     562   1
   9  -4   6    -326     438   1
  10  -4   6    1739     445   1
  11  -4   6    7768    1025   1
  12  -4   6    -413     602   1
  13  -4   6     192     514   1
  14  -4   6    6967     802   1
  15  -4   6    -754     823   1
  16  -4   6     686     720   1
 -15  -3   6     456     423   1
 -14  -3   6    -154     509   1
 -13  -3   6    2379     354   1
 -12  -3   6     993     470   1
 -11  -3   6    6405     978   1
 -10  -3   6   11895    1078   1
  -9  -3   6     448     332   1
  -8  -3   6     150     351   1
  -7  -3   6    5732     664   1
  -6  -3   6   10789    1792   1
  -5  -3   6   10958    1169   1
  -4  -3   6   38476    2704   1
  -3  -3   6    2225     512   1
  -2  -3   6   14129    1371   1
  -1  -3   6    1750     460   1
   0  -3   6   11407     725   1
  -1  -6   3    3495     842  -2
   1  -3   6    3495     842   1
   2  -3   6   43608    2040   1
   3  -3   6   13223     752   1
   4  -3   6    1342    1607   1
   5  -3   6    1704     451   1
   6  -3   6   11824    2241   1
   7  -3   6    1569    1408   1
   8  -3   6     642     410   1
   9  -3   6    7026     518   1
  10  -3   6    9795     660   1
  11  -3   6    1762     635   1
  12  -3   6      95     544   1
  13  -3   6    2446     551   1
  14  -3   6    2072     570   1
  15  -3   6     653    1035   1
  16  -3   6     960    1131   1
 -15  -2   6     789     549   1
 -14  -2   6    5543    1543   1
 -13  -2   6     320     608   1
 -12  -2   6    3298     523   1
 -11  -2   6    2432     505   1
 -10  -2   6    4382     625   1
  -9  -2   6    -227     277   1
  -8  -2   6     804     405   1
  -7  -2   6    1550     553   1
  -6  -2   6   10243    1238   1
  -5  -2   6     668     652   1
  -4  -2   6   17868    1591   1
  -3  -2   6   38962    1823   1
  -2  -2   6   39982    2016   1
  -1  -2   6    7809     934   1
   0  -2   6   15398     886   1
  -1  -6   2   25051    1103  -2
   1  -2   6   25051    1103   1
  -2  -6   2    3731     539  -2
   2  -2   6    3731     539   1
   3  -2   6   60766    3161   1
   4  -2   6   40732    1710   1
   5  -2   6     741     208   1
   6  -2   6    2962    1633   1
   7  -2   6   16166    1709   1
   8  -2   6   -1584    2914   1
   9  -2   6     591     299   1
  10  -2   6     424     322   1
  11  -2   6     873     418   1
  12  -2   6    1668     401   1
  13  -2   6    5992     542   1
  14  -2   6     145     515   1
  15  -2   6     300     564   1
  16  -2   6     402     494   1
  17  -2   6    -343     754   1
 -15  -1   6     720     514   1
 -14  -1   6     854     410   1
 -13  -1   6     370     539   1
 -12  -1   6     437     377   1
 -11  -1   6    1547     478   1
 -10  -1   6    5539     652   1
  -9  -1   6     812     318   1
  -8  -1   6    5317     670   1
  -7  -1   6    1088     328   1
  -6  -1   6   13741    1418   1
  -5  -1   6    1103     874   1
  -4  -1   6    8600     929   1
  -3  -1   6     601     433   1
  -2  -1   6     -50     423   1
  -1  -1   6    5288     545   1
   0  -1   6   14815     843   1
  -1  -6   1   15504     869  -2
   1  -1   6   15504     869   1
  -2  -6   1   27625    1375  -2
   2  -1   6   27625    1375   1
   3  -1   6   23452    1123   1
   4  -1   6   10445     648   1
   5  -1   6   31280    1359   1
   6  -1   6   88413    6071   1
   7  -1   6    5470     896   1
   8  -1   6   33720    2708   1
   9  -1   6     379     277   1
  10  -1   6     523     324   1
  11  -1   6   17508     878   1
  12  -1   6    1134     338   1
  13  -1   6    3852     483   1
  14  -1   6    1305     528   1
  15  -1   6     277     382   1
  16  -1   6    -494     494   1
  17  -1   6     913     511   1
 -15   0   6    1474     549   1
 -14   0   6     615     420   1
 -13   0   6     579     499   1
 -12   0   6    7210     638   1
 -11   0   6    2175     521   1
 -10   0   6    1921     470   1
  -9   0   6    9760    1191   1
  -8   0   6    6234     491   1
  -7   0   6     560     299   1
  -6   0   6     454     807   1
  -5   0   6   19255    1766   1
  -4   0   6    8055     963   1
  -3   0   6   20152    1221   1
  -2   0   6   16638     940   1
  -1   0   6    5101     507   1
   0   0   6   65986    2977   1
  -1  -6   0   19769    1129  -2
   1   0   6   19769    1129   1
  -2  -6   0   17562     904  -2
   2   0   6   17562     904   1
   3   0   6   26227    1260   1
   4   0   6   12209     887   1
   5   0   6   13422     638   1
   6   0   6   17377    1489   1
   7   0   6   15479    1440   1
   8   0   6    6361     960   1
   9   0   6    8172    1094   1
  10   0   6    4575     370   1
  11   0   6    5050     429   1
  12   0   6    4279     433   1
  13   0   6   22483    1216   1
  14   0   6    7287     594   1
  15   0   6    -507     507   1
  16   0   6     136     476   1
  17   0   6    -536     580   1
 -14   1   6     502     312   1
 -13   1   6     616     515   1
 -12   1   6    4188     799   1
 -11   1   6      14     422   1
 -10   1   6     746     603   1
  -9   1   6    9451     756   1
  -8   1   6   17199    1194   1
  -7   1   6   23277    1188   1
  -6   1   6   14001     955   1
  -5   1   6    1785     796   1
  -4   1   6     660     633   1
  -3   1   6   12286    1195   1
  -2   1   6    4297     633   1
  -1   1   6    2617     496   1
   0   1   6   19463    1139   1
  -1  -6  -1   13761     845  -2
   1   1   6   13761     845   1
  -2  -6  -1     662     342  -2
   2   1   6     662     342   1
  -3  -6  -1     -52     374  -2
   3   1   6     -52     374   1
   4   1   6    5189     405   1
   5   1   6    4042     341   1
   6   1   6    5204     854   1
   7   1   6   28880    2865   1
   8   1   6    -446     603   1
   9   1   6   10548    1184   1
  10   1   6    2979     342   1
  11   1   6    6636     504   1
  12   1   6   26769    1321   1
  13   1   6    6794     524   1
  14   1   6    4113     460   1
  15   1   6    3877     509   1
  16   1   6    1446     607   1
  17   1   6    3820     729   1
  18   1   6    -351     379   1
 -14   2   6     328     392   1
 -13   2   6     679     491   1
 -12   2   6    4176    1109   1
 -11   2   6    2013     420   1
 -10   2   6    1503     556   1
  -9   2   6   12427    1045   1
  -8   2   6    2656     348   1
  -7   2   6    4999     457   1
  -6   2   6    7287     919   1
  -5   2   6     -19     713   1
  -4   2   6   10019    1193   1
  -3   2   6    1488     703   1
  -2   2   6   24674    1348   1
  -1   2   6   15021    1073   1
   0   2   6   17267    1196   1
  -1  -6  -2   29323    1754  -2
   1   2   6   29323    1754   1
  -2  -6  -2    2181     685  -2
   2   2   6    2181     685   1
  -3  -6  -2   26456    1174  -2
   3   2   6   26456    1174   1
  -4  -6  -2    9568     567  -2
   4   2   6    9568     567   1
   5   2   6   73033    2919   1
   6   2   6    3703     346   1
   7   2   6   27425    4114   1
   8   2   6    8868    1227   1
   9   2   6   52120    4346   1
  10   2   6    7868     567   1
  11   2   6   24451    1148   1
  12   2   6   13624     786   1
  13   2   6    4451     477   1
  14   2   6    4773     513   1
  15   2   6    1953     466   1
  16   2   6      67     601   1
  17   2   6    1741     540   1
  18   2   6    1222     493   1
 -14   3   6     206     651   1
 -13   3   6    5756     601   1
 -12   3   6    5847     727   1
 -11   3   6    1719     500   1
 -10   3   6      62     435   1
  -9   3   6    1772     472   1
  -8   3   6   10868     674   1
  -7   3   6    1118     377   1
  -6   3   6    7916     567   1
  -5   3   6    4193     573   1
  -4   3   6    3508    1006   1
  -3   3   6    5238    1073   1
  -2   3   6    9987    1123   1
  -1   3   6   20206    1480   1
   0   3   6    8197     722   1
  -1  -6  -3   28124    1498  -2
   1   3   6   28124    1498   1
  -2  -6  -3    3023     519  -2
   2   3   6    3023     519   1
  -3  -6  -3    7491     859  -2
   3   3   6    7491     859   1
  -4  -6  -3    8348     556  -2
   4   3   6    8348     556   1
  -5  -6  -3    8576     548  -2
   5   3   6    8576     548   1
   6   3   6    1920     308   1
   7   3   6  133904    5688   1
   8   3   6    -147     919   1
   9   3   6   24757    2858   1
  10   3   6   10979     600   1
  11   3   6     758     435   1
  12   3   6    3837     429   1
  13   3   6     641     332   1
  14   3   6    2499     565   1
  15   3   6    -418     418   1
  16   3   6     -88     419   1
  17   3   6    2979     502   1
  18   3   6     861     434   1
 -13   4   6    3316     524   1
 -12   4   6     -76     395   1
 -11   4   6     320     551   1
 -10   4   6    -166     405   1
  -9   4   6     711     453   1
  -8   4   6   15633    1035   1
  -7   4   6   14761     826   1
  -6   4   6    1252     639   1
  -5   4   6    2869     530   1
  -4   4   6   28580    2531   1
  -3   4   6    3990     920   1
  -2   4   6    -670    1035   1
  -1   4   6   58462    2889   1
   0   4   6   21348    1252   1
  -1  -6  -4     355     507  -2
   1   4   6     355     507   1
  -2  -6  -4   65130    2988  -2
   2   4   6   65130    2988   1
  -3  -6  -4   47537    2654  -2
   3   4   6   47537    2654   1
  -4  -6  -4   41321    2342  -2
   4   4   6   41321    2342   1
  -5  -6  -4    -159     361  -2
   5   4   6    -159     361   1
   6   4   6   17437    1073   1
   7   4   6   22327    1207   1
   8   4   6    4170     353   1
  10   4   6    1941     288   1
  11   4   6    1317     397   1
  12   4   6     760     376   1
  13   4   6   10293     708   1
  14   4   6    1383     429   1
  15   4   6     406     420   1
  16   4   6    -135     380   1
  17   4   6     977     509   1
  18   4   6    -160     486   1
 -13   5   6     823     789   1
 -12   5   6     329     926   1
 -11   5   6    3085    1577   1
 -10   5   6    1480     661   1
  -9   5   6    6286     814   1
  -8   5   6    6508     775   1
  -7   5   6    1416     467   1
  -6   5   6    1312     410   1
  -5   5   6    1145     388   1
  -4   5   6    1092     505   1
  -3   5   6   29412    3220   1
  -2   5   6    2070    1623   1
  -1   5   6    5946    1076   1
   0   5   6   12699     971   1
  -1  -6  -5    4342     692  -2
   1   5   6    4342     692   1
  -2  -6  -5   52652    2496  -2
   2   5   6   52652    2496   1
  -3  -6  -5    8685     864  -2
   3   5   6    8685     864   1
  -4  -6  -5    7263    1039  -2
   4   5   6    7263    1039   1
  -5  -6  -5   58035    3289  -2
   5   5   6   58035    3289   1
  -6  -6  -5  131473    8557  -2
   6   5   6  131473    8557   1
   7   5   6    2951     586   1
   8   5   6    2673     528   1
   9   5   6    8061     570   1
  10   5   6   39685    1883   1
  11   5   6   22577    1109   1
  12   5   6   35242    1678   1
  13   5   6   10568     815   1
  14   5   6   10897     897   1
  15   5   6    1099     548   1
  16   5   6    1446     613   1
  17   5   6    2125     642   1
  18   5   6    -308     634   1
 -12   6   6    -135     405   1
 -11   6   6    -653     653   1
 -10   6   6     551     355   1
  -9   6   6    1554     607   1
  -8   6   6    1999     556   1
  -7   6   6    1110     283   1
  -6   6   6     980     343   1
  -5   6   6    3600     426   1
  -4   6   6   15545    1021   1
  -3   6   6    6869     873   1
  -2   6   6   27749    2477   1
  -1   6   6   20629    1706   1
   0   6   6   34717    2428   1
  -1  -6  -6   19160    1125  -2
   1   6   6   19160    1125   1
  -2  -6  -6   86985    4506  -2
   2   6   6   86985    4506   1
  -3  -6  -6   15093    1304  -2
   3   6   6   15093    1304   1
  -4  -6  -6     517     709  -2
   4   6   6     517     709   1
  -5  -6  -6    2088     706  -2
   5   6   6    2088     706   1
  -6  -6  -6   56142    3776  -2
   6   6   6   56142    3776   1
   7   6   6   16141    1349   1
   8   6   6   21143    1608   1
   9   6   6   12694     661   1
  10   6   6    1204     222   1
  11   6   6     661     392   1
  12   6   6   14025     958   1
  13   6   6    9484     726   1
  14   6   6     217     538   1
  15   6   6     955     565   1
  16   6   6    -551     841   1
  17   6   6    -116     576   1
  18   6   6     -69     583   1
  19   6   6    -446     446   1
 -12   7   6     -88     253   1
 -11   7   6    1200     823   1
 -10   7   6    4685     723   1
  -9   7   6     656     815   1
  -8   7   6    1622     518   1
  -7   7   6    -153     544   1
  -6   7   6     295     707   1
  -5   7   6     331     601   1
  -4   7   6    8715     637   1
  -3   7   6   15704    1126   1
  -2   7   6    2826    1025   1
  -1   7   6    7526    1257   1
   0   7   6  254029   18421   1
   1   7   6   31730    1795   1
  -2  -6  -7   10488     991  -2
   2   7   6   10488     991   1
  -3  -6  -7    6989     813  -2
   3   7   6    6989     813   1
  -4  -6  -7   18123    2223  -2
   4   7   6   18123    2223   1
  -5  -6  -7   13091    1494  -2
   5   7   6   13091    1494   1
  -6  -6  -7   19766    1849  -2
   6   7   6   19766    1849   1
   7   7   6   16025    1374   1
   8   7   6   24821    1862   1
   9   7   6   11034     603   1
  10   7   6    9643     514   1
  11   7   6   12520     750   1
  12   7   6     652     350   1
  13   7   6     524     466   1
  14   7   6    4349     479   1
  15   7   6    5298     689   1
  16   7   6    1503     472   1
  17   7   6    2358     591   1
  18   7   6     274     583   1
  19   7   6    -446     446   1
 -11   8   6    -225     463   1
 -10   8   6    -295     569   1
  -9   8   6    6247     891   1
  -8   8   6     446     484   1
  -7   8   6    1156     488   1
  -6   8   6    1159     549   1
  -5   8   6    2521     591   1
  -4   8   6    1704     427   1
  -3   8   6    3902     510   1
  -2   8   6    1966     536   1
  -1   8   6    4114    1071   1
   0   8   6   27723    2109   1
   1   8   6     -53     740   1
  -2  -6  -8    4014     833  -2
   2   8   6    4014     833   1
  -3  -6  -8   11570    1276  -2
   3   8   6   11570    1276   1
  -4  -6  -8   25030    2217  -2
   4   8   6   25030    2217   1
  -5  -6  -8   47050    3702  -2
   5   8   6   47050    3702   1
  -6  -6  -8    6613     976  -2
   6   8   6    6613     976   1
  -7  -6  -8   28052    2113  -2
   7   8   6   28052    2113   1
   8   8   6   10139     598   1
   9   8   6    4076     368   1
  10   8   6    1630     265   1
  11   8   6     766     324   1
  12   8   6    1536     428   1
  13   8   6     650     641   1
  14   8   6    1857     432   1
  15   8   6    1709     621   1
  16   8   6     408     537   1
  17   8   6    2255     679   1
  18   8   6    1118     469   1
  19   8   6     103     446   1
 -11   9   6     745     531   1
 -10   9   6     960     509   1
  -9   9   6     414     501   1
  -8   9   6    -623     623   1
  -7   9   6     646     580   1
  -6   9   6     997     569   1
  -5   9   6    2511     717   1
  -4   9   6    1326     473   1
  -3   9   6     786     562   1
  -2   9   6     529     461   1
  -1   9   6    1824     619   1
   0   9   6   20207    2042   1
   1   9   6    2125    1885   1
  -2  -6  -9    5451    1714  -2
   2   9   6    5451    1714   1
  -3  -6  -9   13786    1625  -2
   3   9   6   13786    1625   1
  -4  -6  -9    7898    1280  -2
   4   9   6    7898    1280   1
  -5  -6  -9   22906    2059  -2
   5   9   6   22906    2059   1
  -6  -6  -9    1470     899  -2
   6   9   6    1470     899   1
  -7  -6  -9   45373    3042  -2
   7   9   6   45373    3042   1
   8   9   6   18980     944   1
   9   9   6   10580     630   1
  10   9   6    2927     690   1
  11   9   6    5445     491   1
  12   9   6   24869    1335   1
  13   9   6    1229     876   1
  14   9   6     100     378   1
  15   9   6    3344     405   1
  16   9   6    -295     411   1
  17   9   6   10250    1748   1
  18   9   6      34     617   1
 -10  10   6    1106     399   1
  -9  10   6     375     483   1
  -8  10   6     502     387   1
  -7  10   6     389     492   1
  -6  10   6    -369     616   1
  -5  10   6    7027     639   1
  -4  10   6    1147     449   1
  -3  10   6    1844     696   1
  -2  10   6     429     466   1
  -1  10   6    3077     618   1
   0  10   6    -107     754   1
   1  10   6    4491    1097   1
  -4  -6 -10    1179     927  -2
   4  10   6    1179     927   1
  -5  -6 -10   11739    1321  -2
   5  10   6   11739    1321   1
  -6  -6 -10   14023     984  -2
   6  10   6   14023     984   1
  -7  -6 -10    8829     654  -2
   7  10   6    8829     654   1
   8  10   6   15517     842   1
   9  10   6     328     371   1
  10  10   6     837     328   1
  11  10   6   11589     658   1
  12  10   6   12271     715   1
  13  10   6    8921     979   1
  14  10   6    2826     480   1
  15  10   6    3333     881   1
  16  10   6     743     489   1
  17  10   6     176     502   1
  18  10   6    -327     549   1
  -9  11   6     640     720   1
  -8  11   6    1418     537   1
  -7  11   6    1246     594   1
  -6  11   6     419     558   1
  -5  11   6    5482     686   1
  -4  11   6    -105     703   1
  -3  11   6    2880     574   1
  -2  11   6     200     538   1
  -1  11   6   14230    1193   1
   0  11   6    8776    1440   1
   1  11   6   20020    2537   1
   3  11   6     754     651   1
  -4  -6 -11    2231     669  -2
   4  11   6    2231     669   1
  -5  -6 -11   23876    2008  -2
   5  11   6   23876    2008   1
  -6  -6 -11    3242     520  -2
   6  11   6    3242     520   1
  -7  -6 -11   11349     836  -2
   7  11   6   11349     836   1
   8  11   6     284     328   1
   9  11   6    1443     375   1
  10  11   6   12220     930   1
  11  11   6     863     342   1
  12  11   6    9155     658   1
  13  11   6    1124     279   1
  14  11   6    1316     350   1
  15  11   6     -85     327   1
  16  11   6     179     278   1
  17  11   6    4978    1303   1
  18  11   6    -155     368   1
  -8  12   6     140     507   1
  -7  12   6    2970     398   1
  -6  12   6     331     575   1
  -5  12   6    2075     709   1
  -4  12   6    5023     757   1
  -3  12   6    -424     424   1
  -2  12   6       0     857   1
  -1  12   6    1471    1080   1
   0  12   6    1646     891   1
   1  12   6   17860    2434   1
   2  12   6      69     926   1
   3  12   6    4217     789   1
  -4  -6 -12    8056    1303  -2
   4  12   6    8056    1303   1
  -5  -6 -12    8486    1193  -2
   5  12   6    8486    1193   1
  -6  -6 -12   12423    1399  -2
   6  12   6   12423    1399   1
  -7  -6 -12     681     752  -2
   7  12   6     681     752   1
   8  12   6   10291     658   1
   9  12   6    3290     409   1
  10  12   6     487     284   1
  11  12   6    3409     636   1
  12  12   6    8225     841   1
  13  12   6    3962     499   1
  14  12   6    2833     489   1
  15  12   6    2974     405   1
  16  12   6    2973     452   1
  17  12   6      21     436   1
  18  12   6    3526     535   1
  -8  13   6     171     377   1
  -7  13   6     770     686   1
  -6  13   6     362     397   1
  -5  13   6     477     599   1
  -4  13   6     348     678   1
  -3  13   6    2629     489   1
  -2  13   6     533     703   1
  -1  13   6    5085    1217   1
   0  13   6    3007     780   1
   1  13   6    8159    1440   1
   2  13   6    -617     617   1
   4  13   6   33767    4045   1
  -5  -6 -13    2331     789  -2
   5  13   6    2331     789   1
  -6  -6 -13   36317    3171  -2
   6  13   6   36317    3171   1
  -7  -6 -13    1423     499  -2
   7  13   6    1423     499   1
   8  13   6    3371     443   1
   9  13   6     973     436   1
  10  13   6    4763     504   1
  11  13   6     182     416   1
  12  13   6    4501     563   1
  13  13   6     639     346   1
  14  13   6     934     413   1
  15  13   6    -261     437   1
  16  13   6     885     446   1
  17  13   6     915    1406   1
  -7  14   6     -56     399   1
  -6  14   6     177    1080   1
  -5  14   6     334     568   1
  -4  14   6     187     707   1
  -3  14   6     473     275   1
  -2  14   6    7462     786   1
  -1  14   6     139     634   1
   0  14   6     765     741   1
   1  14   6    -240     891   1
   2  14   6   19403    2640   1
   3  14   6    1692     550   1
   4  14   6   56152    6651   1
  -5  -6 -14    6171    1131  -2
   5  14   6    6171    1131   1
  -6  -6 -14    3360     891  -2
   6  14   6    3360     891   1
  -7  -6 -14    5535    1272  -2
   7  14   6    5535    1272   1
   8  14   6      -4     733   1
   9  14   6    2033     431   1
  10  14   6     636     323   1
  11  14   6    -107     505   1
  12  14   6    -451     492   1
  13  14   6    1416     450   1
  14  14   6    3065     666   1
  15  14   6     376     437   1
  16  14   6     321     393   1
  17  14   6    -137     617   1
  -6  15   6     883     361   1
  -5  15   6     -24     681   1
  -4  15   6    1557     554   1
  -3  15   6    5136    1461   1
  -2  15   6    1346    1158   1
  -1  15   6    -111     459   1
   0  15   6     -59     806   1
   1  15   6     857     891   1
   2  15   6    2468    1028   1
   3  15   6     -34     428   1
   4  15   6    6616    1200   1
   5  15   6    4457     994   1
  -6  -6 -15    1440     789  -2
   6  15   6    1440     789   1
  -7  -6 -15    -260     516  -2
   7  15   6    -260     516   1
   8  15   6    3224     945   1
   9  15   6    5162     675   1
  10  15   6    5023     533   1
  11  15   6    2785     445   1
  12  15   6     483     394   1
  13  15   6     411     480   1
  14  15   6    -329     391   1
  15  15   6     628     356   1
  16  15   6     128     583   1
  -4  16   6    -281     362   1
  -3  16   6    1056     538   1
  -2  16   6    -508     560   1
  -1  16   6      83     425   1
   0  16   6     187     477   1
   1  16   6     290     684   1
   2  16   6    1097     926   1
   3  16   6    1324    1286   1
   4  16   6     512     686   1
   5  16   6    2228     891   1
  -6  -6 -16    1878     626  -2
   6  16   6    1878     626   1
  -7  -6 -16    1256     447  -2
   7  16   6    1256     447   1
   8  16   6     759     459   1
   9  16   6     557     418   1
  10  16   6    3916     584   1
  11  16   6    1514     410   1
  12  16   6    1512     455   1
  13  16   6    4993     821   1
  14  16   6     573     771   1
  15  16   6     794     426   1
  16  16   6      27     394   1
  -3  17   6       9     350   1
  -2  17   6     635     737   1
  -1  17   6    3771     773   1
   0  17   6    -176     371   1
   1  17   6    3839     604   1
   2  17   6     209     609   1
   3  17   6    2909     558   1
   4  17   6    5711    1697   1
   5  17   6    1366     532   1
   6  17   6    1783     789   1
  -7  -6 -17    2750     615  -2
   7  17   6    2750     615   1
  -8  -6 -17    3400     664  -2
   8  17   6    3400     664   1
   9  17   6     881    1166   1
  10  17   6     355    1028   1
  11  17   6   19900    1842   1
  12  17   6     425     384   1
  13  17   6     933     350   1
  14  17   6     594     428   1
  15  17   6     332     399   1
  -1  18   6     211     420   1
   0  18   6     204     497   1
   1  18   6    -108     540   1
   2  18   6     101     825   1
   3  18   6     305     345   1
   4  18   6      30    1028   1
   5  18   6    3536     591   1
   6  18   6    1094     840   1
  -7  -6 -18    1577     514  -2
   7  18   6    1577     514   1
  -8  -6 -18    2635     531  -2
   8  18   6    2635     531   1
   9  18   6     718     583   1
  10  18   6    -583     583   1
  11  18   6    1732     563   1
  12  18   6     332     381   1
  13  18   6     232     357   1
  14  18   6     751     337   1
   0  19   6     789     720   1
   1  19   6     651     651   1
   2  19   6      92     235   1
   3  19   6    -252     337   1
   4  19   6     257     360   1
   5  19   6    1417     926   1
   6  19   6     235     336   1
  -7  -6 -19     278     399  -2
   7  19   6     278     399   1
  -8  -6 -19    2021     806  -2
   8  19   6    2021     806   1
   9  19   6     762     294   1
  10  19   6    2073     943   1
  11  19   6    1488    1697   1
  12  19   6    -283     283   1
   4  20   6     -10     254   1
   5  20   6    2461     446   1
   6  20   6     226     651   1
   7  20   6    1005     285   1
  -8  -6 -20    1158     250  -2
   8  20   6    1158     250   1
   9  20   6     943     388   1
  10  20   6      69     480   1
  11  20   6    1303     549   1
  -3 -19   7    1131     617   1
  -2 -19   7    -206     343   1
  -8 -18   7     -90     274   1
  -7 -18   7     703     339   1
  -6 -18   7    -233     288   1
  -5 -18   7    1657     279   1
  -4 -18   7     115     280   1
   3  -7  18     754     582  -2
  -3 -18   7     754     582   1
  -2 -18   7    1319     626   1
  -1 -18   7    -234     590   1
   0 -18   7     751     545   1
   1 -18   7    1508     960   1
   2 -18   7    -321     375   1
  -9 -17   7    1280     327   1
  -8 -17   7    -150     806   1
  -7 -17   7     472     377   1
  -6 -17   7    5126    1868   1
  -5 -17   7     509     624   1
  -4 -17   7      38     460   1
   3  -7  17     874     331  -2
  -3 -17   7     874     331   1
  -2 -17   7     943     679   1
  -1 -17   7     802     639   1
   0 -17   7    1019     545   1
   1 -17   7     488     629   1
   2 -17   7    -394     532   1
   3 -17   7     435     531   1
   4 -17   7     206     412   1
 -11 -16   7     101     497   1
 -10 -16   7    -171     223   1
  -9 -16   7    1188     361   1
  -8 -16   7     -57     463   1
  -7 -16   7    2134     874   1
  -6 -16   7    1364     542   1
  -5 -16   7    1775     771   1
  -4 -16   7     553     510   1
   3  -7  16     167     508  -2
  -3 -16   7     167     508   1
  -2 -16   7    2149     709   1
  -1 -16   7    1280     665   1
   0 -16   7    -737     737   1
   1 -16   7     781     737   1
   2 -16   7    2721     839   1
   3 -16   7    -296     566   1
   4 -16   7    1331     642   1
   5 -16   7    -164     434   1
   6 -16   7       0     549   1
 -12 -15   7     422     420   1
 -11 -15   7    1035     634   1
 -10 -15   7     331     463   1
  -9 -15   7     641     463   1
  -8 -15   7     994     386   1
  -7 -15   7    1351     404   1
  -6 -15   7     608     404   1
  -5 -15   7    2475     994   1
  -4 -15   7     189     494   1
  -3 -15   7    2574    1067   1
   2  -7  15     104     622  -2
  -2 -15   7     104     622   1
  -1 -15   7     778     454   1
   0 -15   7    3491     849   1
   1 -15   7    3307     817   1
   2 -15   7    6202     897   1
   3 -15   7    1985     810   1
   4 -15   7     594     710   1
   5 -15   7     -51     414   1
   6 -15   7     448     300   1
   7 -15   7     771     461   1
 -13 -14   7     137     343   1
 -12 -14   7     549     428   1
 -11 -14   7     479     703   1
 -10 -14   7     590     480   1
  -9 -14   7     549     411   1
  -8 -14   7    2571     556   1
  -7 -14   7     946     418   1
  -6 -14   7     220     493   1
  -5 -14   7    -368     737   1
  -4 -14   7    2301     836   1
  -3 -14   7   11600    1619   1
   2  -7  14     619     563  -2
  -2 -14   7     619     563   1
  -1 -14   7    2571     591   1
   0 -14   7     -17     327   1
   1 -14   7    -429     875   1
   2 -14   7    1679     768   1
   3 -14   7      87     641   1
   4 -14   7    5154     791   1
   5 -14   7     195     611   1
   6 -14   7    -250     516   1
   7 -14   7     746     351   1
   8 -14   7    1685     874   1
 -13 -13   7    1906     805   1
 -12 -13   7    3251     593   1
 -11 -13   7    -189     297   1
 -10 -13   7    5587     723   1
  -9 -13   7    -279     353   1
  -8 -13   7     309     686   1
  -7 -13   7    -193     908   1
  -6 -13   7    3048     586   1
  -5 -13   7     754     720   1
  -4 -13   7     521     917   1
  -3 -13   7    1980     787   1
   2  -7  13    2243     684  -2
  -2 -13   7    2243     684   1
  -1 -13   7     821     548   1
   0 -13   7    5297    1047   1
   1 -13   7     744     818   1
   2 -13   7    4513     839   1
   3 -13   7     657     559   1
   4 -13   7     112     533   1
   5 -13   7    -145     643   1
   6 -13   7    1604     992   1
   7 -13   7      33     393   1
   8 -13   7      85     720   1
   9 -13   7     357    1183   1
  10 -13   7    -343     617   1
 -14 -12   7    -309     583   1
 -13 -12   7      30     381   1
 -12 -12   7    -506     569   1
 -11 -12   7    1303     373   1
 -10 -12   7     651     428   1
  -9 -12   7    1264     531   1
  -8 -12   7    3154     686   1
  -7 -12   7     -69     480   1
  -6 -12   7    -633     651   1
  -5 -12   7     686    1028   1
  -4 -12   7     480     677   1
  -3 -12   7    -842     842   1
   2  -7  12     -85     931  -2
  -2 -12   7     -85     931   1
   1  -7  12    1345     574  -2
  -1 -12   7    1345     574   1
   0 -12   7     224     981   1
   1 -12   7     701     570   1
   2 -12   7     889     708   1
   3 -12   7    3270     678   1
   4 -12   7    4794    1155   1
   5 -12   7      71     538   1
   6 -12   7     500     670   1
   7 -12   7     302     550   1
   8 -12   7     305     479   1
   9 -12   7     681     510   1
  10 -12   7    2496     593   1
  11 -12   7     206     617   1
 -14 -11   7     240     483   1
 -13 -11   7     452     455   1
 -12 -11   7    3238     633   1
 -11 -11   7    7000     701   1
 -10 -11   7     558     480   1
  -9 -11   7    -161     378   1
  -8 -11   7    3497     857   1
  -7 -11   7     480     686   1
  -6 -11   7    5691    1063   1
  -5 -11   7    1577     823   1
  -4 -11   7   44242    4400   1
  -3 -11   7   23943    2642   1
  -2 -11   7    -644     644   1
   1  -7  11    2132     596  -2
  -1 -11   7    2132     596   1
   0 -11   7     354     477   1
   1 -11   7      87     637   1
   2 -11   7    2867     440   1
   3 -11   7     932     522   1
   4 -11   7    2354     586   1
   5 -11   7     134     553   1
   6 -11   7    1838     732   1
   7 -11   7      73     582   1
   8 -11   7      24     444   1
   9 -11   7    2209     621   1
  10 -11   7     594     641   1
  11 -11   7     209     549   1
 -14 -10   7    -411     411   1
 -13 -10   7    4222     880   1
 -12 -10   7    -791    1611   1
 -11 -10   7     409     350   1
 -10 -10   7     884     436   1
  -9 -10   7     366     407   1
  -8 -10   7    7885    1268   1
  -7 -10   7    1920     754   1
  -6 -10   7    4799     960   1
  -4 -10   7    8467    1611   1
  -3 -10   7    4703     915   1
  -2 -10   7    5454     758   1
   1  -7  10   10503    1109  -2
  -1 -10   7   10503    1109   1
   0 -10   7    2613     528   1
   1 -10   7    3018     498   1
   2 -10   7    6037     473   1
   3 -10   7    8680     757   1
   4 -10   7    2424     480   1
   5 -10   7    8400     685   1
   6 -10   7    -569     569   1
   7 -10   7    2933     730   1
   8 -10   7     421     846   1
   9 -10   7     765     627   1
  10 -10   7    1138     672   1
  11 -10   7    1204     922   1
  12 -10   7     313     543   1
 -15  -9   7     556     304   1
 -14  -9   7    2811     926   1
 -13  -9   7     612     371   1
 -12  -9   7    2851     527   1
 -11  -9   7    -320     328   1
 -10  -9   7     478     330   1
  -9  -9   7     401     503   1
  -8  -9   7    1046     472   1
  -7  -9   7     377     651   1
  -6  -9   7   19540    2468   1
  -4  -9   7    3490    1036   1
  -3  -9   7     682     663   1
  -2  -9   7    5720     830   1
   1  -7   9    8512     860  -2
  -1  -9   7    8512     860   1
   0  -7   9   25656    1467  -2
   0  -9   7   25656    1467   1
   1  -9   7    2591     543   1
   2  -9   7    -351     351   1
   3  -9   7    3376     503   1
   4  -9   7    1267     507   1
   5  -9   7    5589     546   1
   6  -9   7    5711     804   1
   7  -9   7   13705    1049   1
   8  -9   7   12458    1085   1
   9  -9   7    2916     810   1
  10  -9   7    -595     714   1
  11  -9   7     969     775   1
  12  -9   7    1063     692   1
  13  -9   7      -6     857   1
 -15  -8   7    1495     368   1
 -14  -8   7    5686    1234   1
 -13  -8   7     391     478   1
 -12  -8   7    1758     553   1
 -11  -8   7     218     442   1
 -10  -8   7    3317     480   1
  -9  -8   7    7335    1131   1
  -8  -8   7    5965     698   1
  -7  -8   7     411     617   1
  -6  -8   7    1131     651   1
  -4  -8   7    8330    2845   1
  -3  -8   7    4259    1316   1
  -2  -8   7   26138    2011   1
  -1  -8   7   29592    2206   1
   0  -7   8   72390    4226  -2
   0  -8   7   72390    4226   1
   1  -8   7   12935     868   1
   2  -8   7   14964     885   1
   3  -8   7    7413     594   1
   4  -8   7    2425     434   1
   5  -8   7   14471     843   1
   6  -8   7    3305     650   1
   7  -8   7   13036    1050   1
   8  -8   7   14587    1106   1
   9  -8   7    2073     346   1
  10  -8   7    1240     681   1
  11  -8   7     495     598   1
  12  -8   7     213     741   1
  13  -8   7     558     789   1
  14  -8   7    1429     874   1
 -15  -7   7    1072     424   1
 -14  -7   7     933     651   1
 -13  -7   7     -61     515   1
 -12  -7   7    1105     606   1
 -11  -7   7    4915     501   1
 -10  -7   7    -284     767   1
  -9  -7   7    2451     437   1
  -8  -7   7    5770     953   1
  -7  -7   7     901     578   1
  -6  -7   7    1246     651   1
  -5  -7   7   11479    1306   1
  -4  -7   7    -570    1058   1
  -3  -7   7    2643     847   1
  -2  -7   7   15738    1870   1
  -1  -7   7   21696    2263   1
   0  -7   7   66768    5278  -2
   0  -7   7   66768    5278   1
   1  -7   7   19407    2057   1
   2  -7   7   15305    1781   1
   3  -7   7    6195     535   1
   4  -7   7    -283     397   1
   5  -7   7    1451     412   1
   6  -7   7    3435     544   1
   7  -7   7   13566     943   1
   8  -7   7   16101    1060   1
   9  -7   7    7839     961   1
  10  -7   7    1227     689   1
  11  -7   7    4110     784   1
  12  -7   7    2636     813   1
  13  -7   7    1378     741   1
  14  -7   7    1162     615   1
 -15  -6   7     262     410   1
 -14  -6   7     -14     511   1
 -13  -6   7    3098     516   1
 -12  -6   7    1128     505   1
 -11  -6   7    4873     745   1
 -10  -6   7    2578     551   1
  -9  -6   7    5585    1064   1
  -8  -6   7    4527     936   1
  -7  -6   7    1348     429   1
  -6  -6   7     216     387   1
  -5  -6   7    -514    1097   1
  -4  -6   7    2605    1200   1
  -3  -6   7   15398    1502   1
  -2  -6   7   16201    1866   1
  -1  -6   7     510    1103   1
   0  -7   6  312366   22770  -2
   0  -6   7  312366   22770   1
  -1  -7   6   39241    3412  -2
   1  -6   7   39241    3412   1
   2  -6   7    1887    1349   1
   3  -6   7   14862    1608   1
   4  -6   7    1038     561   1
   5  -6   7     864     426   1
   6  -6   7     446     434   1
   7  -6   7    8258     988   1
   8  -6   7    5489     722   1
   9  -6   7   12417    1115   1
  10  -6   7    -759     759   1
  11  -6   7    6351     841   1
  12  -6   7    7933     871   1
  13  -6   7    -617     617   1
  14  -6   7     955     995   1
  15  -6   7     331     545   1
 -15  -5   7     718     926   1
 -14  -5   7    1155     478   1
 -13  -5   7     494     388   1
 -12  -5   7     414     472   1
 -11  -5   7    7374     797   1
 -10  -5   7    -381     381   1
  -9  -5   7    1554     428   1
  -8  -5   7    6067     789   1
  -7  -5   7   18382    1252   1
  -6  -5   7     775     457   1
  -5  -5   7    1304     741   1
  -4  -5   7    1067     698   1
  -3  -5   7    1829     756   1
  -2  -5   7    2376     960   1
  -1  -5   7   69020    4952   1
   0  -7   5  107491    7926  -2
   0  -5   7  107491    7926   1
  -1  -7   5   16122    1837  -2
   1  -5   7   16122    1837   1
   2  -5   7   18326    1896   1
   3  -5   7   18540    2991   1
   4  -5   7    9698    1249   1
   5  -5   7    2914     839   1
   6  -5   7   19007    1147   1
   7  -5   7     714     322   1
   8  -5   7      55     414   1
   9  -5   7    2529     554   1
  10  -5   7    3330     734   1
  11  -5   7     776     498   1
  12  -5   7    1626     631   1
  13  -5   7    7279     909   1
  14  -5   7    1930     653   1
  15  -5   7     209     578   1
 -15  -4   7     317     346   1
 -14  -4   7    1251     558   1
 -13  -4   7     625     388   1
 -12  -4   7     706     461   1
 -11  -4   7   10666    1002   1
 -10  -4   7    1856     442   1
  -9  -4   7    1248     361   1
  -8  -4   7    6663     920   1
  -7  -4   7    5786     825   1
  -6  -4   7    2240     434   1
  -5  -4   7   16655    1623   1
  -4  -4   7    2713     750   1
  -3  -4   7     960     531   1
  -2  -4   7   11908    2279   1
  -1  -4   7   24731    2113   1
   0  -4   7   13788    1478   1
  -1  -7   4    4779    1702  -2
   1  -4   7    4779    1702   1
   2  -4   7    6189     915   1
   3  -4   7   18919    1568   1
   4  -4   7   15850    1928   1
   5  -4   7   14054    1318   1
   6  -4   7    6085    1816   1
   7  -4   7    8111     623   1
   8  -4   7   19917    1000   1
   9  -4   7    2701     472   1
  10  -4   7    1015     560   1
  11  -4   7    1096     553   1
  12  -4   7     906     585   1
  13  -4   7   15739    1276   1
  14  -4   7    2779     840   1
  15  -4   7    -158     535   1
  16  -4   7    -281     891   1
 -15  -3   7     569     600   1
 -14  -3   7    1004     436   1
 -13  -3   7    -634     634   1
 -12  -3   7   12811    1012   1
 -11  -3   7    5722     668   1
 -10  -3   7     446     350   1
  -9  -3   7    -322     322   1
  -8  -3   7     -28     303   1
  -7  -3   7    -393     393   1
  -6  -3   7    3025     458   1
  -5  -3   7    8255    1028   1
  -4  -3   7   11765    1448   1
  -3  -3   7   21159    1994   1
  -2  -3   7   16253    1328   1
  -1  -3   7    3087    1393   1
   0  -3   7    6706    1219   1
  -1  -7   3   78938    4594  -2
   1  -3   7   78938    4594   1
  -2  -7   3    6582     856  -2
   2  -3   7    6582     856   1
   3  -3   7    7182    1089   1
   4  -3   7     368     346   1
   5  -3   7    2029     319   1
   6  -3   7   38535    6788   1
   7  -3   7    -305     604   1
   8  -3   7    5284     419   1
   9  -3   7     408     395   1
  10  -3   7    2409     561   1
  11  -3   7    7746     612   1
  12  -3   7    1625     437   1
  13  -3   7    7921     646   1
  14  -3   7     333     559   1
  15  -3   7    4633    1046   1
  16  -3   7     489    1234   1
 -14  -2   7    -275     336   1
 -13  -2   7    -444     444   1
 -12  -2   7    2657     539   1
 -11  -2   7      57     505   1
 -10  -2   7     252     246   1
  -9  -2   7    4529     839   1
  -8  -2   7   16101     917   1
  -7  -2   7    -111     292   1
  -6  -2   7    -635     718   1
  -5  -2   7    2433     751   1
  -4  -2   7    1733     649   1
  -3  -2   7     -72     513   1
  -2  -2   7     854     458   1
  -1  -2   7   23146    1316   1
   0  -2   7   19939    1398   1
  -1  -7   2    8490     875  -2
   1  -2   7    8490     875   1
  -2  -7   2   13650    1034  -2
   2  -2   7   13650    1034   1
   3  -2   7   24400    1242   1
   4  -2   7   16020     827   1
   5  -2   7     507     688   1
   6  -2   7   38987    3393   1
   7  -2   7    6717    1309   1
   8  -2   7   13219     989   1
   9  -2   7    4822     376   1
  10  -2   7   30306    1321   1
  11  -2   7    2001     326   1
  12  -2   7     -68     327   1
  13  -2   7    2419     387   1
  14  -2   7    1480     702   1
  15  -2   7    3362     673   1
  16  -2   7    1224     789   1
  17  -2   7    -274     686   1
 -14  -1   7    1913     840   1
 -13  -1   7     440     774   1
 -12  -1   7    3167     490   1
 -11  -1   7    4175     570   1
 -10  -1   7    -716     830   1
  -9  -1   7    2286     381   1
  -8  -1   7    1385     416   1
  -7  -1   7    2485     334   1
  -6  -1   7    5225     549   1
  -5  -1   7    6066     918   1
  -4  -1   7    1023     626   1
  -3  -1   7    1732     749   1
  -2  -1   7    1151     563   1
  -1  -1   7     597     549   1
   0  -1   7   30938    1591   1
  -1  -7   1   15982    1209  -2
   1  -1   7   15982    1209   1
  -2  -7   1    1738     633  -2
   2  -1   7    1738     633   1
   3  -1   7   40468    1792   1
   4  -1   7   22769    1138   1
   5  -1   7    1352    1015   1
   6  -1   7   56438    5878   1
   7  -1   7   45361    3869   1
   8  -1   7    1607     935   1
   9  -1   7   10857     597   1
  10  -1   7    2407     409   1
  11  -1   7    5062     436   1
  12  -1   7    6331     481   1
  13  -1   7    1230     342   1
  14  -1   7     582     332   1
  15  -1   7     589     417   1
  16  -1   7    -365     633   1
  17  -1   7     411     754   1
 -14   0   7    -124     415   1
 -13   0   7    -201     370   1
 -12   0   7     198     384   1
 -11   0   7    -434     434   1
 -10   0   7    3482     568   1
  -9   0   7     117     329   1
  -8   0   7     835     376   1
  -7   0   7    1745     319   1
  -6   0   7    9863     682   1
  -5   0   7    6184     913   1
  -4   0   7    6752     962   1
  -3   0   7    7951    1189   1
  -2   0   7    2059    1059   1
  -1   0   7   10150     806   1
   0   0   7     140     480   1
   1   0   7    -678    1003   1
  -2  -7   0   10690     932  -2
   2   0   7   10690     932   1
  -3  -7   0   30407    1448  -2
   3   0   7   30407    1448   1
   4   0   7   36407    1648   1
   5   0   7   19372    1056   1
   6   0   7   15882    2216   1
   7   0   7     453     990   1
   8   0   7    4893    1215   1
   9   0   7    1647     436   1
  10   0   7   42419    1736   1
  11   0   7    2372     351   1
  12   0   7    -134     353   1
  13   0   7    1229     370   1
  14   0   7    1411     359   1
  15   0   7     645     514   1
  16   0   7     330     427   1
  17   0   7     -19     469   1
 -14   1   7     -36     256   1
 -13   1   7    1121     524   1
 -12   1   7    3915     579   1
 -11   1   7    -341     494   1
 -10   1   7     172     688   1
  -9   1   7    5604     483   1
  -8   1   7    4571     517   1
  -7   1   7    1332     312   1
  -6   1   7     567     298   1
  -5   1   7     988     466   1
  -4   1   7    1757     762   1
  -3   1   7   24528    1901   1
  -2   1   7   16719    1056   1
  -1   1   7    5904     627   1
   0   1   7   38243    1845   1
   1   1   7    7034     694   1
  -2  -7  -1   20826    1388  -2
   2   1   7   20826    1388   1
  -3  -7  -1   15287     967  -2
   3   1   7   15287     967   1
   4   1   7    8477     618   1
   5   1   7   11943     691   1
   6   1   7    1055     272   1
   7   1   7    1386    1241   1
   8   1   7     470     814   1
   9   1   7    9924    1291   1
  10   1   7     978     315   1
  11   1   7    9456     578   1
  12   1   7     950     331   1
  13   1   7    1557     370   1
  14   1   7    8720     615   1
  15   1   7    2701     599   1
  16   1   7    1009     674   1
  17   1   7    2693     982   1
  18   1   7       0     549   1
 -13   2   7    1477     405   1
 -12   2   7     456     400   1
 -11   2   7    1012     426   1
 -10   2   7    6415     713   1
  -9   2   7   16795    1180   1
  -8   2   7   23749    1306   1
  -7   2   7    5108     479   1
  -6   2   7    1889     364   1
  -5   2   7      85     427   1
  -4   2   7    -465     664   1
  -3   2   7    7418    1182   1
  -2   2   7   12312    1029   1
  -1   2   7   21641    2233   1
   0   2   7   13414     871   1
   1   2   7   50388    2376   1
  -2  -7  -2    5525     761  -2
   2   2   7    5525     761   1
  -3  -7  -2   37490    2035  -2
   3   2   7   37490    2035   1
  -4  -7  -2   15202     929  -2
   4   2   7   15202     929   1
   5   2   7   13863     792   1
   6   2   7    1324     294   1
   7   2   7   88756    7838   1
   8   2   7     612     681   1
   9   2   7   60110    3332   1
  10   2   7    1810     345   1
  11   2   7   11450     692   1
  12   2   7    9933     641   1
  13   2   7     112     357   1
  14   2   7     930     362   1
  15   2   7      23     364   1
  16   2   7     964     858   1
  17   2   7     480     373   1
  18   2   7       0     549   1
 -13   3   7    -111     617   1
 -12   3   7    6204     932   1
 -11   3   7     -29     421   1
 -10   3   7      21     434   1
  -9   3   7     819     526   1
  -8   3   7     316     292   1
  -7   3   7     484     429   1
  -6   3   7    4456     534   1
  -5   3   7   12126     822   1
  -4   3   7    2251    1049   1
  -3   3   7     115     946   1
  -2   3   7   10766    1871   1
  -1   3   7   63062    3214   1
   0   3   7    3626     767   1
   1   3   7   22985    1855   1
  -2  -7  -3     412     558  -2
   2   3   7     412     558   1
  -3  -7  -3   13913    1304  -2
   3   3   7   13913    1304   1
  -4  -7  -3   39976    2128  -2
   4   3   7   39976    2128   1
  -5  -7  -3   21449    1037  -2
   5   3   7   21449    1037   1
   6   3   7    5231     428   1
   7   3   7   11094    1954   1
   8   3   7    9624    1214   1
   9   3   7    4090     785   1
  10   3   7    1588     212   1
  11   3   7    5430     499   1
  12   3   7    5084     547   1
  13   3   7   11411     741   1
  14   3   7      75     346   1
  15   3   7     -34     376   1
  16   3   7     799     397   1
  17   3   7     357     459   1
  18   3   7     -72     450   1
 -13   4   7    1939     361   1
 -12   4   7    1331     476   1
 -11   4   7    5817     840   1
 -10   4   7     503     448   1
  -9   4   7    5113     815   1
  -8   4   7    2742     538   1
  -7   4   7    1479     496   1
  -6   4   7     371     412   1
  -5   4   7    1199     364   1
  -4   4   7    -711     711   1
  -3   4   7    7711    1251   1
  -2   4   7   14635    1814   1
  -1   4   7   20234    1581   1
   0   4   7    8783     921   1
  -1  -7  -4   60539    2976  -2
   1   4   7   60539    2976   1
  -2  -7  -4    7118     879  -2
   2   4   7    7118     879   1
  -3  -7  -4   64341    3499  -2
   3   4   7   64341    3499   1
  -4  -7  -4    7959     698  -2
   4   4   7    7959     698   1
  -5  -7  -4   83434    4964  -2
   5   4   7   83434    4964   1
  -6  -7  -4   21983    1621  -2
   6   4   7   21983    1621   1
   7   4   7   10554     732   1
   8   4   7    2647     327   1
   9   4   7    2065     331   1
  10   4   7    8894     531   1
  11   4   7     725     386   1
  12   4   7    8810     713   1
  13   4   7    4838     609   1
  14   4   7     739     442   1
  15   4   7    6276     687   1
  16   4   7    -379     441   1
  17   4   7     561     514   1
  18   4   7    1337     448   1
 -12   5   7    2851     493   1
 -11   5   7    -451     679   1
 -10   5   7    2688     730   1
  -9   5   7    -403     493   1
  -8   5   7    1169    1090   1
  -7   5   7    9764     815   1
  -6   5   7    2022     434   1
  -5   5   7   33274    1847   1
  -4   5   7    1472     449   1
  -3   5   7    7467    1237   1
  -2   5   7    3604    1446   1
  -1   5   7    2150     949   1
   0   5   7   74460    4042   1
  -1  -7  -5   72427    3740  -2
   1   5   7   72427    3740   1
  -2  -7  -5   14787    1318  -2
   2   5   7   14787    1318   1
  -3  -7  -5   48082    3153  -2
   3   5   7   48082    3153   1
  -4  -7  -5   51810    3657  -2
   4   5   7   51810    3657   1
  -5  -7  -5   14337    1499  -2
   5   5   7   14337    1499   1
  -6  -7  -5   39661    2811  -2
   6   5   7   39661    2811   1
   7   5   7    9630     932   1
   8   5   7   17883    1370   1
   9   5   7    6701     402   1
  10   5   7    2020     313   1
  11   5   7     693     250   1
  12   5   7   15074     868   1
  13   5   7   58068    3425   1
  14   5   7     -90     428   1
  15   5   7     241     519   1
  16   5   7    4889     746   1
  17   5   7     608     497   1
  18   5   7    4129    1234   1
 -12   6   7    1292     531   1
 -11   6   7     694     503   1
 -10   6   7     268     365   1
  -9   6   7    2541     537   1
  -8   6   7    5919     910   1
  -7   6   7     841     447   1
  -6   6   7    8345    1021   1
  -5   6   7    1392     589   1
  -4   6   7    5086     628   1
  -3   6   7   14507    1070   1
  -2   6   7     400    1073   1
  -1   6   7   34060    2848   1
   0   6   7  224541   16411   1
   1   6   7   13697    2474   1
  -2  -7  -6    3182     765  -2
   2   6   7    3182     765   1
  -3  -7  -6    6237    1376  -2
   3   6   7    6237    1376   1
  -4  -7  -6   13401    1447  -2
   4   6   7   13401    1447   1
  -5  -7  -6    6607    1036  -2
   5   6   7    6607    1036   1
  -6  -7  -6    6072     806  -2
   6   6   7    6072     806   1
   7   6   7   21868    1670   1
   8   6   7   28075    2059   1
   9   6   7    1174     248   1
  10   6   7     534     201   1
  11   6   7    9540     682   1
  12   6   7    7921     589   1
  13   6   7    1073     488   1
  14   6   7    2010     463   1
  15   6   7     286     481   1
  16   6   7     -96     473   1
  17   6   7     233     511   1
  18   6   7    -140     434   1
  19   6   7     137     480   1
 -11   7   7    -379     379   1
 -10   7   7     487     501   1
  -9   7   7     609     424   1
  -8   7   7    1191     968   1
  -7   7   7    1490     772   1
  -6   7   7     807     759   1
  -5   7   7    -101     345   1
  -4   7   7    2982     418   1
  -3   7   7    1319     757   1
  -2   7   7   12747    1430   1
  -1   7   7   51067    4059   1
   0   7   7   36444    3667   1
   1   7   7   25875    2040   1
  -2  -7  -7   16140    1444  -2
   2   7   7   16140    1444   1
  -3  -7  -7   20383    2345  -2
   3   7   7   20383    2345   1
  -4  -7  -7   11381    1354  -2
   4   7   7   11381    1354   1
  -5  -7  -7    5291    1150  -2
   5   7   7    5291    1150   1
  -6  -7  -7   31136    2278  -2
   6   7   7   31136    2278   1
  -7  -7  -7    1322     752  -2
   7   7   7    1322     752   1
   8   7   7   20947    1146   1
   9   7   7   13363     658   1
  10   7   7   21547     949   1
  11   7   7    1551     347   1
  12   7   7    6201     540   1
  13   7   7    3623     566   1
  14   7   7    1741     251   1
  15   7   7     -34     582   1
  16   7   7    -518     518   1
  17   7   7     370     506   1
  18   7   7    -126     424   1
  19   7   7     274     480   1
 -11   8   7     156     303   1
 -10   8   7     507     456   1
  -9   8   7      28     359   1
  -8   8   7    2966     501   1
  -7   8   7      18     574   1
  -6   8   7    5389     529   1
  -5   8   7     688     376   1
  -4   8   7   11043     805   1
  -3   8   7    9925     856   1
  -2   8   7   16834    1203   1
  -1   8   7    2045     689   1
   0   8   7   59046    6084   1
   1   8   7   10737    1818   1
  -2  -7  -8    1254     790  -2
   2   8   7    1254     790   1
  -3  -7  -8   50668    4045  -2
   3   8   7   50668    4045   1
  -4  -7  -8    8466    1201  -2
   4   8   7    8466    1201   1
  -5  -7  -8    3610    1029  -2
   5   8   7    3610    1029   1
  -6  -7  -8   10792    1356  -2
   6   8   7   10792    1356   1
  -7  -7  -8    5344     581  -2
   7   8   7    5344     581   1
   8   8   7    -188     201   1
   9   8   7   12109     627   1
  10   8   7    2647     490   1
  11   8   7    1221     252   1
  12   8   7    1579     624   1
  13   8   7      97     344   1
  14   8   7    3760     479   1
  15   8   7     406     686   1
  16   8   7     -20     438   1
  17   8   7     336     408   1
  18   8   7    -343     583   1
  19   8   7    -343     446   1
 -10   9   7     661     368   1
  -9   9   7     679     493   1
  -8   9   7     930     449   1
  -7   9   7    1382     856   1
  -6   9   7     503     757   1
  -5   9   7     469     399   1
  -4   9   7     353     459   1
  -3   9   7    4482     602   1
  -2   9   7     816     455   1
  -1   9   7    5843     984   1
   0   9   7   29250    4011   1
   1   9   7   14604    3051   1
   2   9   7    8844    2228   1
  -3  -7  -9    4557    1300  -2
   3   9   7    4557    1300   1
  -4  -7  -9    5073    1244  -2
   4   9   7    5073    1244   1
  -5  -7  -9    1706     460  -2
   5   9   7    1706     460   1
  -6  -7  -9    1245     465  -2
   6   9   7    1245     465   1
  -7  -7  -9    9740     634  -2
   7   9   7    9740     634   1
   8   9   7   16689     787   1
   9   9   7   15114     650   1
  10   9   7    3770     338   1
  11   9   7    5293     610   1
  12   9   7    5356     483   1
  13   9   7    2531     462   1
  14   9   7    1624     356   1
  15   9   7    4626     482   1
  16   9   7    -130     425   1
  17   9   7    1074     465   1
  18   9   7    1240     493   1
 -10  10   7    -274     274   1
  -9  10   7    -395     395   1
  -8  10   7     -65     312   1
  -7  10   7     791     529   1
  -6  10   7     516     588   1
  -5  10   7     674     574   1
  -4  10   7     474     476   1
  -3  10   7    2316    1113   1
  -2  10   7     982     496   1
  -1  10   7    7299    1154   1
   0  10   7    1834     823   1
  -3  -7 -10   57283    6753  -2
   3  10   7   57283    6753   1
  -4  -7 -10     145     482  -2
   4  10   7     145     482   1
  -5  -7 -10   13980    1360  -2
   5  10   7   13980    1360   1
  -6  -7 -10    6350     544  -2
   6  10   7    6350     544   1
  -7  -7 -10    3431     400  -2
   7  10   7    3431     400   1
  -8  -7 -10    1238     336  -2
   8  10   7    1238     336   1
   9  10   7   39645    1588   1
  10  10   7   20097     994   1
  11  10   7    5380     786   1
  12  10   7    5951     463   1
  13  10   7    1823     456   1
  14  10   7    1128     394   1
  15  10   7    2178     390   1
  16  10   7    4081     792   1
  17  10   7    1406     771   1
  18  10   7    -126     634   1
  -9  11   7    3051     617   1
  -8  11   7      24     431   1
  -7  11   7    3317     466   1
  -6  11   7      30     396   1
  -5  11   7    4741     667   1
  -4  11   7     460     364   1
  -3  11   7     126     569   1
  -2  11   7    2776     729   1
  -1  11   7     527     771   1
   0  11   7    3257     994   1
   1  11   7    4319    1063   1
  -3  -7 -11    4594     926  -2
   3  11   7    4594     926   1
  -4  -7 -11    2982     789  -2
   4  11   7    2982     789   1
  -5  -7 -11    2259     727  -2
   5  11   7    2259     727   1
  -6  -7 -11    2299     489  -2
   6  11   7    2299     489   1
  -7  -7 -11   26863    1533  -2
   7  11   7   26863    1533   1
  -8  -7 -11    2013     417  -2
   8  11   7    2013     417   1
   9  11   7    3118     445   1
  10  11   7    7329     616   1
  11  11   7    7751     598   1
  12  11   7   15179    1262   1
  13  11   7   10541    1182   1
  14  11   7     541     381   1
  15  11   7     815     525   1
  16  11   7     -81     560   1
  17  11   7     710     531   1
  18  11   7    -346     531   1
  -8  12   7      98     434   1
  -7  12   7     666     359   1
  -6  12   7     483     455   1
  -5  12   7    3637     605   1
  -4  12   7    1588     388   1
  -3  12   7    4199     714   1
  -2  12   7     360     634   1
  -1  12   7    1498    1406   1
   0  12   7    -857     857   1
   1  12   7    1028     926   1
   2  12   7    7199    1200   1
   3  12   7   29893    3668   1
  -4  -7 -12    3188     686  -2
   4  12   7    3188     686   1
  -5  -7 -12    6239    1097  -2
   5  12   7    6239    1097   1
  -6  -7 -12    8315     841  -2
   6  12   7    8315     841   1
  -7  -7 -12    3730     521  -2
   7  12   7    3730     521   1
  -8  -7 -12    2616     411  -2
   8  12   7    2616     411   1
   9  12   7    1066     458   1
  10  12   7    1030     414   1
  11  12   7   14202    1461   1
  12  12   7    4538     787   1
  13  12   7   22974    1375   1
  14  12   7    5635     596   1
  15  12   7     170     336   1
  16  12   7    2653     364   1
  17  12   7     356     450   1
  18  12   7     157     343   1
  -7  13   7     239     420   1
  -6  13   7    2108     440   1
  -5  13   7    1400     537   1
  -4  13   7     929     530   1
  -3  13   7    1472     565   1
  -2  13   7      79     526   1
  -1  13   7     411     509   1
   0  13   7   10559    1680   1
   1  13   7    -446     891   1
   2  13   7    1817     994   1
   3  13   7    3360     754   1
   4  13   7   40966    4868   1
  -5  -7 -13    3394     891  -2
   5  13   7    3394     891   1
  -6  -7 -13    5171     658  -2
   6  13   7    5171     658   1
  -7  -7 -13   10975     937  -2
   7  13   7   10975     937   1
  -8  -7 -13    4630     603  -2
   8  13   7    4630     603   1
   9  13   7    5502     831   1
  10  13   7     745     288   1
  11  13   7    4532     562   1
  12  13   7    6620     644   1
  13  13   7       0     410   1
  14  13   7    1208     529   1
  15  13   7    1617     475   1
  16  13   7     778     358   1
  17  13   7     148     404   1
  -6  14   7     672     511   1
  -5  14   7     -38     441   1
  -4  14   7     -88     498   1
  -3  14   7    1419     595   1
  -2  14   7    1428     480   1
  -1  14   7    2950     675   1
   0  14   7      69     710   1
   1  14   7    1885     960   1
   2  14   7    3634    1097   1
   3  14   7    1094     977   1
   4  14   7   18614    2365   1
  -5  -7 -14    1268     583  -2
   5  14   7    1268     583   1
  -6  -7 -14    4072     729  -2
   6  14   7    4072     729   1
  -7  -7 -14    5014     673  -2
   7  14   7    5014     673   1
  -8  -7 -14    5233    1039  -2
   8  14   7    5233    1039   1
   9  14   7    1997     643   1
  10  14   7    1927     336   1
  11  14   7    5995     746   1
  12  14   7     210     418   1
  13  14   7      28     350   1
  14  14   7    1041     411   1
  15  14   7    -427     427   1
  16  14   7    2828     691   1
  17  14   7     651     497   1
  -5  15   7    1106     459   1
  -4  15   7    1688     415   1
  -3  15   7    -445     445   1
  -2  15   7     233     491   1
  -1  15   7    -428     428   1
   0  15   7    6190     856   1
   1  15   7     720     857   1
   2  15   7    1063     926   1
   3  15   7      67     686   1
   4  15   7   24785    3051   1
   5  15   7    5793    1131   1
  -6  -7 -15    6171     994  -2
   6  15   7    6171     994   1
  -7  -7 -15     690     441  -2
   7  15   7     690     441   1
  -8  -7 -15     646     694  -2
   8  15   7     646     694   1
   9  15   7    4531    1059   1
  10  15   7    6171     737   1
  11  15   7     -79     698   1
  12  15   7     964     378   1
  13  15   7    -202     334   1
  14  15   7     -91     409   1
  15  15   7    -401     401   1
  16  15   7    5839     706   1
  -4  16   7    1074     303   1
  -3  16   7    2931     486   1
  -2  16   7    1107    1234   1
  -1  16   7     168     351   1
   0  16   7      22     706   1
   1  16   7     794     671   1
   2  16   7    2674     960   1
   3  16   7    3751     771   1
   4  16   7    6354     943   1
   5  16   7    3702     960   1
  -6  -7 -16    1251     558  -2
   6  16   7    1251     558   1
  -7  -7 -16    6125     704  -2
   7  16   7    6125     704   1
  -8  -7 -16    2086     591  -2
   8  16   7    2086     591   1
   9  16   7     111     397   1
  10  16   7    3040     336   1
  11  16   7    1806     399   1
  12  16   7    1017     383   1
  13  16   7     170     312   1
  14  16   7     823     397   1
  15  16   7    1097     399   1
  16  16   7    -240     240   1
  -2  17   7    1357     487   1
  -1  17   7    -462     686   1
   0  17   7    1508     370   1
   1  17   7    2334     744   1
   2  17   7    1706     430   1
   3  17   7     356     462   1
   4  17   7    3113     720   1
   5  17   7    1666     378   1
   6  17   7    3029     580   1
  -7  -7 -17     923     510  -2
   7  17   7     923     510   1
  -8  -7 -17     843     461  -2
   8  17   7     843     461   1
   9  17   7    1204     395   1
  10  17   7     637     435   1
  11  17   7     411     485   1
  12  17   7    -333     361   1
  13  17   7     464     326   1
  14  17   7    -186     371   1
  15  17   7     -69     364   1
  -1  18   7     309     361   1
   0  18   7     704     472   1
   1  18   7      59     374   1
   2  18   7     527     366   1
   3  18   7    4891    1573   1
   4  18   7     580     517   1
   5  18   7     242     379   1
   6  18   7    2502     531   1
  -7  -7 -18     846     461  -2
   7  18   7     846     461   1
  -8  -7 -18    1096     480  -2
   8  18   7    1096     480   1
   9  18   7     859     295   1
  10  18   7     514     720   1
  11  18   7    4736     600   1
  12  18   7    1242     332   1
  13  18   7       0     651   1
  14  18   7    -411     411   1
   2  19   7     382     211   1
   3  19   7     259     297   1
   4  19   7    3718     493   1
   5  19   7    2052     806   1
   6  19   7    3705     493   1
   7  19   7     968     600   1
  -8  -7 -19    1954     399  -2
   8  19   7    1954     399   1
   9  19   7    1155     618   1
  10  19   7     309     388   1
  11  19   7    2321     617   1
  12  19   7       0     312   1
   4  20   7     103     218   1
   5  20   7     -82     312   1
   6  20   7     871     342   1
   7  20   7    1659     330   1
  -8  -7 -20     274     549  -2
   8  20   7     274     549   1
   9  20   7     891     549   1
  10  20   7    1817     514   1
  -7 -18   8    2100     377   1
  -6 -18   8    -390     446   1
  -5 -18   8    -103     377   1
  -4 -18   8    -309     583   1
   3  -8  18    1303     686  -2
  -3 -18   8    1303     686   1
  -2 -18   8    1474     754   1
  -1 -18   8     189     297   1
   0 -18   8    1366     497   1
   1 -18   8     455     429   1
  -9 -17   8    1672     874   1
  -8 -17   8      60     239   1
  -7 -17   8    1605     943   1
  -6 -17   8     690     566   1
  -5 -17   8    -327     327   1
  -4 -17   8     176     470   1
   3  -8  17     931    1046  -2
  -3 -17   8     931    1046   1
  -2 -17   8      34     606   1
  -1 -17   8     137     606   1
   0 -17   8    2998    1320   1
   1 -17   8     433     270   1
   2 -17   8     430     634   1
   3 -17   8     191     404   1
 -10 -16   8     485     208   1
  -9 -16   8     183     276   1
  -8 -16   8     206     364   1
  -7 -16   8     924     977   1
  -6 -16   8     -78     374   1
  -5 -16   8    -840     840   1
  -4 -16   8     105     431   1
  -3 -16   8     751     396   1
   2  -8  16    1430     318  -2
  -2 -16   8    1430     318   1
  -1 -16   8     429     683   1
   0 -16   8     769     582   1
   1 -16   8     823    1303   1
   2 -16   8    -554     720   1
   3 -16   8     126     720   1
   4 -16   8     -53     436   1
   5 -16   8      26     514   1
 -11 -15   8     669     720   1
 -10 -15   8     623     381   1
  -9 -15   8     500     311   1
  -8 -15   8     291     388   1
  -7 -15   8    1114     444   1
  -6 -15   8    1885     483   1
  -5 -15   8    1166     617   1
  -4 -15   8     545     621   1
  -3 -15   8    5381     723   1
   2  -8  15     434     425  -2
  -2 -15   8     434     425   1
  -1 -15   8    1220     400   1
   0 -15   8     832     839   1
   1 -15   8    1180     682   1
   2 -15   8     699     815   1
   3 -15   8   10754    1158   1
   4 -15   8     875     691   1
   5 -15   8    1198     629   1
   6 -15   8     785     760   1
   7 -15   8    -171     549   1
 -12 -14   8    -329     329   1
 -11 -14   8    -280     410   1
 -10 -14   8     459     411   1
  -9 -14   8    1337     583   1
  -8 -14   8     435     354   1
  -7 -14   8    5318    1628   1
  -6 -14   8    -312     771   1
  -5 -14   8    2811     994   1
  -4 -14   8     958    1594   1
  -3 -14   8    2928     700   1
   2  -8  14    1545     497  -2
  -2 -14   8    1545     497   1
  -1 -14   8    3641     633   1
   0 -14   8    1422     564   1
   1 -14   8    1847     789   1
   2 -14   8    1534     665   1
   3 -14   8    1064    1044   1
   4 -14   8    -931     931   1
   5 -14   8     380     553   1
   6 -14   8     318     455   1
   7 -14   8     291     533   1
   8 -14   8     618     533   1
 -12 -13   8      10     514   1
 -11 -13   8    1013     519   1
 -10 -13   8     684     446   1
  -9 -13   8     667     566   1
  -8 -13   8    2571     583   1
  -7 -13   8    1046     418   1
  -6 -13   8     888     771   1
  -5 -13   8    2674    1028   1
  -4 -13   8     715    1885   1
  -3 -13   8   16590    1483   1
   2  -8  13    1967     640  -2
  -2 -13   8    1967     640   1
   1  -8  13     375     571  -2
  -1 -13   8     375     571   1
   0 -13   8     885     641   1
   1 -13   8     167     781   1
   2 -13   8    2228     791   1
   3 -13   8    3815     783   1
   4 -13   8     243     404   1
   5 -13   8     849     612   1
   6 -13   8    2968     788   1
   7 -13   8    2711     503   1
   8 -13   8     189     634   1
   9 -13   8    1242     502   1
 -13 -12   8    7742    3291   1
 -12 -12   8    -243     497   1
 -11 -12   8    -216     216   1
 -10 -12   8    7493    1474   1
  -9 -12   8    3599     647   1
  -8 -12   8     -69     651   1
  -7 -12   8     720     686   1
  -6 -12   8    2216     569   1
  -5 -12   8    -377     960   1
  -4 -12   8    7233    1200   1
  -3 -12   8     133     513   1
  -2 -12   8    2448     664   1
   1  -8  12     459     633  -2
  -1 -12   8     459     633   1
   0 -12   8    3296     535   1
   1 -12   8    2166     449   1
   2 -12   8    1108     702   1
   3 -12   8     859     744   1
   4 -12   8    6118     950   1
   5 -12   8    1414    1000   1
   6 -12   8     172     515   1
   7 -12   8     927     797   1
   8 -12   8    1403     530   1
   9 -12   8     932     634   1
  10 -12   8     -63     469   1
 -13 -11   8    1153     456   1
 -12 -11   8     514     580   1
 -11 -11   8    1504     387   1
 -10 -11   8    1697     600   1
  -9 -11   8     -74     459   1
  -8 -11   8    1783     549   1
  -7 -11   8     651     720   1
  -6 -11   8    1839     511   1
  -5 -11   8    -651     651   1
  -4 -11   8    4871    3497   1
  -3 -11   8    1605     766   1
  -2 -11   8    -981     981   1
   1  -8  11    -406     638  -2
  -1 -11   8    -406     638   1
   0 -11   8    6413     671   1
   1 -11   8   13612     878   1
   2 -11   8    2182     847   1
   3 -11   8    -430     691   1
   4 -11   8     736     593   1
   5 -11   8    1360     367   1
   6 -11   8    -497     497   1
   7 -11   8    2679     627   1
   8 -11   8    3661     531   1
   9 -11   8    3085     655   1
  10 -11   8     287     591   1
  11 -11   8    1409     595   1
 -14 -10   8     311     514   1
 -13 -10   8    -109     352   1
 -12 -10   8     938     444   1
 -11 -10   8    4280     514   1
 -10 -10   8      97     457   1
  -9 -10   8    3411     647   1
  -8 -10   8    3325     823   1
  -7 -10   8   22831    2845   1
  -6 -10   8     789     720   1
  -5 -10   8    3257     891   1
  -4 -10   8   45319    5485   1
  -3 -10   8    1774     730   1
  -2 -10   8     329     552   1
   1  -8  10      73     445  -2
  -1 -10   8      73     445   1
   0  -8  10    7672     718  -2
   0 -10   8    7672     718   1
   1 -10   8    -646     646   1
   2 -10   8    3375     424   1
   3 -10   8    3546     511   1
   4 -10   8    2887     606   1
   5 -10   8    8240     845   1
   6 -10   8     746     562   1
   7 -10   8    2025     636   1
   8 -10   8    3877     602   1
   9 -10   8    2275     679   1
  10 -10   8      20     607   1
  11 -10   8     370     513   1
  12 -10   8    -572     572   1
 -14  -9   8     224     459   1
 -13  -9   8    -566     566   1
 -12  -9   8    1355     530   1
 -11  -9   8    1124     354   1
 -10  -9   8     480     460   1
  -9  -9   8    1717     555   1
  -8  -9   8     -23     472   1
  -7  -9   8    6342    1063   1
  -6  -9   8    -103     651   1
  -4  -9   8   32327    4045   1
  -3  -9   8   11649    1612   1
  -2  -9   8    3905     674   1
  -1  -9   8   17937    1204   1
   0  -8   9    8134     760  -2
   0  -9   8    8134     760   1
   1  -9   8   26621    1501   1
   2  -9   8    5460     587   1
   3  -9   8    1664     457   1
   4  -9   8     408     455   1
   5  -9   8   10400     830   1
   6  -9   8    6664     810   1
   7  -9   8    1212     606   1
   8  -9   8    2175     727   1
   9  -9   8    1866     784   1
  10  -9   8     971     959   1
  11  -9   8    1644     631   1
  12  -9   8    1548     675   1
  13  -9   8     689     519   1
 -14  -8   8     629     478   1
 -13  -8   8    1422     360   1
 -12  -8   8     415     560   1
 -11  -8   8     336     381   1
 -10  -8   8      46     789   1
  -9  -8   8    -283     380   1
  -8  -8   8    2787     622   1
  -7  -8   8     343     480   1
  -6  -8   8    5828     926   1
  -4  -8   8    3154     857   1
  -3  -8   8   17963    2076   1
  -2  -8   8    3037     780   1
  -1  -8   8   21011    1484   1
   0  -8   8  165622    7653  -2
   0  -8   8  165622    7653   1
   1  -8   8    7487     881   1
   2  -8   8     926     482   1
   3  -8   8   12604     627   1
   4  -8   8     821     475   1
   5  -8   8    7389     665   1
   6  -8   8     767     613   1
   7  -8   8    2921     669   1
   8  -8   8    -316     560   1
   9  -8   8     631     754   1
  10  -8   8    1364     850   1
  11  -8   8     342     655   1
  12  -8   8     442     548   1
  13  -8   8     307     593   1
  14  -8   8    -148     453   1
 -14  -7   8    -386     386   1
 -13  -7   8     382     312   1
 -12  -7   8     229     498   1
 -11  -7   8    2002     446   1
 -10  -7   8    3156     447   1
  -9  -7   8    2840     583   1
  -8  -7   8    3513     647   1
  -7  -7   8    -171     617   1
  -6  -7   8    8399    1303   1
  -5  -7   8    4011     891   1
  -3  -7   8    5214    1057   1
  -2  -7   8    3111    1064   1
  -1  -7   8    3060     745   1
   0  -8   7   99349    6350  -2
   0  -7   8   99349    6350   1
   1  -7   8   31132    1807   1
   2  -7   8   25120    1381   1
   3  -7   8   11265     681   1
   4  -7   8   13246     773   1
   5  -7   8    7031     646   1
   6  -7   8    3740     641   1
   7  -7   8    6702     699   1
   8  -7   8    2756     928   1
   9  -7   8    4602     863   1
  10  -7   8    5150     847   1
  11  -7   8     588     729   1
  12  -7   8     524     644   1
  13  -7   8    1092    1080   1
  14  -7   8    1692     789   1
 -14  -6   8     802     478   1
 -13  -6   8     476     427   1
 -12  -6   8    2953    1068   1
 -11  -6   8    1706     555   1
 -10  -6   8      77     366   1
  -9  -6   8      91     428   1
  -8  -6   8    2201     541   1
  -7  -6   8    4193     857   1
  -6  -6   8     754     617   1
  -5  -6   8    6685    1097   1
  -3  -6   8   10387    2811   1
  -2  -6   8    5304    1233   1
  -1  -6   8    7722    1465   1
   0  -8   6   38173    3320  -2
   0  -6   8   38173    3320   1
  -1  -8   6    2120    1227  -2
   1  -6   8    2120    1227   1
   2  -6   8    7134    1277   1
   3  -6   8    6416     733   1
   4  -6   8    2115     450   1
   5  -6   8    4494     426   1
   6  -6   8    1902     573   1
   7  -6   8     153     481   1
   8  -6   8     184     433   1
   9  -6   8   28036    2380   1
  10  -6   8    1126     837   1
  11  -6   8    -202     603   1
  12  -6   8    4071     751   1
  13  -6   8    1093     782   1
  14  -6   8     910     986   1
  15  -6   8     105     493   1
 -14  -5   8     626     459   1
 -13  -5   8     978     362   1
 -12  -5   8    -131     433   1
 -11  -5   8    4445     601   1
 -10  -5   8    1917     731   1
  -9  -5   8    5714     588   1
  -8  -5   8    9019    1860   1
  -7  -5   8     457     452   1
  -6  -5   8    2705     668   1
  -5  -5   8    1406     617   1
  -3  -5   8   23543    2738   1
  -2  -5   8    3723    1235   1
  -1  -5   8    2162    1183   1
   0  -5   8   29033    2553   1
  -1  -8   5    1085    1052  -2
   1  -5   8    1085    1052   1
   2  -5   8   18180    1907   1
   3  -5   8   39150    3515   1
   4  -5   8     187    1200   1
   5  -5   8   11187     654   1
   6  -5   8   15535     958   1
   7  -5   8    2084     459   1
   8  -5   8   26412    1361   1
   9  -5   8      43     554   1
  10  -5   8    2851     722   1
  11  -5   8    7858     987   1
  12  -5   8    -289     606   1
  13  -5   8     556     645   1
  14  -5   8     325     617   1
  15  -5   8     799    1080   1
 -14  -4   8    1500     669   1
 -13  -4   8    -275     388   1
 -12  -4   8     405     430   1
 -11  -4   8    4578     627   1
 -10  -4   8    -231     327   1
  -9  -4   8    5733     602   1
  -8  -4   8   11095    1724   1
  -7  -4   8    2369     466   1
  -6  -4   8    1104     866   1
  -5  -4   8      75     482   1
  -2  -4   8    7194    1466   1
  -1  -4   8    4277    1444   1
   0  -4   8   14862    1624   1
  -1  -8   4   35549    3054  -2
   1  -4   8   35549    3054   1
   2  -4   8    6281     976   1
   3  -4   8   10200    1243   1
   4  -4   8   13787    2070   1
   5  -4   8     158     600   1
   6  -4   8     679     402   1
   7  -4   8    1105     378   1
   8  -4   8    2575     395   1
   9  -4   8    2646     485   1
  10  -4   8     910     491   1
  11  -4   8     433     712   1
  12  -4   8      91     443   1
  13  -4   8   13245    1504   1
  14  -4   8    1452     659   1
  15  -4   8    1610    1139   1
  16  -4   8     171     720   1
 -14  -3   8    -173     384   1
 -13  -3   8     356     511   1
 -12  -3   8    3919     683   1
 -11  -3   8    5233     648   1
 -10  -3   8    2633     398   1
  -9  -3   8    3758     477   1
  -8  -3   8    -192     565   1
  -7  -3   8    -150     379   1
  -6  -3   8    3928     694   1
  -5  -3   8     735     642   1
  -4  -3   8   17919    2084   1
  -2  -3   8   14079    1524   1
  -1  -3   8    3316     980   1
   0  -3   8   11061    1781   1
  -1  -8   3    2762     965  -2
   1  -3   8    2762     965   1
  -2  -8   3    2704     884  -2
   2  -3   8    2704     884   1
   3  -3   8    4550     807   1
   4  -3   8   22054    1749   1
   5  -3   8    9527     769   1
   6  -3   8   24408    4799   1
   7  -3   8    9519     866   1
   8  -3   8    1162     408   1
   9  -3   8    3767     485   1
  10  -3   8    2260     493   1
  11  -3   8       2     434   1
  12  -3   8   11279     861   1
  13  -3   8    4919     634   1
  14  -3   8     119     500   1
  15  -3   8    -535     535   1
  16  -3   8    -103     533   1
 -14  -2   8     226     514   1
 -13  -2   8     -66     356   1
 -12  -2   8     268     392   1
 -11  -2   8    1428     505   1
 -10  -2   8    4620     432   1
  -9  -2   8    1286     653   1
  -8  -2   8    5909     898   1
  -7  -2   8    6301     858   1
  -6  -2   8    1420     462   1
  -5  -2   8    7246     872   1
  -4  -2   8    2438    1080   1
  -3  -2   8    9427    1418   1
  -2  -2   8    1236     879   1
  -1  -2   8    3402     957   1
   0  -2   8   14874    2253   1
   1  -2   8   47105    3408   1
  -2  -8   2    1384     854  -2
   2  -2   8    1384     854   1
   3  -2   8   16407    1493   1
   4  -2   8   10138    1054   1
   5  -2   8    6887     641   1
   6  -2   8    6592    2451   1
   7  -2   8      87     705   1
   8  -2   8   23925    1174   1
   9  -2   8    2432     539   1
  10  -2   8    4695     630   1
  11  -2   8    5785     460   1
  12  -2   8    1532     344   1
  13  -2   8    1700     410   1
  14  -2   8    1208     376   1
  15  -2   8    2322     524   1
  16  -2   8     590     569   1
 -14  -1   8      34     411   1
 -13  -1   8     153     836   1
 -12  -1   8     128     437   1
 -11  -1   8     967     500   1
 -10  -1   8   13672    1093   1
  -9  -1   8    2571     386   1
  -8  -1   8     301     391   1
  -7  -1   8    2319     376   1
  -6  -1   8    4236     464   1
  -5  -1   8   36512    2739   1
  -4  -1   8   25970    2690   1
  -3  -1   8   19969    2206   1
  -2  -1   8    4060     812   1
  -1  -1   8    1469    1348   1
   0  -1   8    8438    1283   1
   1  -1   8   17760    1625   1
  -2  -8   1    7466    1066  -2
   2  -1   8    7466    1066   1
  -3  -8   1    6758     932  -2
   3  -1   8    6758     932   1
   4  -1   8   18854    1545   1
   5  -1   8   33925    1870   1
   6  -1   8    3108     280   1
   7  -1   8    7907    1473   1
   8  -1   8    9150     781   1
   9  -1   8    5928     458   1
  10  -1   8    6824     633   1
  11  -1   8    -294     341   1
  12  -1   8    2596     395   1
  13  -1   8    4766     439   1
  14  -1   8     -47     286   1
  15  -1   8    1360     391   1
  16  -1   8    -122     496   1
  17  -1   8     -69     720   1
 -14   0   8      69     240   1
 -13   0   8      46     577   1
 -12   0   8     -44     289   1
 -11   0   8     404     353   1
 -10   0   8     530     544   1
  -9   0   8     622     566   1
  -8   0   8   12199     849   1
  -7   0   8    2802     375   1
  -6   0   8   11070     820   1
  -5   0   8   10919    1077   1
  -4   0   8    6435    1272   1
  -3   0   8    1273    1080   1
  -2   0   8   25538    2717   1
  -1   0   8   20828    1752   1
   0   0   8    4625    1168   1
   1   0   8   22208    1590   1
  -2  -8   0   13522    1308  -2
   2   0   8   13522    1308   1
  -3  -8   0   12697    1048  -2
   3   0   8   12697    1048   1
   4   0   8   13987    2138   1
   5   0   8    3396     409   1
   6   0   8    2027     283   1
   7   0   8   12362    1984   1
   8   0   8   15985    1209   1
   9   0   8     584     344   1
  10   0   8    2631     332   1
  11   0   8     916     338   1
  12   0   8   18331     969   1
  13   0   8    2064     383   1
  14   0   8    2331     387   1
  15   0   8    1000     317   1
  16   0   8    4700     760   1
  17   0   8      49     517   1
 -13   1   8     246     527   1
 -12   1   8     -59     371   1
 -11   1   8    3852     516   1
 -10   1   8     530     423   1
  -9   1   8     382     260   1
  -8   1   8   46189    2469   1
  -7   1   8     681     337   1
  -6   1   8   22027    1320   1
  -5   1   8    3707     465   1
  -4   1   8   35993    4542   1
  -3   1   8    4935    1163   1
  -2   1   8   29832    2734   1
  -1   1   8   27538    1675   1
   0   1   8    4315     819   1
   1   1   8   11623    1137   1
  -2  -8  -1   10706    1078  -2
   2   1   8   10706    1078   1
  -3  -8  -1    2186     783  -2
   3   1   8    2186     783   1
   4   1   8   20036    1620   1
   5   1   8   30730    1722   1
   6   1   8   15061     865   1
   7   1   8   16890    2242   1
   8   1   8    1030    1274   1
   9   1   8   13948     823   1
  10   1   8    1936     310   1
  11   1   8    4959     423   1
  12   1   8    -228     365   1
  13   1   8     -71     312   1
  14   1   8    1608     360   1
  15   1   8    1543     425   1
  16   1   8     637     353   1
  17   1   8    2163     483   1
 -13   2   8     489     444   1
 -12   2   8    -637     670   1
 -11   2   8     973     410   1
 -10   2   8    -394     465   1
  -9   2   8    1386     527   1
  -8   2   8    5544     554   1
  -7   2   8    7313     750   1
  -6   2   8     885     355   1
  -5   2   8     156     529   1
  -4   2   8    3629     567   1
  -3   2   8    2867    1054   1
  -2   2   8   11445    1575   1
  -1   2   8    -240     998   1
   0   2   8   18877    2634   1
   1   2   8    2580     761   1
  -2  -8  -2   23479    1668  -2
   2   2   8   23479    1668   1
  -3  -8  -2   84788    5113  -2
   3   2   8   84788    5113   1
  -4  -8  -2   30508    2291  -2
   4   2   8   30508    2291   1
   5   2   8    8406     961   1
   6   2   8    3970    1158   1
   7   2   8    2650     815   1
   8   2   8    3216    1247   1
   9   2   8   20808    1072   1
  10   2   8    9506     579   1
  11   2   8    7753     555   1
  12   2   8    4433     578   1
  13   2   8   15311    1045   1
  14   2   8    1142     429   1
  15   2   8     669     516   1
  16   2   8    2608     534   1
  17   2   8     394     476   1
  18   2   8    -411     514   1
 -13   3   8     389     348   1
 -12   3   8      82     566   1
 -11   3   8     700     386   1
 -10   3   8      39     483   1
  -9   3   8    4126     750   1
  -8   3   8    1428     714   1
  -7   3   8     629     470   1
  -6   3   8     869     395   1
  -5   3   8     451     437   1
  -4   3   8      65     413   1
  -3   3   8   17796    3257   1
  -2   3   8    2700     926   1
  -1   3   8     193     747   1
   0   3   8   13743    2879   1
   1   3   8    3310    1356   1
  -2  -8  -3    2117     868  -2
   2   3   8    2117     868   1
  -3  -8  -3    7305     955  -2
   3   3   8    7305     955   1
  -4  -8  -3   23843    1831  -2
   4   3   8   23843    1831   1
  -5  -8  -3   68593    4566  -2
   5   3   8   68593    4566   1
   6   3   8   10811    1023   1
   7   3   8    2163     511   1
   8   3   8    2705    1954   1
   9   3   8    1276     327   1
  10   3   8     506     244   1
  11   3   8   15818     937   1
  12   3   8   11613     764   1
  13   3   8     994     460   1
  14   3   8     294     416   1
  15   3   8    3946     575   1
  16   3   8     445     438   1
  17   3   8    2823    1543   1
  18   3   8     343     388   1
 -12   4   8     591     442   1
 -11   4   8     -24    1148   1
 -10   4   8    1845     484   1
  -9   4   8    1358     517   1
  -8   4   8     -21     238   1
  -7   4   8    1320     602   1
  -6   4   8     492     519   1
  -5   4   8    7917     777   1
  -4   4   8    2898     543   1
  -3   4   8   55722    4074   1
  -2   4   8    4467    1174   1
  -1   4   8    1992    1234   1
   0   4   8   11801    1696   1
   1   4   8   38960    4400   1
  -2  -8  -4   24418    1859  -2
   2   4   8   24418    1859   1
  -3  -8  -4   13192    1354  -2
   3   4   8   13192    1354   1
  -4  -8  -4    8822    1178  -2
   4   4   8    8822    1178   1
  -5  -8  -4   26268    2254  -2
   5   4   8   26268    2254   1
   6   4   8   19616    1772   1
   7   4   8    8207    2623   1
   8   4   8    1761     335   1
   9   4   8     514     330   1
  10   4   8    5542     416   1
  11   4   8   12277     675   1
  12   4   8    2628     424   1
  13   4   8   55655    3288   1
  14   4   8    1780     451   1
  15   4   8     775     463   1
  16   4   8     902     463   1
  17   4   8    -513     513   1
  18   4   8     558     424   1
 -12   5   8    -309     399   1
 -11   5   8     110     600   1
 -10   5   8    3568     490   1
  -9   5   8    1961     600   1
  -8   5   8     467     603   1
  -7   5   8    9274     731   1
  -6   5   8    2175     429   1
  -5   5   8    -176     354   1
  -4   5   8   10656     871   1
  -3   5   8    2158     747   1
  -2   5   8    4053    1043   1
  -1   5   8   -1474    1474   1
   0   5   8   34678    4954   1
   1   5   8    2626     872   1
  -2  -8  -5   17362    1552  -2
   2   5   8   17362    1552   1
  -3  -8  -5    1108    1153  -2
   3   5   8    1108    1153   1
  -4  -8  -5   11039    1324  -2
   4   5   8   11039    1324   1
  -5  -8  -5   26907    2287  -2
   5   5   8   26907    2287   1
  -6  -8  -5     613     746  -2
   6   5   8     613     746   1
   7   5   8    5850     828   1
   8   5   8    9345    1237   1
   9   5   8   30651    1166   1
  10   5   8    1855     340   1
  11   5   8    1367     362   1
  12   5   8       7     242   1
  13   5   8    4334     662   1
  14   5   8    5432     612   1
  15   5   8    2606     554   1
  16   5   8    -146     458   1
  17   5   8     640     402   1
  18   5   8     958     519   1
 -11   6   8     125     600   1
 -10   6   8    1048     526   1
  -9   6   8    3250     594   1
  -8   6   8    1668     669   1
  -7   6   8    3737     478   1
  -6   6   8     447     425   1
  -5   6   8     140     434   1
  -4   6   8    4543     600   1
  -3   6   8     741     664   1
  -2   6   8   15092    1272   1
  -1   6   8    7130    2708   1
   1   6   8     957    1025   1
  -2  -8  -6    1061     821  -2
   2   6   8    1061     821   1
  -3  -8  -6   22857    2166  -2
   3   6   8   22857    2166   1
  -4  -8  -6   33292    2844  -2
   4   6   8   33292    2844   1
  -5  -8  -6   27106    2401  -2
   5   6   8   27106    2401   1
  -6  -8  -6    6065    1454  -2
   6   6   8    6065    1454   1
  -7  -8  -6    8887    1145  -2
   7   6   8    8887    1145   1
   8   6   8    2200     393   1
   9   6   8    1200     263   1
  10   6   8     257     295   1
  11   6   8     825     289   1
  12   6   8   18623    1115   1
  13   6   8    1409     271   1
  14   6   8    4697     614   1
  15   6   8   13673    1150   1
  16   6   8     415     511   1
  17   6   8    3064    1406   1
  18   6   8     661     448   1
 -11   7   8     262     514   1
 -10   7   8    2143     655   1
  -9   7   8     467     445   1
  -8   7   8    2456     562   1
  -7   7   8    -203     604   1
  -6   7   8    2686     457   1
  -5   7   8     370     426   1
  -4   7   8   11956     891   1
  -3   7   8    2934     592   1
  -2   7   8   12279    2237   1
  -1   7   8   13035    2891   1
   0   7   8   68026    8673   1
   1   7   8   12615    2057   1
  -2  -8  -7    -719     802  -2
   2   7   8    -719     802   1
  -3  -8  -7   37434    3122  -2
   3   7   8   37434    3122   1
  -4  -8  -7   16718    1728  -2
   4   7   8   16718    1728   1
  -5  -8  -7     775     868  -2
   5   7   8     775     868   1
  -6  -8  -7   21822    2169  -2
   6   7   8   21822    2169   1
  -7  -8  -7     776     454  -2
   7   7   8     776     454   1
   8   7   8    2121     347   1
   9   7   8     884     361   1
  10   7   8   12426     634   1
  11   7   8     152     352   1
  12   7   8    6909     557   1
  13   7   8    5033     791   1
  14   7   8     990     462   1
  15   7   8     295     510   1
  16   7   8    1498     633   1
  17   7   8    -539     539   1
  18   7   8     375     651   1
 -10   8   8      69     472   1
  -9   8   8    1597     338   1
  -8   8   8     496     508   1
  -7   8   8    -653     713   1
  -6   8   8    8960     875   1
  -5   8   8    -122     417   1
  -4   8   8     392     770   1
  -3   8   8    3498     537   1
  -2   8   8   12490    1605   1
  -1   8   8   20521    2231   1
   0   8   8  103561   10237   1
   1   8   8   34685    3950   1
   2   8   8   33020    2466   1
  -3  -8  -8   11364    1425  -2
   3   8   8   11364    1425   1
  -4  -8  -8   19285    1922  -2
   4   8   8   19285    1922   1
  -5  -8  -8   10404    1044  -2
   5   8   8   10404    1044   1
  -6  -8  -8     835     373  -2
   6   8   8     835     373   1
  -7  -8  -8    2589     318  -2
   7   8   8    2589     318   1
   8   8   8    2413     294   1
   9   8   8    2199     306   1
  10   8   8   34198    1505   1
  11   8   8    3559     394   1
  12   8   8     313     363   1
  13   8   8    1258     337   1
  14   8   8    1888     334   1
  15   8   8    1356     542   1
  16   8   8    2519     557   1
  17   8   8    -737    1286   1
  18   8   8    7912     952   1
 -10   9   8     729     737   1
  -9   9   8     545     549   1
  -8   9   8     102     439   1
  -7   9   8     651     468   1
  -6   9   8    1258     574   1
  -5   9   8      86     510   1
  -4   9   8     594     520   1
  -3   9   8    2841     507   1
  -2   9   8     101     480   1
  -1   9   8    8003    2280   1
   0   9   8    7815    1560   1
   1   9   8    4388    1503   1
   2   9   8    -385    1628   1
  -3  -8  -9    4006     960  -2
   3   9   8    4006     960   1
  -4  -8  -9    1200     619  -2
   4   9   8    1200     619   1
  -5  -8  -9   25290    1632  -2
   5   9   8   25290    1632   1
  -6  -8  -9   10535     739  -2
   6   9   8   10535     739   1
  -7  -8  -9     555     259  -2
   7   9   8     555     259   1
  -8  -8  -9   15517     762  -2
   8   9   8   15517     762   1
   9   9   8    1478     435   1
  10   9   8    1681     440   1
  11   9   8   10291     583   1
  12   9   8    2001     629   1
  13   9   8    4093     481   1
  14   9   8     494     379   1
  15   9   8     421     879   1
  16   9   8     972     585   1
  17   9   8      68     424   1
  18   9   8    3443     594   1
  -9  10   8     730     411   1
  -8  10   8     850     345   1
  -7  10   8    5137     571   1
  -6  10   8    1535     475   1
  -5  10   8    2230     386   1
  -4  10   8    1906     488   1
  -3  10   8    1737     524   1
  -2  10   8    -110     459   1
  -1  10   8     914    2040   1
   0  10   8    6993    1268   1
   2  10   8     754     720   1
  -3  -8 -10    6974    1251  -2
   3  10   8    6974    1251   1
  -4  -8 -10     145     824  -2
   4  10   8     145     824   1
  -5  -8 -10    7815     753  -2
   5  10   8    7815     753   1
  -6  -8 -10   13813     929  -2
   6  10   8   13813     929   1
  -7  -8 -10    3663     545  -2
   7  10   8    3663     545   1
  -8  -8 -10   32886    1659  -2
   8  10   8   32886    1659   1
   9  10   8    6504     395   1
  10  10   8     851     363   1
  11  10   8    3810     386   1
  12  10   8    -183     344   1
  13  10   8   19667    1341   1
  14  10   8    2299     485   1
  15  10   8    -385     385   1
  16  10   8    -185     519   1
  17  10   8     479     525   1
  18  10   8     257     436   1
  -8  11   8     -69     364   1
  -7  11   8     170     345   1
  -6  11   8     346     392   1
  -5  11   8    7183     965   1
  -4  11   8    1443     617   1
  -3  11   8     858     526   1
  -2  11   8    2269     658   1
  -1  11   8    7953    1337   1
   0  11   8    9187    1508   1
   1  11   8     583     891   1
  -3  -8 -11     686     720  -2
   3  11   8     686     720   1
  -4  -8 -11    5999    1063  -2
   4  11   8    5999    1063   1
  -5  -8 -11     247     475  -2
   5  11   8     247     475   1
  -6  -8 -11    6171     680  -2
   6  11   8    6171     680   1
  -7  -8 -11    3348     543  -2
   7  11   8    3348     543   1
  -8  -8 -11    5270     472  -2
   8  11   8    5270     472   1
   9  11   8   43283    1992   1
  10  11   8    8082     660   1
  11  11   8   28745    1596   1
  12  11   8    3839     408   1
  13  11   8   22821    1518   1
  14  11   8     341     403   1
  15  11   8     -72     346   1
  16  11   8    -446     533   1
  17  11   8    1242     517   1
  18  11   8    -514     514   1
  -7  12   8     177     493   1
  -6  12   8     755     430   1
  -5  12   8    1260     558   1
  -4  12   8     459     337   1
  -3  12   8   13502    1350   1
  -2  12   8     288     626   1
  -1  12   8    3261     628   1
   0  12   8    2743     994   1
   1  12   8    3188    1063   1
   2  12   8     446     754   1
   3  12   8    4491     960   1
  -4  -8 -12    9324    1474  -2
   4  12   8    9324    1474   1
  -5  -8 -12   20469    1932  -2
   5  12   8   20469    1932   1
  -6  -8 -12    1199     539  -2
   6  12   8    1199     539   1
  -7  -8 -12    3321     486  -2
   7  12   8    3321     486   1
  -8  -8 -12    3043     419  -2
   8  12   8    3043     419   1
  -9  -8 -12   12543     972  -2
   9  12   8   12543     972   1
  10  12   8   10109     839   1
  11  12   8   34877    2236   1
  12  12   8     -15     438   1
  13  12   8    2005     579   1
  14  12   8   12995     979   1
  15  12   8    4506     487   1
  16  12   8     469     435   1
  17  12   8     324     651   1
  18  12   8    -206     446   1
  -6  13   8     314     315   1
  -5  13   8      93     592   1
  -4  13   8     513     534   1
  -3  13   8    1336     386   1
  -2  13   8     -62     555   1
  -1  13   8    3432     716   1
   0  13   8     480     857   1
   1  13   8    2263     994   1
   2  13   8     103     651   1
   3  13   8    5416    1063   1
   4  13   8   13507    1885   1
  -5  -8 -13   38257    4594  -2
   5  13   8   38257    4594   1
  -6  -8 -13    3948     593  -2
   6  13   8    3948     593   1
  -7  -8 -13    3553     592  -2
   7  13   8    3553     592   1
  -8  -8 -13     171     387  -2
   8  13   8     171     387   1
   9  13   8    4199     488   1
  10  13   8    7021     713   1
  11  13   8     436     449   1
  12  13   8   18047    1265   1
  13  13   8     340     336   1
  14  13   8    4138     621   1
  15  13   8    7014     726   1
  16  13   8     123     360   1
  17  13   8    1206     686   1
  -5  14   8     479     493   1
  -4  14   8     234     524   1
  -3  14   8     280     601   1
  -2  14   8     404     994   1
  -1  14   8    -131     586   1
   0  14   8     309     823   1
   1  14   8    1303     891   1
   2  14   8    -274     926   1
   3  14   8     844     625   1
   4  14   8    8982    1474   1
  -5  -8 -14    1097     754  -2
   5  14   8    1097     754   1
  -6  -8 -14    4142     748  -2
   6  14   8    4142     748   1
  -7  -8 -14    9573    1087  -2
   7  14   8    9573    1087   1
  -8  -8 -14    8268     817  -2
   8  14   8    8268     817   1
   9  14   8    4287     812   1
  10  14   8     470     505   1
  11  14   8     699     420   1
  12  14   8     817     471   1
  13  14   8    1399     421   1
  14  14   8    2798     528   1
  15  14   8     213     333   1
  16  14   8    2477     338   1
  17  14   8     206     411   1
  -4  15   8    1238     375   1
  -3  15   8    1543     576   1
  -2  15   8     -78     232   1
  -1  15   8     439     351   1
   0  15   8     466     558   1
   1  15   8    1954     891   1
   2  15   8    3770     633   1
   3  15   8    5513     754   1
   4  15   8   12821    1851   1
   5  15   8    -446     514   1
  -6  -8 -15      12     977  -2
   6  15   8      12     977   1
  -7  -8 -15     917     669  -2
   7  15   8     917     669   1
  -8  -8 -15     357     415  -2
   8  15   8     357     415   1
   9  15   8     447     416   1
  10  15   8    1785     477   1
  11  15   8    3616     465   1
  12  15   8    2130     491   1
  13  15   8    -199     288   1
  14  15   8    3299     506   1
  15  15   8    1174     475   1
  16  15   8     -81     353   1
  -3  16   8     287     379   1
  -2  16   8    2428     758   1
  -1  16   8      15     295   1
   0  16   8    -246     422   1
   1  16   8     583     549   1
   2  16   8    2823     639   1
   3  16   8     485     771   1
   4  16   8    5472    1097   1
   5  16   8    1268     583   1
  -6  -8 -16     964     669  -2
   6  16   8     964     669   1
  -7  -8 -16    -171     348  -2
   7  16   8    -171     348   1
  -8  -8 -16    2005     554  -2
   8  16   8    2005     554   1
   9  16   8    1071     446   1
  10  16   8     348     722   1
  11  16   8     -74     374   1
  12  16   8     579     355   1
  13  16   8     972     301   1
  14  16   8     191     413   1
  15  16   8    -254     364   1
  -2  17   8      14     342   1
  -1  17   8    -328     669   1
   0  17   8     780     447   1
   1  17   8    -428     428   1
   2  17   8    1210     392   1
   3  17   8    1323     549   1
   4  17   8     617    1594   1
   5  17   8       9     459   1
   6  17   8    2988     633   1
  -7  -8 -17     838     381  -2
   7  17   8     838     381   1
  -8  -8 -17    1253     401  -2
   8  17   8    1253     401   1
   9  17   8      95     337   1
  10  17   8    1613     449   1
  11  17   8     -77     402   1
  12  17   8    5381     609   1
  13  17   8    -172     417   1
  14  17   8    2086     720   1
  15  17   8     446     343   1
   0  18   8     458     411   1
   1  18   8    1903     271   1
   2  18   8    2879    1024   1
   3  18   8    1986     440   1
   4  18   8    1992     485   1
   5  18   8    3208     716   1
   6  18   8     200     287   1
  -7  -8 -18    1025     353  -2
   7  18   8    1025     353   1
  -8  -8 -18    1905     316  -2
   8  18   8    1905     316   1
  -9  -8 -18     418     429  -2
   9  18   8     418     429   1
  10  18   8    -137     583   1
  11  18   8     672     428   1
  12  18   8     362     252   1
  13  18   8    2948     823   1
  14  18   8     -69     411   1
   3  19   8    1242     302   1
   4  19   8     458     399   1
   5  19   8     359     326   1
   6  19   8      -6     583   1
   7  19   8    3929    1120   1
  -8  -8 -19    3253     425  -2
   8  19   8    3253     425   1
  -9  -8 -19    2331     686  -2
   9  19   8    2331     686   1
  10  19   8     926     754   1
  11  19   8    1577     480   1
  12  19   8     686     274   1
   6  20   8     -65     214   1
  -9  -8 -20    2263     549  -2
   9  20   8    2263     549   1
  -4 -18   9    -480     480   1
   3  -9  18    1028     617  -2
  -3 -18   9    1028     617   1
  -2 -18   9    5005     789   1
  -1 -18   9    1748     411   1
  -7 -17   9    1508     549   1
  -6 -17   9     608     915   1
  -5 -17   9    2690     623   1
  -4 -17   9       0     651   1
  -3 -17   9     742     424   1
  -2 -17   9     743     444   1
  -1 -17   9     331     354   1
   0 -17   9     550     336   1
   1 -17   9     559     493   1
   2 -17   9    -190     395   1
   3 -17   9     142     291   1
  -9 -16   9     236     189   1
  -8 -16   9      99     269   1
  -7 -16   9    1114     343   1
  -6 -16   9    -319     857   1
  -5 -16   9     583     549   1
  -4 -16   9     309     446   1
  -3 -16   9     -47     423   1
   2  -9  16    1303     891  -2
  -2 -16   9    1303     891   1
  -1 -16   9    8552    3428   1
   0 -16   9     245    1423   1
   1 -16   9    5427     656   1
   2 -16   9     169     569   1
   3 -16   9    3130    1817   1
   4 -16   9    1294     514   1
   5 -16   9    -206     583   1
 -10 -15   9     -65     355   1
  -9 -15   9    1010     891   1
  -8 -15   9     -79     754   1
  -7 -15   9     -37     908   1
  -6 -15   9    2090     450   1
  -5 -15   9    1885     583   1
  -4 -15   9    1175     977   1
  -3 -15   9     645    1076   1
   2  -9  15     132     554  -2
  -2 -15   9     132     554   1
  -1 -15   9     111     830   1
   0 -15   9      -8     658   1
   1 -15   9    5129    1440   1
   2 -15   9     669     626   1
   3 -15   9     566     701   1
   4 -15   9     319     761   1
   5 -15   9    -167     669   1
   6 -15   9     686     720   1
 -11 -14   9    -279     361   1
 -10 -14   9    -168     173   1
  -9 -14   9     758     634   1
  -8 -14   9    -386     386   1
  -7 -14   9    1240     600   1
  -6 -14   9     839     444   1
  -5 -14   9    -137     789   1
  -4 -14   9    1199     742   1
  -3 -14   9    2686     843   1
   2  -9  14     736     516  -2
  -2 -14   9     736     516   1
  -1 -14   9    8511     650   1
   0 -14   9    1332     614   1
   1 -14   9     991     622   1
   2 -14   9    1798     771   1
   3 -14   9    2447     487   1
   4 -14   9    4006     872   1
   5 -14   9     868     653   1
   6 -14   9     295     364   1
   7 -14   9    1316     583   1
   8 -14   9     857     651   1
 -12 -13   9     210     311   1
 -11 -13   9    -125     493   1
 -10 -13   9     -40     345   1
  -9 -13   9     473     806   1
  -8 -13   9    -248     424   1
  -7 -13   9    -646    1063   1
  -6 -13   9     368     669   1
  -5 -13   9    2331     960   1
  -4 -13   9    5485    1131   1
  -3 -13   9    1450     923   1
  -2 -13   9    4157     830   1
   1  -9  13     227     594  -2
  -1 -13   9     227     594   1
   0 -13   9     503     356   1
   1 -13   9    1678     582   1
   2 -13   9     285     593   1
   3 -13   9    2108     874   1
   4 -13   9     994     716   1
   5 -13   9    -244     679   1
   6 -13   9    1981     693   1
   7 -13   9    -113     450   1
   8 -13   9    -157     531   1
   9 -13   9     889     469   1
 -12 -12   9     -58     600   1
 -11 -12   9    1250     591   1
 -10 -12   9     977     402   1
  -9 -12   9     740     737   1
  -8 -12   9    3462     823   1
  -7 -12   9    1757     583   1
  -6 -12   9    2506     943   1
  -5 -12   9     171     651   1
  -4 -12   9    7782    1268   1
  -3 -12   9    -540     549   1
  -2 -12   9    2094     693   1
   1  -9  12     492     668  -2
  -1 -12   9     492     668   1
   0 -12   9   15910    1158   1
   1 -12   9    4441     537   1
   2 -12   9    -529     529   1
   3 -12   9    1979     839   1
   4 -12   9    2145     516   1
   5 -12   9    5844     861   1
   6 -12   9    2233     641   1
   7 -12   9      22     738   1
   8 -12   9      16     642   1
   9 -12   9     275     580   1
  10 -12   9    1841     549   1
 -13 -11   9    1704     368   1
 -12 -11   9    -426     426   1
 -11 -11   9     293     486   1
 -10 -11   9     768     399   1
  -9 -11   9    2599     596   1
  -8 -11   9    1954     720   1
  -7 -11   9    1885     720   1
  -6 -11   9    -546     551   1
  -5 -11   9     274     686   1
  -4 -11   9    5108    1200   1
  -3 -11   9    1478     763   1
  -2 -11   9    3793     862   1
   1  -9  11     390     589  -2
  -1 -11   9     390     589   1
   0 -11   9    5602     663   1
   1 -11   9     509     575   1
   2 -11   9     -31     644   1
   3 -11   9    1155     679   1
   4 -11   9     425     521   1
   5 -11   9    -726     726   1
   6 -11   9    3366     806   1
   7 -11   9    4677     606   1
   8 -11   9     607     903   1
   9 -11   9      89     582   1
  10 -11   9     384     685   1
  11 -11   9    -549     789   1
 -13 -10   9    1370     396   1
 -12 -10   9    3136    1183   1
 -11 -10   9     320     538   1
 -10 -10   9     894     651   1
  -9 -10   9    2104     527   1
  -8 -10   9    6342     994   1
  -7 -10   9    1268     514   1
  -6 -10   9      89     571   1
  -5 -10   9    2297     823   1
  -4 -10   9   16043    2297   1
  -3 -10   9    5870    1148   1
  -2 -10   9   21517    1618   1
  -1 -10   9    1393     851   1
   0  -9  10   25965    1460  -2
   0 -10   9   25965    1460   1
   1 -10   9    8477     752   1
   2 -10   9    2425     364   1
   3 -10   9    1665     587   1
   4 -10   9    -611     611   1
   5 -10   9    -225     439   1
   6 -10   9    1006     636   1
   7 -10   9    5347     738   1
   8 -10   9    2990     495   1
   9 -10   9    1671     685   1
  10 -10   9     956     600   1
  11 -10   9    -182     454   1
  12 -10   9     720     857   1
 -13  -9   9    -206     340   1
 -12  -9   9    1213     561   1
 -11  -9   9     763     639   1
 -10  -9   9     618     411   1
  -9  -9   9     417     469   1
  -8  -9   9    2605     617   1
  -7  -9   9   15084    1920   1
  -6  -9   9     686     514   1
  -5  -9   9   11073    1646   1
  -4  -9   9   20020    2708   1
  -3  -9   9    3508     971   1
  -2  -9   9    3165     759   1
  -1  -9   9    2913     626   1
   0  -9   9    4698     556  -2
   0  -9   9    4698     556   1
   1  -9   9    2722     468   1
   2  -9   9    -121     481   1
   3  -9   9    3861     548   1
   4  -9   9    1290     501   1
   5  -9   9    1364     574   1
   6  -9   9    4584     741   1
   7  -9   9    1916    1010   1
   8  -9   9    1004     643   1
   9  -9   9     934     746   1
  10  -9   9    1354    1046   1
  11  -9   9     -37     530   1
  12  -9   9     129     449   1
  13  -9   9     377     720   1
 -13  -8   9     888     413   1
 -12  -8   9      47     958   1
 -11  -8   9     222     572   1
 -10  -8   9    1096     432   1
  -9  -8   9    1877     511   1
  -8  -8   9    -464     545   1
  -7  -8   9   12958    1680   1
  -6  -8   9    3908     857   1
  -4  -8   9    1303     720   1
  -3  -8   9    -324    1234   1
  -2  -8   9   13038    1209   1
  -1  -8   9   30949    1830   1
   0  -9   8   19621    1188  -2
   0  -8   9   19621    1188   1
   1  -8   9    9948     768   1
   2  -8   9     835     482   1
   3  -8   9   13889     916   1
   4  -8   9    7525     768   1
   5  -8   9     777     346   1
   6  -8   9    1957     559   1
   7  -8   9     982     711   1
   8  -8   9      -4     513   1
   9  -8   9     881     988   1
  10  -8   9    1021     834   1
  11  -8   9     322     771   1
  12  -8   9     694     572   1
  13  -8   9    -307     634   1
 -14  -7   9     744     329   1
 -13  -7   9     216     265   1
 -12  -7   9     566     425   1
 -11  -7   9    7004     827   1
 -10  -7   9     452     386   1
  -9  -7   9    8966    1021   1
  -8  -7   9    2588     507   1
  -7  -7   9     994     686   1
  -6  -7   9    2468     789   1
  -5  -7   9    6548     994   1
  -4  -7   9    7130    1371   1
  -3  -7   9    6548    1303   1
  -2  -7   9    1379     962   1
  -1  -7   9    2153     779   1
   0  -9   7   24352    2100  -2
   0  -7   9   24352    2100   1
  -1  -9   7    3411     529  -2
   1  -7   9    3411     529   1
   2  -7   9   29281    1495   1
   3  -7   9     180     416   1
   4  -7   9      34     485   1
   5  -7   9    5692     477   1
   6  -7   9    3750     741   1
   7  -7   9   13586     993   1
   8  -7   9    2113     706   1
   9  -7   9   10735    1333   1
  10  -7   9    -356     828   1
  11  -7   9     297     654   1
  12  -7   9    -516     610   1
  13  -7   9     848     707   1
  14  -7   9    1601     634   1
 -14  -6   9     132     312   1
 -13  -6   9    7839     830   1
 -12  -6   9    1791     510   1
 -11  -6   9     563     433   1
 -10  -6   9     594     442   1
  -9  -6   9     640     488   1
  -8  -6   9    2699     628   1
  -7  -6   9     960     686   1
  -6  -6   9    1303     686   1
  -5  -6   9    3771     823   1
  -3  -6   9    1748     960   1
  -2  -6   9     -54     702   1
  -1  -6   9   11470    1191   1
   0  -6   9   22504    1579   1
  -1  -9   6      30     881  -2
   1  -6   9      30     881   1
   2  -6   9    8887     698   1
   3  -6   9    7506     583   1
   4  -6   9    3893     489   1
   5  -6   9      90     371   1
   6  -6   9    5482     682   1
   7  -6   9    1604     558   1
   8  -6   9   17313    1134   1
   9  -6   9    1725     754   1
  10  -6   9    3071     937   1
  11  -6   9    -714     714   1
  12  -6   9    1805     740   1
  13  -6   9    -602     620   1
  14  -6   9      21     741   1
  15  -6   9    -752    1457   1
 -14  -5   9    1744     361   1
 -13  -5   9    1884     349   1
 -12  -5   9     269     508   1
 -11  -5   9     809     587   1
 -10  -5   9    3565     459   1
  -9  -5   9    1462     396   1
  -8  -5   9    1326     502   1
  -7  -5   9    2805    1251   1
  -6  -5   9    2331     720   1
  -5  -5   9    7062    1166   1
  -2  -5   9    1364    1219   1
  -1  -5   9   13642    2026   1
   0  -5   9     945    1128   1
  -1  -9   5   16307    2149  -2
   1  -5   9   16307    2149   1
   2  -5   9    -126     477   1
   3  -5   9   21831    1132   1
   4  -5   9     270     408   1
   5  -5   9    1384     366   1
   6  -5   9    3514     647   1
   7  -5   9    8546     702   1
   8  -5   9   24399    1338   1
   9  -5   9    6454     696   1
  10  -5   9    -541     541   1
  11  -5   9     532     687   1
  12  -5   9    3489     676   1
  13  -5   9    1628     701   1
  14  -5   9     660     971   1
  15  -5   9     748     820   1
 -14  -4   9    1234     446   1
 -13  -4   9     556     594   1
 -12  -4   9    2866     611   1
 -11  -4   9    9116     836   1
 -10  -4   9    3262     436   1
  -9  -4   9    2795     532   1
  -8  -4   9     757     415   1
  -7  -4   9    1385     571   1
  -6  -4   9   10319    1474   1
  -5  -4   9    1303     651   1
  -2  -4   9     433     907   1
  -1  -4   9    6556    1240   1
   0  -4   9    3209    1009   1
  -1  -9   4   10177    1375  -2
   1  -4   9   10177    1375   1
  -2  -9   4    8953    1120  -2
   2  -4   9    8953    1120   1
   3  -4   9   13339    1336   1
   4  -4   9    3251     802   1
   5  -4   9   18502     927   1
   6  -4   9   36594    1379   1
   7  -4   9    2519     436   1
   8  -4   9   17465    1044   1
   9  -4   9    2229     593   1
  10  -4   9    7667     859   1
  11  -4   9    8378     795   1
  12  -4   9    -135     836   1
  13  -4   9     -28     655   1
  14  -4   9    -165     472   1
  15  -4   9    1497    1697   1
  16  -4   9     720     720   1
 -14  -3   9    -103     480   1
 -13  -3   9    1028     686   1
 -12  -3   9     184     389   1
 -11  -3   9     578     450   1
 -10  -3   9      32     370   1
  -9  -3   9    2581     458   1
  -8  -3   9    -288     415   1
  -7  -3   9    5103     630   1
  -6  -3   9     686     446   1
  -5  -3   9    1646     514   1
  -2  -3   9   -1194    1194   1
  -1  -3   9    7768    1261   1
   0  -3   9    3417     962   1
   1  -3   9     562     883   1
  -2  -9   3    1805     800  -2
   2  -3   9    1805     800   1
   3  -3   9    2869    1094   1
   4  -3   9    1976     710   1
   5  -3   9     768     488   1
   6  -3   9   12136     568   1
   7  -3   9     524     450   1
   8  -3   9     989     341   1
   9  -3   9    2284     548   1
  10  -3   9   11256    1052   1
  11  -3   9     453     584   1
  12  -3   9    1116     463   1
  13  -3   9    5560     661   1
  14  -3   9    6689     738   1
  15  -3   9     921     557   1
  16  -3   9     446    1028   1
 -13  -2   9    -123     418   1
 -12  -2   9     292     347   1
 -11  -2   9    3594     539   1
 -10  -2   9     899     488   1
  -9  -2   9   10745     845   1
  -8  -2   9    7451     773   1
  -7  -2   9   10337     790   1
  -6  -2   9    5371     608   1
  -5  -2   9   18938    1942   1
  -2  -2   9   14794    2070   1
  -1  -2   9    2184    1039   1
   0  -2   9    2577    1039   1
   1  -2   9   17634    1842   1
  -2  -9   2    7128    1165  -2
   2  -2   9    7128    1165   1
   3  -2   9   16736    1528   1
   4  -2   9    2608     714   1
   5  -2   9   21650    1683   1
   6  -2   9    1633     246   1
   7  -2   9    5227     565   1
   8  -2   9   30108    1452   1
   9  -2   9    3231     469   1
  10  -2   9    9990     731   1
  11  -2   9    2049     419   1
  12  -2   9    3130     473   1
  13  -2   9    -132     450   1
  14  -2   9    2232     482   1
  15  -2   9    1647     680   1
  16  -2   9     617     857   1
 -13  -1   9     612     624   1
 -12  -1   9     252     323   1
 -11  -1   9     212     393   1
 -10  -1   9     352     497   1
  -9  -1   9     284     323   1
  -8  -1   9    9015     735   1
  -7  -1   9     -70     407   1
  -6  -1   9     697     419   1
  -5  -1   9    3282     637   1
  -4  -1   9    5759     891   1
  -2  -1   9   69537    6375   1
  -1  -1   9   40473    3270   1
   0  -1   9    3949    1079   1
   1  -1   9    9727    1675   1
  -2  -9   1   49291    3933  -2
   2  -1   9   49291    3933   1
  -3  -9   1   26712    2115  -2
   3  -1   9   26712    2115   1
   4  -1   9   14476    1363   1
   5  -1   9   14829    1305   1
   6  -1   9   12669     825   1
   7  -1   9    4804     930   1
   8  -1   9    1821     289   1
   9  -1   9   22901    1277   1
  10  -1   9    9296     701   1
  11  -1   9    4108     435   1
  12  -1   9     642     462   1
  13  -1   9     -61     311   1
  14  -1   9    7146     489   1
  15  -1   9    -331     331   1
  16  -1   9     891     558   1
 -13   0   9    -343     461   1
 -12   0   9     647     462   1
 -11   0   9     799     439   1
 -10   0   9    -251     453   1
  -9   0   9     299     298   1
  -8   0   9   26049    1607   1
  -7   0   9     834     511   1
  -6   0   9    7525     644   1
  -5   0   9    3819     684   1
  -4   0   9   13198    1205   1
  -1   0   9    9318    1876   1
   0   0   9    -374     908   1
   1   0   9     158     963   1
  -2  -9   0   31376    2919  -2
   2   0   9   31376    2919   1
  -3  -9   0    4390     860  -2
   3   0   9    4390     860   1
   4   0   9   13919    1315   1
   5   0   9    3983     906   1
   6   0   9    1334     334   1
   7   0   9    1258    1200   1
   8   0   9    3942     475   1
   9   0   9    3024     271   1
  10   0   9   15307     843   1
  11   0   9     379     419   1
  12   0   9   10969     782   1
  13   0   9    3073     410   1
  14   0   9    2561     371   1
  15   0   9     870     262   1
  16   0   9    1534     406   1
 -13   1   9    -123     410   1
 -12   1   9    -582     582   1
 -11   1   9    2001     505   1
 -10   1   9    -555     555   1
  -9   1   9     351     340   1
  -8   1   9   20727    1338   1
  -7   1   9     -57     374   1
  -6   1   9    1038     474   1
  -5   1   9   18192    1327   1
  -4   1   9    4541    1103   1
  -3   1   9   -1371    1371   1
  -1   1   9    6675    1937   1
   0   1   9    4998    2093   1
   1   1   9    7751    1217   1
  -2  -9  -1    4279    2014  -2
   2   1   9    4279    2014   1
  -3  -9  -1   12735    1300  -2
   3   1   9   12735    1300   1
  -4  -9  -1     202     726  -2
   4   1   9     202     726   1
   5   1   9    1376     709   1
   6   1   9   14706    1763   1
   7   1   9   24218    1525   1
   8   1   9     604     304   1
   9   1   9   11708     725   1
  10   1   9    6833     726   1
  11   1   9    2941     437   1
  12   1   9      -3     329   1
  13   1   9    3580     416   1
  14   1   9     134     364   1
  15   1   9    1337     387   1
  16   1   9     189     364   1
  17   1   9     583     857   1
 -12   2   9    -338     410   1
 -11   2   9    -754     784   1
 -10   2   9     294     412   1
  -9   2   9     529     643   1
  -8   2   9    2413     410   1
  -7   2   9    1004     451   1
  -6   2   9    7653     768   1
  -5   2   9    -107     325   1
  -4   2   9    1045     535   1
  -3   2   9    2280    1098   1
  -1   2   9    2428    1331   1
   0   2   9    1187    1198   1
   1   2   9    4258    1028   1
   2   2   9   69366    7567   1
  -3  -9  -2      16     819  -2
   3   2   9      16     819   1
  -4  -9  -2    1355     741  -2
   4   2   9    1355     741   1
   5   2   9    4733     811   1
   6   2   9   75242    4948   1
   7   2   9   11866     755   1
   8   2   9   17181    1001   1
   9   2   9    2586     351   1
  10   2   9   19926    1095   1
  11   2   9   15001     911   1
  12   2   9   15030     931   1
  13   2   9    2858     481   1
  14   2   9    8254     625   1
  15   2   9    2087     398   1
  16   2   9     648     400   1
  17   2   9     865     476   1
 -12   3   9     614     908   1
 -11   3   9    5219     750   1
 -10   3   9    -646     646   1
  -9   3   9    3426     629   1
  -8   3   9     393     342   1
  -7   3   9    2177     466   1
  -6   3   9    7217     921   1
  -5   3   9   20982    1450   1
  -4   3   9    4713     753   1
  -3   3   9   24879    2047   1
   0   3   9    5270    1403   1
   1   3   9    7034    1439   1
   2   3   9   31268    2772   1
  -3  -9  -3   24132    1971  -2
   3   3   9   24132    1971   1
  -4  -9  -3    6696    1428  -2
   4   3   9    6696    1428   1
  -5  -9  -3    3479     802  -2
   5   3   9    3479     802   1
   6   3   9   12661    1201   1
   7   3   9   14068    1218   1
   8   3   9    2258     263   1
   9   3   9    1404     294   1
  10   3   9    1820     600   1
  11   3   9     723     441   1
  12   3   9    6507     566   1
  13   3   9   66463    4127   1
  14   3   9     645     411   1
  15   3   9    1463     450   1
  16   3   9    2940     498   1
  17   3   9      26     374   1
  18   3   9    -206     514   1
 -12   4   9    1076     720   1
 -11   4   9     544     486   1
 -10   4   9    -335     422   1
  -9   4   9    -596     596   1
  -8   4   9     454     287   1
  -7   4   9    3983     541   1
  -6   4   9   16297    1191   1
  -5   4   9    1639     544   1
  -4   4   9    1975     444   1
  -3   4   9    6066     783   1
   0   4   9    2203    1268   1
   1   4   9   15532    3102   1
   2   4   9    5294    1163   1
  -3  -9  -4    9826    1336  -2
   3   4   9    9826    1336   1
  -4  -9  -4   17576    1749  -2
   4   4   9   17576    1749   1
  -5  -9  -4   52962    4203  -2
   5   4   9   52962    4203   1
   6   4   9    2717     800   1
   7   4   9    6362     905   1
   8   4   9     456     224   1
   9   4   9    6230     523   1
  10   4   9     663     279   1
  11   4   9   17672    1149   1
  12   4   9    3583     480   1
  13   4   9     412     426   1
  14   4   9     305     385   1
  15   4   9   13229    1198   1
  16   4   9      41     389   1
  17   4   9    5968     943   1
  18   4   9    -354     977   1
 -11   5   9     257    1337   1
 -10   5   9     692     311   1
  -9   5   9    2491     478   1
  -8   5   9    1105     580   1
  -7   5   9      -8     343   1
  -6   5   9    1457     653   1
  -5   5   9    3384     717   1
  -4   5   9    2012     545   1
  -3   5   9     584     574   1
  -2   5   9    6616    1097   1
   1   5   9   13761    1866   1
  -2  -9  -5     623     895  -2
   2   5   9     623     895   1
  -3  -9  -5   11068    1429  -2
   3   5   9   11068    1429   1
  -4  -9  -5    2109    1079  -2
   4   5   9    2109    1079   1
  -5  -9  -5   12441    1375  -2
   5   5   9   12441    1375   1
  -6  -9  -5   11383    1315  -2
   6   5   9   11383    1315   1
   7   5   9   17605    2161   1
   8   5   9     534     250   1
   9   5   9      30     702   1
  10   5   9   19154    1144   1
  11   5   9     -68     317   1
  12   5   9   22826    1222   1
  13   5   9    3766     560   1
  14   5   9     -83     493   1
  15   5   9    5655     675   1
  16   5   9    2799     619   1
  17   5   9    2203     665   1
  18   5   9       3     478   1
 -11   6   9     603     361   1
 -10   6   9     838     526   1
  -9   6   9     798     483   1
  -8   6   9    1113     651   1
  -7   6   9     212     606   1
  -6   6   9     196     383   1
  -5   6   9    7532    1625   1
  -4   6   9    3267     608   1
  -3   6   9    5767     880   1
  -2   6   9      95    1011   1
  -1   6   9    -583    2194   1
   1   6   9    3856    1151   1
  -2  -9  -6    2808    1050  -2
   2   6   9    2808    1050   1
  -3  -9  -6   22002    2134  -2
   3   6   9   22002    2134   1
  -4  -9  -6   19783    1935  -2
   4   6   9   19783    1935   1
  -5  -9  -6   29893    2551  -2
   5   6   9   29893    2551   1
  -6  -9  -6    1821    1122  -2
   6   6   9    1821    1122   1
  -7  -9  -6  101387    4184  -2
   7   6   9  101387    4184   1
   8   6   9    3451     567   1
   9   6   9   18528     880   1
  10   6   9   23009    1327   1
  11   6   9    5893     641   1
  12   6   9     775     483   1
  13   6   9    5863    1262   1
  14   6   9     482     442   1
  15   6   9    1823     442   1
  16   6   9    -109     453   1
  17   6   9    6517     704   1
  18   6   9     377     617   1
 -10   7   9     -75     483   1
  -9   7   9     101     412   1
  -8   7   9     493     468   1
  -7   7   9     395     483   1
  -6   7   9     827     362   1
  -5   7   9     738     487   1
  -4   7   9    6109     759   1
  -3   7   9     472     517   1
  -2   7   9     572     534   1
  -1   7   9    2887     742   1
   0   7   9   25028    7285   1
   1   7   9    1567    2554   1
   2   7   9   26166    2477   1
  -3  -9  -7   12336    2116  -2
   3   7   9   12336    2116   1
  -4  -9  -7    3641    1073  -2
   4   7   9    3641    1073   1
  -5  -9  -7     620     714  -2
   5   7   9     620     714   1
  -6  -9  -7    4285     432  -2
   6   7   9    4285     432   1
  -7  -9  -7   10753     643  -2
   7   7   9   10753     643   1
   8   7   9   14837     812   1
   9   7   9    3761     770   1
  10   7   9    2631     378   1
  11   7   9    4575     573   1
  12   7   9    -344     442   1
  13   7   9    2381     360   1
  14   7   9    2868     588   1
  15   7   9    3485     549   1
  16   7   9     177     440   1
  17   7   9    1693     427   1
  18   7   9    1646     926   1
 -10   8   9     754     436   1
  -9   8   9    1708     493   1
  -8   8   9    2791     483   1
  -7   8   9    1881     791   1
  -6   8   9    3765     472   1
  -5   8   9     979     458   1
  -4   8   9    -434     434   1
  -3   8   9     393     500   1
  -2   8   9   -1104    1166   1
  -1   8   9   10524    1333   1
   0   8   9   18915    2965   1
   1   8   9    2981    1515   1
   2   8   9    -170     711   1
  -3  -9  -8    6131     812  -2
   3   8   9    6131     812   1
  -4  -9  -8    2528     512  -2
   4   8   9    2528     512   1
  -5  -9  -8   26095    1368  -2
   5   8   9   26095    1368   1
  -6  -9  -8   13035     775  -2
   6   8   9   13035     775   1
  -7  -9  -8    1593     399  -2
   7   8   9    1593     399   1
  -8  -9  -8    9440     523  -2
   8   8   9    9440     523   1
   9   8   9    6544     483   1
  10   8   9   47675    2193   1
  11   8   9    5870     415   1
  12   8   9    3422     434   1
  13   8   9     376     539   1
  14   8   9   10601     774   1
  15   8   9     733     651   1
  16   8   9    6759     834   1
  17   8   9     -83     514   1
  18   8   9     -29     566   1
  -9   9   9     715     469   1
  -8   9   9     747     369   1
  -7   9   9    -195     431   1
  -6   9   9      48     480   1
  -5   9   9      14     372   1
  -4   9   9    3202     524   1
  -3   9   9     734     469   1
  -2   9   9    3812     728   1
  -1   9   9     577     523   1
   0   9   9    1751     874   1
   1   9   9    3668    2091   1
   2   9   9    1512     651   1
  -3  -9  -9    1195     494  -2
   3   9   9    1195     494   1
  -4  -9  -9    5877     657  -2
   4   9   9    5877     657   1
  -5  -9  -9    1153     409  -2
   5   9   9    1153     409   1
  -6  -9  -9   25882    1355  -2
   6   9   9   25882    1355   1
  -7  -9  -9    4240     445  -2
   7   9   9    4240     445   1
  -8  -9  -9    9911     554  -2
   8   9   9    9911     554   1
   9   9   9    1179     342   1
  10   9   9     661     366   1
  11   9   9     713     273   1
  12   9   9   12809     979   1
  13   9   9     166     378   1
  14   9   9    8551     745   1
  15   9   9    2784     561   1
  16   9   9    2637     630   1
  17   9   9     198     380   1
  18   9   9     396     395   1
  -8  10   9    2221     549   1
  -7  10   9    -339     348   1
  -6  10   9    1005     815   1
  -5  10   9    3095     369   1
  -4  10   9    -112     312   1
  -3  10   9     437     546   1
  -2  10   9    2706    1276   1
  -1  10   9   14158    1885   1
   0  10   9   16078    2091   1
   2  10   9    6959    1200   1
  -3  -9 -10   14033    1566  -2
   3  10   9   14033    1566   1
  -4  -9 -10   10867    1081  -2
   4  10   9   10867    1081   1
  -5  -9 -10    6052     649  -2
   5  10   9    6052     649   1
  -6  -9 -10   23669    1416  -2
   6  10   9   23669    1416   1
  -7  -9 -10   10581     758  -2
   7  10   9   10581     758   1
  -8  -9 -10    6342     486  -2
   8  10   9    6342     486   1
   9  10   9    2130     413   1
  10  10   9    1609     338   1
  11  10   9   12397     721   1
  12  10   9    1974     524   1
  13  10   9   13962    1088   1
  14  10   9    7255     647   1
  15  10   9    2474     500   1
  16  10   9     400     453   1
  17  10   9     531     463   1
  18  10   9     343     617   1
  -8  11   9      69     446   1
  -7  11   9    -130     250   1
  -6  11   9    1733     423   1
  -5  11   9    3473     537   1
  -4  11   9      26     365   1
  -3  11   9    5011     784   1
  -2  11   9     479     506   1
  -1  11   9    1028     617   1
   0  11   9    7508    1234   1
   1  11   9     926     651   1
   2  11   9    2880     891   1
   3  11   9   14569    1885   1
  -4  -9 -11   35446    4217  -2
   4  11   9   35446    4217   1
  -5  -9 -11    5960     682  -2
   5  11   9    5960     682   1
  -6  -9 -11    6852    1134  -2
   6  11   9    6852    1134   1
  -7  -9 -11   31636    1881  -2
   7  11   9   31636    1881   1
  -8  -9 -11     372     478  -2
   8  11   9     372     478   1
  -9  -9 -11     670     461  -2
   9  11   9     670     461   1
  10  11   9     446     399   1
  11  11   9   18768    1237   1
  12  11   9    5012     517   1
  13  11   9    2444     481   1
  14  11   9    1550     443   1
  15  11   9     -23     286   1
  16  11   9     780     499   1
  17  11   9     135     493   1
  18  11   9    -343     514   1
  -7  12   9    -549     686   1
  -6  12   9    2190     502   1
  -5  12   9     -94     851   1
  -4  12   9     267     262   1
  -3  12   9     368     499   1
  -2  12   9    1302     630   1
  -1  12   9   10284    1611   1
   0  12   9   11038    1577   1
   1  12   9    -617     617   1
   2  12   9     377     754   1
   3  12   9    2777     686   1
  -4  -9 -12    1234     549  -2
   4  12   9    1234     549   1
  -5  -9 -12   19936    1894  -2
   5  12   9   19936    1894   1
  -6  -9 -12    2734     487  -2
   6  12   9    2734     487   1
  -7  -9 -12    4298     525  -2
   7  12   9    4298     525   1
  -8  -9 -12    2842     440  -2
   8  12   9    2842     440   1
  -9  -9 -12    1422     340  -2
   9  12   9    1422     340   1
  10  12   9    2086     579   1
  11  12   9    1703     539   1
  12  12   9     496     396   1
  13  12   9    3423     830   1
  14  12   9    2213     423   1
  15  12   9    2032     380   1
  16  12   9    1743     438   1
  17  12   9    1406    1337   1
  18  12   9     994     514   1
  -6  13   9    -272    1131   1
  -5  13   9    2764     587   1
  -4  13   9    -857     857   1
  -3  13   9     152     449   1
  -2  13   9    1045    1080   1
  -1  13   9     174    1166   1
   0  13   9     857     583   1
   1  13   9    1714     686   1
   2  13   9     927     453   1
   3  13   9    4354     823   1
  -4  -9 -13    6616    1166  -2
   4  13   9    6616    1166   1
  -5  -9 -13     206     514  -2
   5  13   9     206     514   1
  -6  -9 -13    6011     799  -2
   6  13   9    6011     799   1
  -7  -9 -13   13313    1903  -2
   7  13   9   13313    1903   1
  -8  -9 -13     721     574  -2
   8  13   9     721     574   1
  -9  -9 -13    4552     673  -2
   9  13   9    4552     673   1
  10  13   9     -66     500   1
  11  13   9    4212     906   1
  12  13   9    2142     438   1
  13  13   9   19729    1924   1
  14  13   9     706     445   1
  15  13   9    -275     469   1
  16  13   9    -121     519   1
  17  13   9     823     436   1
  -5  14   9    1031     651   1
  -4  14   9    1020     485   1
  -3  14   9    1090     943   1
  -2  14   9     -15     357   1
  -1  14   9   10292    1161   1
   0  14   9     720     754   1
   1  14   9    5965    1028   1
   2  14   9     466     420   1
   3  14   9    8342    2931   1
   4  14   9   10559    1474   1
  -5  -9 -14    -720     720  -2
   5  14   9    -720     720   1
  -6  -9 -14    5492     823  -2
   6  14   9    5492     823   1
  -7  -9 -14   13496    1392  -2
   7  14   9   13496    1392   1
  -8  -9 -14    1288     443  -2
   8  14   9    1288     443   1
  -9  -9 -14    1856     390  -2
   9  14   9    1856     390   1
  10  14   9    1758     448   1
  11  14   9    6817     709   1
  12  14   9   16172    1168   1
  13  14   9     658     591   1
  14  14   9     -69     527   1
  15  14   9     304     380   1
  16  14   9     396     737   1
  17  14   9     891     480   1
  -4  15   9     112     531   1
  -3  15   9     381     450   1
  -2  15   9     -20     688   1
  -1  15   9     241     679   1
   0  15   9    -337     686   1
   1  15   9    2365     651   1
   2  15   9    -304     486   1
   3  15   9     921     591   1
   4  15   9    5245     926   1
   5  15   9    6068    1131   1
  -6  -9 -15     903     450  -2
   6  15   9     903     450   1
  -7  -9 -15    1240     766  -2
   7  15   9    1240     766   1
  -8  -9 -15    1049     495  -2
   8  15   9    1049     495   1
  -9  -9 -15     414     354  -2
   9  15   9     414     354   1
  10  15   9     207     431   1
  11  15   9     323     481   1
  12  15   9    9323     756   1
  13  15   9    1822     702   1
  14  15   9     -76     434   1
  15  15   9     251     327   1
  16  15   9      34     480   1
  -2  16   9    1148     556   1
  -1  16   9    2858    1028   1
   0  16   9    -134     494   1
   1  16   9    5588    1063   1
   2  16   9     189     425   1
   3  16   9    1127     926   1
   4  16   9    5474     891   1
   5  16   9     891     549   1
   6  16   9    7364    1178   1
  -7  -9 -16    1044     486  -2
   7  16   9    1044     486   1
  -8  -9 -16    1717     416  -2
   8  16   9    1717     416   1
  -9  -9 -16    1211     762  -2
   9  16   9    1211     762   1
  10  16   9    2812     493   1
  11  16   9     397     382   1
  12  16   9    2319     475   1
  13  16   9     632     368   1
  14  16   9    1913     548   1
  15  16   9     192     272   1
  -1  17   9     902     583   1
   0  17   9     -30     493   1
   1  17   9     249     314   1
   2  17   9    5229    1224   1
   3  17   9     158     497   1
   4  17   9    2296     874   1
   5  17   9       4     581   1
   6  17   9    1790     469   1
  -7  -9 -17    1117     409  -2
   7  17   9    1117     409   1
  -8  -9 -17     288     356  -2
   8  17   9     288     356   1
  -9  -9 -17    1449     521  -2
   9  17   9    1449     521   1
  10  17   9    3521     757   1
  11  17   9     773     691   1
  12  17   9     396     530   1
  13  17   9    -351     351   1
  14  17   9     754     549   1
   1  18   9     -34     583   1
   2  18   9     265     216   1
   3  18   9     105     279   1
   4  18   9     435     549   1
   5  18   9    4628     832   1
   6  18   9    1028     368   1
   7  18   9     183     307   1
  -8  -9 -18      80     251  -2
   8  18   9      80     251   1
  -9  -9 -18     374     467  -2
   9  18   9     374     467   1
  10  18   9    3129    1148   1
  11  18   9    -312     312   1
  12  18   9     417     443   1
  13  18   9    2057     549   1
   3  19   9    1229     429   1
   4  19   9     154     260   1
   5  19   9     627     354   1
   6  19   9     955     480   1
   7  19   9     194     229   1
  -8  -9 -19    1817     617  -2
   8  19   9    1817     617   1
  -9  -9 -19     137     514  -2
   9  19   9     137     514   1
  10  19   9    1371     651   1
  11  19   9    2811     514   1
  -5 -17  10     617     549   1
  -4 -17  10      69     549   1
  -3 -17  10    8673    1303   1
   2 -10  17     -69     686  -2
  -2 -17  10     -69     686   1
  -1 -17  10     688     320   1
   0 -17  10     314     424   1
   1 -17  10    1350     531   1
  -8 -16  10     520     207   1
  -7 -16  10    1686     360   1
  -6 -16  10     -46     291   1
  -5 -16  10    1793     335   1
  -4 -16  10    -103     243   1
  -3 -16  10     462     583   1
   2 -10  16     669     600  -2
  -2 -16  10     669     600   1
  -1 -16  10       4     410   1
   0 -16  10     605     402   1
   1 -16  10     481     300   1
   2 -16  10    1014     943   1
   3 -16  10    -281     399   1
   4 -16  10      24     480   1
  -9 -15  10     -26     176   1
  -8 -15  10    1204     379   1
  -7 -15  10     234     322   1
  -6 -15  10     447     634   1
  -5 -15  10    -238     486   1
  -4 -15  10     567     737   1
  -3 -15  10    1182     566   1
  -2 -15  10    -576     703   1
  -1 -15  10    1947     518   1
   0 -15  10     214     514   1
   1 -15  10     916     705   1
   2 -15  10     415     453   1
   3 -15  10    -313     765   1
   4 -15  10     905     462   1
   5 -15  10     144     259   1
   6 -15  10     343     583   1
 -10 -14  10    -583     583   1
  -9 -14  10     874     348   1
  -8 -14  10     179     375   1
  -7 -14  10     480     549   1
  -6 -14  10    3949     720   1
  -5 -14  10     377     514   1
  -4 -14  10    1406     686   1
  -3 -14  10    3222     617   1
  -2 -14  10       5     446   1
   1 -10  14    3176     515  -2
  -1 -14  10    3176     515   1
   0 -14  10    -280     591   1
   1 -14  10    1530     559   1
   2 -14  10    1001     487   1
   3 -14  10     663     750   1
   4 -14  10     573     666   1
   5 -14  10     436     480   1
   6 -14  10    -213     258   1
   7 -14  10     446     789   1
 -11 -13  10     297     566   1
 -10 -13  10     953     221   1
  -9 -13  10    -304     994   1
  -8 -13  10     320     399   1
  -7 -13  10    -260     410   1
  -6 -13  10     701     527   1
  -5 -13  10     343     583   1
  -4 -13  10    1611     617   1
  -3 -13  10    2777     823   1
  -2 -13  10    -498     532   1
   1 -10  13    -207     408  -2
  -1 -13  10    -207     408   1
   0 -13  10     721     647   1
   1 -13  10     672     584   1
   2 -13  10     198     658   1
   3 -13  10    3932     638   1
   4 -13  10    -159     722   1
   5 -13  10    1984     596   1
   6 -13  10    -397     397   1
   7 -13  10     671     960   1
   8 -13  10     236     600   1
 -11 -12  10    1848    1200   1
 -10 -12  10     298     293   1
  -9 -12  10    1118     378   1
  -8 -12  10     375     531   1
  -7 -12  10     178     519   1
  -6 -12  10    3239     840   1
  -5 -12  10     994     926   1
  -4 -12  10    2811     754   1
  -3 -12  10     857     823   1
  -2 -12  10    -431     521   1
   1 -10  12     346     727  -2
  -1 -12  10     346     727   1
   0 -12  10   25886    1744   1
   1 -12  10    -644     644   1
   2 -12  10    -643     643   1
   3 -12  10   18486    1311   1
   4 -12  10    -289     852   1
   5 -12  10    1001     666   1
   6 -12  10     330     577   1
   7 -12  10    2171     469   1
   8 -12  10     194     891   1
   9 -12  10     463     545   1
 -12 -11  10    -295     908   1
 -11 -11  10     808     428   1
 -10 -11  10    4894     867   1
  -9 -11  10    1305     463   1
  -8 -11  10     103     617   1
  -7 -11  10    -260     533   1
  -6 -11  10    2178     524   1
  -5 -11  10    1783     754   1
  -4 -11  10    8365    1440   1
  -3 -11  10    -295     752   1
  -2 -11  10    1608     696   1
  -1 -11  10    8708     963   1
   0 -10  11   24714    1670  -2
   0 -11  10   24714    1670   1
   1 -11  10    -244     343   1
   2 -11  10    6232     982   1
   3 -11  10    1607     586   1
   4 -11  10    2209     479   1
   5 -11  10    3987     884   1
   6 -11  10     301     658   1
   7 -11  10     222     513   1
   8 -11  10     858    1080   1
   9 -11  10    2140    1200   1
  10 -11  10    -521     521   1
  11 -11  10     -69     617   1
 -12 -10  10     803     459   1
 -11 -10  10    2179     737   1
 -10 -10  10    -250     314   1
  -9 -10  10    -346     377   1
  -8 -10  10    1611     686   1
  -7 -10  10     823     686   1
  -6 -10  10    -112     539   1
  -5 -10  10    1748    1028   1
  -4 -10  10    6136    1268   1
  -3 -10  10    1714     926   1
  -2 -10  10     887     681   1
  -1 -10  10   11039    1186   1
   0 -10  10    7461     930  -2
   0 -10  10    7461     930   1
   1 -10  10    5804     604   1
   2 -10  10     -12     920   1
   3 -10  10    2416     968   1
   4 -10  10    -151     442   1
   5 -10  10     184     566   1
   6 -10  10     104     717   1
   7 -10  10    4595     735   1
   8 -10  10     686     261   1
   9 -10  10     878     887   1
  10 -10  10     326     945   1
  11 -10  10    -396     535   1
  12 -10  10    -686     686   1
 -12  -9  10     685     606   1
 -11  -9  10     828     478   1
 -10  -9  10     144     322   1
  -9  -9  10    3259     720   1
  -8  -9  10     926     651   1
  -7  -9  10     583     686   1
  -6  -9  10    1597     596   1
  -5  -9  10    6445    1166   1
  -4  -9  10    4251    1166   1
  -3  -9  10    2263    1028   1
  -2  -9  10    2392     756   1
  -1  -9  10   13058    1117   1
   0 -10   9   20365    1210  -2
   0  -9  10   20365    1210   1
   1  -9  10    3356     578   1
   2  -9  10    4157     719   1
   3  -9  10    7122     933   1
   4  -9  10     727     530   1
   5  -9  10    4689     530   1
   6  -9  10    -393     506   1
   7  -9  10    3929     688   1
   8  -9  10    1049     453   1
   9  -9  10    4146     826   1
  10  -9  10    1232     856   1
  11  -9  10     589     588   1
  12  -9  10    2365     727   1
 -13  -8  10     171     514   1
 -12  -8  10    3214     665   1
 -11  -8  10     943     580   1
 -10  -8  10    -144     320   1
  -9  -8  10    5093     806   1
  -8  -8  10     720     651   1
  -7  -8  10   10559    1543   1
  -6  -8  10     137     651   1
  -5  -8  10    4936    1268   1
  -4  -8  10    1680     789   1
  -3  -8  10   20706    2777   1
  -2  -8  10    2102     817   1
  -1  -8  10    2033     917   1
   0 -10   8    7876     707  -2
   0  -8  10    7876     707   1
  -1 -10   8     945     441  -2
   1  -8  10     945     441   1
   2  -8  10    7756     890   1
   3  -8  10    3302     498   1
   4  -8  10    4473     752   1
   5  -8  10     -17     481   1
   6  -8  10    -255     613   1
   7  -8  10    3400     599   1
   8  -8  10     905     494   1
   9  -8  10   13219    1750   1
  10  -8  10     322     663   1
  11  -8  10    -465     650   1
  12  -8  10     -47     598   1
  13  -8  10    1337     960   1
 -13  -7  10    -531     600   1
 -12  -7  10     180     359   1
 -11  -7  10     309     560   1
 -10  -7  10     998     462   1
  -9  -7  10    -128     519   1
  -8  -7  10    8154     888   1
  -7  -7  10    9153    1406   1
  -6  -7  10    2468     617   1
  -5  -7  10    7268    1200   1
  -4  -7  10    2743    1097   1
  -3  -7  10   16763    2365   1
  -2  -7  10    2131     801   1
  -1  -7  10   17160    1663   1
   0  -7  10    2768    1252   1
  -1 -10   7    3427     597  -2
   1  -7  10    3427     597   1
   2  -7  10    2100     460   1
   3  -7  10    3621     530   1
   4  -7  10    4717     528   1
   5  -7  10     -38     355   1
   6  -7  10     755     611   1
   7  -7  10    -478     478   1
   8  -7  10     840     465   1
   9  -7  10    3996     778   1
  10  -7  10    1427     764   1
  11  -7  10     663     810   1
  12  -7  10     866     741   1
  13  -7  10    2868     689   1
  14  -7  10    3462    1028   1
 -13  -6  10    -317     446   1
 -12  -6  10    2483     813   1
 -11  -6  10     706     400   1
 -10  -6  10     268     406   1
  -9  -6  10     845     421   1
  -8  -6  10    1514    1251   1
  -7  -6  10     171     651   1
  -6  -6  10    7645    1200   1
  -5  -6  10       0     480   1
  -4  -6  10   10833    1817   1
  -3  -6  10   14192    1920   1
  -2  -6  10    1516    1008   1
  -1  -6  10   13213    1520   1
   0  -6  10    7713    1168   1
  -1 -10   6    1100     511  -2
   1  -6  10    1100     511   1
   2  -6  10    3143     678   1
   3  -6  10     808     492   1
   4  -6  10    1894     477   1
   5  -6  10    4496     734   1
   6  -6  10    6580     660   1
   7  -6  10      46     489   1
   8  -6  10     324     477   1
   9  -6  10    1673     935   1
  10  -6  10     930     636   1
  11  -6  10    4077    1060   1
  12  -6  10     709     709   1
  13  -6  10     414     610   1
  14  -6  10     260     874   1
 -13  -5  10    -135     446   1
 -12  -5  10     329     374   1
 -11  -5  10     157     460   1
 -10  -5  10    1818     452   1
  -9  -5  10    4287     897   1
  -8  -5  10    9834    1069   1
  -7  -5  10    2057     754   1
  -6  -5  10     617     686   1
  -5  -5  10    1234     686   1
  -3  -5  10    2605    1063   1
  -2  -5  10    6741    1621   1
  -1  -5  10    2727     582   1
   0  -5  10    4644     695   1
  -1 -10   5   25523    1528  -2
   1  -5  10   25523    1528   1
  -2 -10   5    1616     388  -2
   2  -5  10    1616     388   1
   3  -5  10   14006     792   1
   4  -5  10   14909     904   1
   5  -5  10     -99     362   1
   6  -5  10    1782     464   1
   7  -5  10     951     518   1
   8  -5  10   72910    3865   1
   9  -5  10     492     662   1
  10  -5  10     878     836   1
  11  -5  10     318     562   1
  12  -5  10    -811     811   1
  13  -5  10     646     752   1
  14  -5  10     391     516   1
  15  -5  10    -720     857   1
 -13  -4  10     178     327   1
 -12  -4  10     594     356   1
 -11  -4  10    7890    1211   1
 -10  -4  10     147     270   1
  -9  -4  10    2642     487   1
  -8  -4  10     312     423   1
  -7  -4  10    4975     994   1
  -6  -4  10    2982     789   1
  -5  -4  10    2400     720   1
  -3  -4  10    1680     960   1
  -2  -4  10    -883     883   1
  -1  -4  10    4219     703   1
   0  -4  10    4205     672   1
   1  -4  10    5363     685   1
  -2 -10   4    3551     494  -2
   2  -4  10    3551     494   1
   3  -4  10   52966    2381   1
   4  -4  10    -219     410   1
   5  -4  10    7199     575   1
   6  -4  10   11985     621   1
   7  -4  10    7146     716   1
   8  -4  10   37597    2095   1
   9  -4  10    4955     836   1
  10  -4  10    1391     610   1
  11  -4  10    -474     540   1
  12  -4  10    -195     540   1
  13  -4  10    -378     905   1
  14  -4  10     461     548   1
  15  -4  10    -566     566   1
 -13  -3  10     823     480   1
 -12  -3  10     324     343   1
 -11  -3  10     803     378   1
 -10  -3  10    -405     554   1
  -9  -3  10     188     389   1
  -8  -3  10    8317     827   1
  -7  -3  10     658     443   1
  -6  -3  10     -34     617   1
  -5  -3  10     651     480   1
  -2  -3  10    1145     769   1
  -1  -3  10    2765    1114   1
   0  -3  10   22635    2226   1
   1  -3  10    2072    1048   1
  -2 -10   3    1828     515  -2
   2  -3  10    1828     515   1
   3  -3  10   22118    1236   1
   4  -3  10    8051     666   1
   5  -3  10     159     349   1
   6  -3  10   16099     753   1
   7  -3  10    5749     632   1
   8  -3  10   33648    1889   1
   9  -3  10    2935     615   1
  10  -3  10    7416     762   1
  11  -3  10     350     576   1
  12  -3  10   10375     891   1
  13  -3  10     607     834   1
  14  -3  10     937     643   1
  15  -3  10    -639     639   1
 -13  -2  10     -69     446   1
 -12  -2  10    -274     274   1
 -11  -2  10    2745     481   1
 -10  -2  10    1574     529   1
  -9  -2  10    3384     510   1
  -8  -2  10    2198     395   1
  -7  -2  10    6248     721   1
  -6  -2  10    2125     583   1
  -5  -2  10     343     651   1
  -4  -2  10    3737     686   1
  -1  -2  10   23933    2703   1
   0  -2  10   18841    2018   1
   1  -2  10   19455    2010   1
  -2 -10   2    9784    1406  -2
   2  -2  10    9784    1406   1
  -3 -10   2    2002     896  -2
   3  -2  10    2002     896   1
   4  -2  10    1775     734   1
   5  -2  10    2705     392   1
   6  -2  10   12483     597   1
   7  -2  10    9594     683   1
   8  -2  10    2314     388   1
   9  -2  10   14809     935   1
  10  -2  10    1585     478   1
  11  -2  10    1026     486   1
  12  -2  10    1089     514   1
  13  -2  10      78     527   1
  14  -2  10    3545     643   1
  15  -2  10     692     516   1
 -13  -1  10     617     446   1
 -12  -1  10    -514     514   1
 -11  -1  10    1311     409   1
 -10  -1  10     360     506   1
  -9  -1  10    7612     836   1
  -8  -1  10    1972     495   1
  -7  -1  10     793     372   1
  -6  -1  10    5597     626   1
  -5  -1  10    5519     926   1
  -4  -1  10    8879    1337   1
  -1  -1  10    3103    2280   1
   0  -1  10    5604    1091   1
   1  -1  10    8538    1323   1
  -2 -10   1   21349    2066  -2
   2  -1  10   21349    2066   1
  -3 -10   1   21941    1881  -2
   3  -1  10   21941    1881   1
   4  -1  10   18169    1579   1
   5  -1  10   14755    1357   1
   6  -1  10    1990     353   1
   7  -1  10   47302    2235   1
   8  -1  10    7561     574   1
   9  -1  10   34349    1635   1
  10  -1  10    6124     588   1
  11  -1  10    1141     532   1
  12  -1  10   21602    1303   1
  13  -1  10    6538     621   1
  14  -1  10     748     437   1
  15  -1  10    1171     403   1
 -12   0  10    1841     486   1
 -11   0  10    2767     535   1
 -10   0  10    1296     553   1
  -9   0  10    1394     310   1
  -8   0  10    8222    2003   1
  -7   0  10    5296     861   1
  -6   0  10     284     545   1
  -5   0  10    1097     651   1
  -4   0  10     686     651   1
  -1   0  10   12032    2554   1
   0   0  10   19936    2010   1
   1   0  10   14661    1581   1
   2   0  10   21835    2148   1
  -3 -10   0    5583     953  -2
   3   0  10    5583     953   1
  -4 -10   0    5421     932  -2
   4   0  10    5421     932   1
   5   0  10   20460    1659   1
   6   0  10    2539     350   1
   7   0  10    2836     419   1
   8   0  10    -317     317   1
   9   0  10    6997     504   1
  10   0  10     414     616   1
  11   0  10     263     392   1
  12   0  10    7475     629   1
  13   0  10    7090     636   1
  14   0  10     271     406   1
  15   0  10     344     334   1
  16   0  10    4628     823   1
 -12   1  10    2470     582   1
 -11   1  10     661     375   1
 -10   1  10     720     776   1
  -9   1  10    1139     509   1
  -8   1  10     899     410   1
  -7   1  10     698     481   1
  -6   1  10    1429     469   1
  -5   1  10      69     617   1
  -4   1  10    5416     994   1
  -3   1  10    5416     891   1
  -1   1  10    1658    2982   1
   0   1  10    4185    1124   1
   1   1  10    5904    1188   1
   2   1  10   18006    1826   1
  -3 -10  -1   42195    3037  -2
   3   1  10   42195    3037   1
  -4 -10  -1   33603    2562  -2
   4   1  10   33603    2562   1
   5   1  10    2139     711   1
   6   1  10   32389    1835   1
   7   1  10    5733     382   1
   8   1  10   11799     776   1
   9   1  10    5631     446   1
  10   1  10   14687     881   1
  11   1  10     156     440   1
  12   1  10   19645    1176   1
  13   1  10    3320     514   1
  14   1  10    1414     460   1
  15   1  10    -383     383   1
  16   1  10     462     329   1
 -12   2  10    1199     379   1
 -11   2  10     619     305   1
 -10   2  10     339     426   1
  -9   2  10    -118     461   1
  -8   2  10    1635     589   1
  -7   2  10    7822    1097   1
  -6   2  10    2703    1059   1
  -5   2  10     164     476   1
  -4   2  10    -103     651   1
  -3   2  10     960     480   1
   0   2  10    6815    1539   1
   1   2  10   45209    3695   1
   2   2  10    6436    1578   1
  -3 -10  -2   14874    1502  -2
   3   2  10   14874    1502   1
  -4 -10  -2   43820    3375  -2
   4   2  10   43820    3375   1
   5   2  10   16207    1826   1
   6   2  10   21583    1769   1
   7   2  10    1763     276   1
   8   2  10     646     361   1
   9   2  10    4725     421   1
  10   2  10    2920     517   1
  11   2  10    -250     423   1
  12   2  10   31531    1812   1
  13   2  10     996     456   1
  14   2  10      -1     449   1
  15   2  10      40     422   1
  16   2  10    3763     547   1
  17   2  10     205     386   1
 -11   3  10     212     532   1
 -10   3  10    -202     565   1
  -9   3  10     952     452   1
  -8   3  10    2823     394   1
  -7   3  10     462     418   1
  -6   3  10    9273    1111   1
  -5   3  10    -268     912   1
  -4   3  10   20294    2571   1
  -3   3  10   15461    2023   1
   0   3  10   21710    2555   1
   1   3  10   10587    1754   1
   2   3  10   15458    1729   1
  -3 -10  -3   27367    2166  -2
   3   3  10   27367    2166   1
  -4 -10  -3   17890    1780  -2
   4   3  10   17890    1780   1
  -5 -10  -3    3014     816  -2
   5   3  10    3014     816   1
   6   3  10   18232    1294   1
   7   3  10   12977     666   1
   8   3  10    1403     258   1
   9   3  10    6311     592   1
  10   3  10    7454     701   1
  11   3  10    6181     609   1
  12   3  10    5923     602   1
  13   3  10    1464     476   1
  14   3  10     971     470   1
  15   3  10     375     503   1
  16   3  10     929     438   1
  17   3  10     326     669   1
  18   3  10     137     480   1
 -11   4  10    -262     564   1
 -10   4  10    -150     365   1
  -9   4  10    1001     669   1
  -8   4  10    1118     532   1
  -7   4  10    2023     393   1
  -6   4  10    1560     699   1
  -5   4  10    1080     941   1
  -4   4  10    -152     633   1
  -3   4  10   13987    1885   1
  -2   4  10    7336    1166   1
   0   4  10   12135    2640   1
   1   4  10    1749    1211   1
   2   4  10     116     989   1
  -3 -10  -4    5325    1772  -2
   3   4  10    5325    1772   1
  -4 -10  -4   16081    1701  -2
   4   4  10   16081    1701   1
  -5 -10  -4    3146    1007  -2
   5   4  10    3146    1007   1
   6   4  10    3405     451   1
   7   4  10   11457     682   1
   8   4  10     724     294   1
   9   4  10    8257     656   1
  10   4  10     804     380   1
  11   4  10    1865     329   1
  12   4  10   12413    1241   1
  13   4  10    9141     931   1
  14   4  10    1061     506   1
  15   4  10   10455    1240   1
  16   4  10      -7     430   1
  17   4  10    2938     626   1
  18   4  10    -206     514   1
 -11   5  10     940     371   1
 -10   5  10     207     461   1
  -9   5  10    1560     699   1
  -8   5  10    3640     559   1
  -7   5  10     122     411   1
  -6   5  10     911     476   1
  -5   5  10     840     502   1
  -4   5  10    8158     939   1
  -3   5  10   11491    1505   1
  -2   5  10    3087    1526   1
   0   5  10    3120     857   1
   1   5  10   11190    1492   1
   2   5  10    8014    1369   1
  -3 -10  -5   48135    3921  -2
   3   5  10   48135    3921   1
  -4 -10  -5    8311     875  -2
   4   5  10    8311     875   1
  -5 -10  -5   41562    2240  -2
   5   5  10   41562    2240   1
  -6 -10  -5    7051     556  -2
   6   5  10    7051     556   1
   7   5  10   11907     657   1
   8   5  10    3826     342   1
   9   5  10    6088     600   1
  10   5  10    2198     624   1
  11   5  10     418     305   1
  12   5  10    7560     580   1
  13   5  10    1044     708   1
  14   5  10     165     534   1
  15   5  10     429     562   1
  16   5  10    -379     380   1
  17   5  10     247     513   1
  18   5  10     446     617   1
 -10   6  10     806     533   1
  -9   6  10      -7     406   1
  -8   6  10     938     498   1
  -7   6  10      -5     213   1
  -6   6  10    1342     532   1
  -5   6  10     344     519   1
  -4   6  10    1502     777   1
  -3   6  10    5461     993   1
  -2   6  10     358     503   1
  -1   6  10    5314    2640   1
   0   6  10    1988    2571   1
   1   6  10   17726    1971   1
   2   6  10    4779     746   1
  -3 -10  -6    7013     856  -2
   3   6  10    7013     856   1
  -4 -10  -6    4125     527  -2
   4   6  10    4125     527   1
  -5 -10  -6    7614     562  -2
   5   6  10    7614     562   1
  -6 -10  -6    6390     737  -2
   6   6  10    6390     737   1
  -7 -10  -6   23743    1010  -2
   7   6  10   23743    1010   1
   8   6  10   14257     756   1
   9   6  10    8917     525   1
  10   6  10    2066     419   1
  11   6  10    4153     498   1
  12   6  10     379     336   1
  13   6  10    2287     661   1
  14   6  10    1184     573   1
  15   6  10    2525     665   1
  16   6  10     747     615   1
  17   6  10     871     497   1
  18   6  10     436     424   1
 -10   7  10    1404     943   1
  -9   7  10      20     288   1
  -8   7  10     473     380   1
  -7   7  10     699     548   1
  -6   7  10     746     375   1
  -5   7  10    -193     447   1
  -4   7  10    1188     484   1
  -3   7  10    -281     662   1
  -2   7  10    -376     978   1
  -1   7  10    4225     834   1
   0   7  10     617    1599   1
   1   7  10   34486    2955   1
   2   7  10    1506     596   1
  -3 -10  -7   34667    2135  -2
   3   7  10   34667    2135   1
  -4 -10  -7    1783     452  -2
   4   7  10    1783     452   1
  -5 -10  -7   15691    1120  -2
   5   7  10   15691    1120   1
  -6 -10  -7   14179     833  -2
   6   7  10   14179     833   1
  -7 -10  -7    1360     294  -2
   7   7  10    1360     294   1
  -8 -10  -7    9250     595  -2
   8   7  10    9250     595   1
   9   7  10   12521     977   1
  10   7  10    5526     426   1
  11   7  10   12847     969   1
  12   7  10    4410     825   1
  13   7  10    2886     415   1
  14   7  10    -356     526   1
  15   7  10    4173     557   1
  16   7  10    1388     582   1
  17   7  10     990     590   1
  18   7  10      89     566   1
  -9   8  10     725     424   1
  -8   8  10     578     639   1
  -7   8  10     150     458   1
  -6   8  10     327     248   1
  -5   8  10    4438     626   1
  -4   8  10     361     489   1
  -3   8  10     462     485   1
  -2   8  10     788    1011   1
  -1   8  10    -484    1885   1
   0   8  10    2554    1600   1
   1   8  10   16134    2801   1
   2   8  10    -647     653   1
  -3 -10  -8   13216    1227  -2
   3   8  10   13216    1227   1
  -4 -10  -8     871     401  -2
   4   8  10     871     401   1
  -5 -10  -8    4552     473  -2
   5   8  10    4552     473   1
  -6 -10  -8    5536     487  -2
   6   8  10    5536     487   1
  -7 -10  -8    5122     453  -2
   7   8  10    5122     453   1
  -8 -10  -8   35409    1665  -2
   8   8  10   35409    1665   1
   9   8  10    3338     437   1
  10   8  10    1073     357   1
  11   8  10     800     663   1
  12   8  10    2160     457   1
  13   8  10    1552     423   1
  14   8  10    1550     806   1
  15   8  10     449     580   1
  16   8  10    1203     566   1
  17   8  10     120     564   1
  18   8  10    -616     789   1
  -8   9  10     706     375   1
  -7   9  10     276     566   1
  -6   9  10    2055     520   1
  -5   9  10    1618     379   1
  -4   9  10    8089     785   1
  -3   9  10     438     466   1
  -2   9  10    4275    1880   1
  -1   9  10    1793    1131   1
   0   9  10   13335    1954   1
   1   9  10   10211    3034   1
   2   9  10    9580    1176   1
  -3 -10  -9   24067    2533  -2
   3   9  10   24067    2533   1
  -4 -10  -9   18212    1262  -2
   4   9  10   18212    1262   1
  -5 -10  -9    6413     529  -2
   5   9  10    6413     529   1
  -6 -10  -9   13946     829  -2
   6   9  10   13946     829   1
  -7 -10  -9   14590     880  -2
   7   9  10   14590     880   1
  -8 -10  -9    4806     403  -2
   8   9  10    4806     403   1
   9   9  10    1920     437   1
  10   9  10    1436     386   1
  11   9  10    5863     796   1
  12   9  10   15954    1144   1
  13   9  10    6555     774   1
  14   9  10    4933     546   1
  15   9  10       6     543   1
  16   9  10    1792    1028   1
  17   9  10      62     583   1
  18   9  10     489     444   1
  -8  10  10     240     446   1
  -7  10  10     647     299   1
  -6  10  10    1794     468   1
  -5  10  10     279     216   1
  -4  10  10    1540     407   1
  -3  10  10     381     471   1
  -2  10  10     -82    1851   1
  -1  10  10   16489    2263   1
   0  10  10    3462     994   1
   1  10  10    2091     686   1
   2  10  10    1200     617   1
   3  10  10    1213     708   1
  -4 -10 -10   82411    5451  -2
   4  10  10   82411    5451   1
  -5 -10 -10      14     469  -2
   5  10  10      14     469   1
  -6 -10 -10   24267    1978  -2
   6  10  10   24267    1978   1
  -7 -10 -10    3415     436  -2
   7  10  10    3415     436   1
  -8 -10 -10    1298     382  -2
   8  10  10    1298     382   1
  -9 -10 -10   11052    1250  -2
   9  10  10   11052    1250   1
  10  10  10    2997     685   1
  11  10  10     283     358   1
  12  10  10     207     533   1
  13  10  10     456     533   1
  14  10  10    3793     535   1
  15  10  10    -155     766   1
  16  10  10    2007     750   1
  17  10  10     179     703   1
  18  10  10       0     549   1
  -7  11  10      34     514   1
  -6  11  10    2839     564   1
  -5  11  10    -480    1388   1
  -4  11  10    2940     493   1
  -3  11  10     753    1268   1
  -2  11  10    3561     840   1
  -1  11  10    3188     754   1
   0  11  10   14844    2125   1
   1  11  10    5051     785   1
   2  11  10   18203    2400   1
   3  11  10    2228     823   1
  -4 -10 -11   20089    2571  -2
   4  11  10   20089    2571   1
  -5 -10 -11   20013    1518  -2
   5  11  10   20013    1518   1
  -6 -10 -11    4506    1047  -2
   6  11  10    4506    1047   1
  -7 -10 -11     823     616  -2
   7  11  10     823     616   1
  -8 -10 -11    1774     429  -2
   8  11  10    1774     429   1
  -9 -10 -11    3324     588  -2
   9  11  10    3324     588   1
  10  11  10     -28     674   1
  11  11  10    8394     743   1
  12  11  10   13019     915   1
  13  11  10     405     514   1
  14  11  10    -152     397   1
  15  11  10     131     286   1
  16  11  10    -556     556   1
  17  11  10    -309     429   1
  18  11  10     103     583   1
  -6  12  10       8     241   1
  -5  12  10    -306     370   1
  -4  12  10    1156     677   1
  -3  12  10     189     442   1
  -2  12  10     354     572   1
  -1  12  10     137     549   1
   0  12  10   30407    3771   1
   1  12  10     722     977   1
   2  12  10     206     754   1
   3  12  10    5931     994   1
  -4 -10 -12   10284    1543  -2
   4  12  10   10284    1543   1
  -5 -10 -12     780     431  -2
   5  12  10     780     431   1
  -6 -10 -12    7610    1713  -2
   6  12  10    7610    1713   1
  -7 -10 -12   10412    1242  -2
   7  12  10   10412    1242   1
  -8 -10 -12    1640     388  -2
   8  12  10    1640     388   1
  -9 -10 -12    1201     446  -2
   9  12  10    1201     446   1
  10  12  10    1278     535   1
  11  12  10     536     563   1
  12  12  10    8630     708   1
  13  12  10    8837    1396   1
  14  12  10    -216     472   1
  15  12  10    4139     512   1
  16  12  10    2958     560   1
  17  12  10     162     669   1
  -5  13  10     502     365   1
  -4  13  10    -190     754   1
  -3  13  10    6579    1300   1
  -2  13  10     986     977   1
  -1  13  10     961     630   1
   0  13  10    3051     926   1
   1  13  10    5291     725   1
   2  13  10    4697    1080   1
   3  13  10   13027    1748   1
   4  13  10    -549     754   1
  -5 -10 -13   10354    1125  -2
   5  13  10   10354    1125   1
  -6 -10 -13     836     581  -2
   6  13  10     836     581   1
  -7 -10 -13   15338    1449  -2
   7  13  10   15338    1449   1
  -8 -10 -13     500     371  -2
   8  13  10     500     371   1
  -9 -10 -13    2947     505  -2
   9  13  10    2947     505   1
  10  13  10    6530     839   1
  11  13  10    -241     392   1
  12  13  10    3340     585   1
  13  13  10     998     840   1
  14  13  10      84     535   1
  15  13  10     124     436   1
  16  13  10     720     686   1
  17  13  10    -343     514   1
  -4  14  10    -434     434   1
  -3  14  10     397     580   1
  -2  14  10    -177     306   1
  -1  14  10     472     737   1
   0  14  10     240     514   1
   1  14  10    1436     669   1
   2  14  10     726     467   1
   3  14  10    1589     527   1
   4  14  10     240     754   1
  -5 -10 -14    3668     926  -2
   5  14  10    3668     926   1
  -6 -10 -14    1611     628  -2
   6  14  10    1611     628   1
  -7 -10 -14    3207     703  -2
   7  14  10    3207     703   1
  -8 -10 -14     353     520  -2
   8  14  10     353     520   1
  -9 -10 -14    3190     633  -2
   9  14  10    3190     633   1
 -10 -10 -14    -401     530  -2
  10  14  10    -401     530   1
  11  14  10    7014    1540   1
  12  14  10    9482     882   1
  13  14  10     703     606   1
  14  14  10    -125     431   1
  15  14  10    -411     531   1
  16  14  10     549     857   1
  -3  15  10     263     434   1
  -2  15  10     183     483   1
  -1  15  10     299     353   1
   0  15  10     616     416   1
   1  15  10    3117     857   1
   2  15  10    1173     569   1
   3  15  10    5574     720   1
   4  15  10    1166     549   1
   5  15  10    1783     789   1
  -6 -10 -15    2941    1337  -2
   6  15  10    2941    1337   1
  -7 -10 -15     671     772  -2
   7  15  10     671     772   1
  -8 -10 -15    2732     584  -2
   8  15  10    2732     584   1
  -9 -10 -15    1296     794  -2
   9  15  10    1296     794   1
 -10 -10 -15    -170     647  -2
  10  15  10    -170     647   1
  11  15  10    2426     451   1
  12  15  10     124     362   1
  13  15  10    4787     736   1
  14  15  10     455     436   1
  15  15  10    1626     404   1
  16  15  10     514     549   1
  -2  16  10     263     361   1
  -1  16  10    1032     789   1
   0  16  10    2457     315   1
   1  16  10     152     321   1
   2  16  10    2558     486   1
   3  16  10    -361     361   1
   4  16  10     263     535   1
   5  16  10    1543     549   1
   6  16  10    6919     807   1
  -7 -10 -16      15     577  -2
   7  16  10      15     577   1
  -8 -10 -16    1478     371  -2
   8  16  10    1478     371   1
  -9 -10 -16    1567     513  -2
   9  16  10    1567     513   1
  10  16  10     420     830   1
  11  16  10    1767     445   1
  12  16  10     744     511   1
  13  16  10      54     511   1
  14  16  10    -395     395   1
  15  16  10    1875     411   1
   0  17  10    -137     412   1
   1  17  10    -211     252   1
   2  17  10     503     329   1
   3  17  10    1894     737   1
   4  17  10    1898     450   1
   5  17  10     396     353   1
   6  17  10     381     452   1
  -7 -10 -17     977     391  -2
   7  17  10     977     391   1
  -8 -10 -17     118     270  -2
   8  17  10     118     270   1
  -9 -10 -17    2168     615  -2
   9  17  10    2168     615   1
  10  17  10    3317     506   1
  11  17  10     272     574   1
  12  17  10     377     477   1
  13  17  10     180     771   1
  14  17  10     659     321   1
   2  18  10    2820    1109   1
   3  18  10     868     379   1
   4  18  10     392     238   1
   5  18  10     -88     545   1
   6  18  10    2755     627   1
   7  18  10     616     703   1
  -8 -10 -18    1351     526  -2
   8  18  10    1351     526   1
  -9 -10 -18     587     399  -2
   9  18  10     587     399   1
  10  18  10     610     371   1
  11  18  10    -218     334   1
  12  18  10    -384     384   1
  13  18  10     137     583   1
   5  19  10     480     480   1
   6  19  10     974     309   1
   7  19  10     823     720   1
  -8 -10 -19    1474     549  -2
   8  19  10    1474     549   1
  -9 -10 -19     -34     446  -2
   9  19  10     -34     446   1
  10  19  10     343     343   1
  -6 -16  11     274     514   1
  -5 -16  11    -200     395   1
  -4 -16  11    1261     507   1
  -3 -16  11    5157     739   1
  -2 -16  11    -343     789   1
  -1 -16  11    1625     392   1
   0 -16  11     386     353   1
   1 -16  11     -18     410   1
   2 -16  11     741     386   1
   3 -16  11     116     296   1
  -8 -15  11     459     411   1
  -7 -15  11     110     272   1
  -6 -15  11    -137     265   1
  -5 -15  11    1520     490   1
  -4 -15  11     476     518   1
  -3 -15  11     713     618   1
  -2 -15  11     111     551   1
   1 -11  15     659     362  -2
  -1 -15  11     659     362   1
   0 -15  11    1030     448   1
   1 -15  11    1841     705   1
   2 -15  11    -284     576   1
   3 -15  11    1205     478   1
   4 -15  11     -63     361   1
   5 -15  11     171     686   1
  -9 -14  11    2134     256   1
  -8 -14  11     588     273   1
  -7 -14  11     427     531   1
  -6 -14  11     285     302   1
  -5 -14  11    -549     549   1
  -4 -14  11    3960     651   1
  -3 -14  11     510     600   1
  -2 -14  11    1435     508   1
   1 -11  14    3855     640  -2
  -1 -14  11    3855     640   1
   0 -14  11    -107     407   1
   1 -14  11    2338     450   1
   2 -14  11    -100     339   1
   3 -14  11     748     568   1
   4 -14  11     240    1200   1
   5 -14  11    1476     518   1
   6 -14  11     789     720   1
   7 -14  11     377     617   1
 -10 -13  11    -446     446   1
  -9 -13  11     523     309   1
  -8 -13  11     262     549   1
  -7 -13  11    5558     658   1
  -6 -13  11     267     478   1
  -5 -13  11    1097     754   1
  -4 -13  11    2953     771   1
  -3 -13  11     206     651   1
  -2 -13  11    1439     651   1
   1 -11  13     530     316  -2
  -1 -13  11     530     316   1
   0 -13  11     842     589   1
   1 -13  11    1737     512   1
   2 -13  11     612     445   1
   3 -13  11    1223     399   1
   4 -13  11    -205     805   1
   5 -13  11    1489     926   1
   6 -13  11    1848     484   1
   7 -13  11    1063     857   1
   8 -13  11    -583     651   1
 -10 -12  11     211     299   1
  -9 -12  11     198     365   1
  -8 -12  11     789     360   1
  -7 -12  11     564     392   1
  -6 -12  11    4255    1868   1
  -5 -12  11     720     823   1
  -4 -12  11     413     703   1
  -3 -12  11    4098     804   1
  -2 -12  11    1225     703   1
  -1 -12  11    8993     774   1
   0 -11  12    5867     509  -2
   0 -12  11    5867     509   1
   1 -12  11    1325     544   1
   2 -12  11     356     546   1
   3 -12  11    4525     625   1
   4 -12  11    -123     901   1
   5 -12  11   15218    2897   1
   6 -12  11     665     506   1
   7 -12  11    1191     626   1
   8 -12  11     881     615   1
   9 -12  11     717     857   1
 -11 -11  11     490     337   1
 -10 -11  11     -46     272   1
  -9 -11  11      59     402   1
  -8 -11  11    1184     482   1
  -7 -11  11    -120     634   1
  -6 -11  11    2810     874   1
  -5 -11  11    5039     960   1
  -4 -11  11     137     891   1
  -3 -11  11    4764     977   1
  -2 -11  11     255     576   1
  -1 -11  11    6843     932   1
   0 -11  11   56585    3932  -2
   0 -11  11   56585    3932   1
   1 -11  11    1377     595   1
   2 -11  11    1263     586   1
   3 -11  11    8909     873   1
   4 -11  11     394     418   1
   5 -11  11    1422     738   1
   6 -11  11     368     536   1
   7 -11  11    6250     767   1
   8 -11  11    -131     658   1
   9 -11  11     763     618   1
  10 -11  11     -64     507   1
 -11 -10  11    -194     375   1
 -10 -10  11    -178     237   1
  -9 -10  11     292     303   1
  -8 -10  11    1474     480   1
  -7 -10  11    2169     503   1
  -6 -10  11      -8     463   1
  -5 -10  11    4731    1166   1
  -4 -10  11     411     926   1
  -3 -10  11    2811     810   1
  -2 -10  11    -440     634   1
  -1 -10  11     316     602   1
   0 -11  10   33392    2074  -2
   0 -10  11   33392    2074   1
   1 -10  11    6736     553   1
   2 -10  11    9825     999   1
   3 -10  11    1451     602   1
   4 -10  11     919     491   1
   5 -10  11    1425     568   1
   6 -10  11    3547     663   1
   7 -10  11     546     553   1
   8 -10  11     992     898   1
   9 -10  11    -786     786   1
  10 -10  11    1975     799   1
  11 -10  11    1244     576   1
 -12  -9  11     753     297   1
 -11  -9  11     882     446   1
 -10  -9  11    1051     290   1
  -9  -9  11     492     453   1
  -8  -9  11    1611     686   1
  -7  -9  11    3088     653   1
  -6  -9  11     198     994   1
  -5  -9  11    4388     994   1
  -4  -9  11     617     960   1
  -3  -9  11    1028     960   1
  -2  -9  11     928     736   1
  -1  -9  11    1416     861   1
   0  -9  11    6370     620   1
  -1 -11   9    1254     386  -2
   1  -9  11    1254     386   1
   2  -9  11    2989     607   1
   3  -9  11     302     672   1
   4  -9  11     748     507   1
   5  -9  11     746     344   1
   6  -9  11    1521     563   1
   7  -9  11    1561     688   1
   8  -9  11     548     404   1
   9  -9  11    7049    2417   1
  10  -9  11    -549     830   1
  11  -9  11     283     773   1
  12  -9  11      81     517   1
 -12  -8  11     100     288   1
 -11  -8  11    -399     399   1
 -10  -8  11    3527     639   1
  -9  -8  11     410     582   1
  -8  -8  11    2263     583   1
  -7  -8  11     549     686   1
  -6  -8  11    1146     444   1
  -5  -8  11    -274     960   1
  -4  -8  11    8570    1543   1
  -3  -8  11    5691    1234   1
  -2  -8  11    1845     602   1
  -1  -8  11    3618     708   1
   0  -8  11    8844    1249   1
  -1 -11   8    4346     527  -2
   1  -8  11    4346     527   1
   2  -8  11    1508     351   1
   3  -8  11    1732     600   1
   4  -8  11     582     483   1
   5  -8  11     621     434   1
   6  -8  11    3242     717   1
   7  -8  11     366     678   1
   8  -8  11    2862     531   1
   9  -8  11    -804     804   1
  10  -8  11     325     715   1
  11  -8  11    4198     883   1
  12  -8  11    -568     600   1
  13  -8  11    2503     926   1
 -12  -7  11     -30     288   1
 -11  -7  11    1896     531   1
 -10  -7  11     822     308   1
  -9  -7  11    -417     417   1
  -8  -7  11    1451     517   1
  -7  -7  11     480     480   1
  -6  -7  11    1406     549   1
  -5  -7  11    2446     737   1
  -4  -7  11   11827    1920   1
  -3  -7  11    7233    1234   1
  -2  -7  11    -473     742   1
  -1  -7  11    1158     485   1
   0  -7  11     532     511   1
  -1 -11   7    1408     451  -2
   1  -7  11    1408     451   1
   2  -7  11     695     356   1
   3  -7  11    9013     720   1
   4  -7  11    2122     637   1
   5  -7  11    2767     423   1
   6  -7  11    1264     700   1
   7  -7  11     494     540   1
   8  -7  11    6461     700   1
   9  -7  11    2747     671   1
  10  -7  11    1175     783   1
  11  -7  11    1045     703   1
  12  -7  11     495     750   1
  13  -7  11    3853     741   1
  14  -7  11    -651     720   1
 -12  -6  11    -124     272   1
 -11  -6  11    1179     526   1
 -10  -6  11    1740     341   1
  -9  -6  11     532     411   1
  -8  -6  11    1316     576   1
  -7  -6  11    2057     754   1
  -6  -6  11    2640     789   1
  -5  -6  11     514     480   1
  -4  -6  11   33732    4217   1
  -3  -6  11    4251     926   1
  -2  -6  11    3394     857   1
  -1  -6  11   31457    1997   1
   0  -6  11    4228     702   1
  -1 -11   6   22387    1394  -2
   1  -6  11   22387    1394   1
  -2 -11   6    1547     393  -2
   2  -6  11    1547     393   1
   3  -6  11    8804     516   1
   4  -6  11   11569    1325   1
   5  -6  11     552     391   1
   6  -6  11   11937    1470   1
   7  -6  11     408     524   1
   8  -6  11    8668     789   1
   9  -6  11    2141     851   1
  10  -6  11    -665     665   1
  11  -6  11    1119     738   1
  12  -6  11    3037     999   1
  13  -6  11    2513     766   1
  14  -6  11      22     539   1
 -12  -5  11    -245     245   1
 -11  -5  11     432     439   1
 -10  -5  11    1168     291   1
  -9  -5  11     987     419   1
  -8  -5  11    3289     509   1
  -7  -5  11    4491     891   1
  -6  -5  11    3462     857   1
  -5  -5  11    3497     857   1
  -4  -5  11    9839    1680   1
  -3  -5  11    2880     857   1
  -2  -5  11    7439    1234   1
  -1  -5  11    2109     903   1
   0  -5  11   12192     948   1
   1  -5  11    3561     582   1
  -2 -11   5     867     397  -2
   2  -5  11     867     397   1
   3  -5  11    8121     558   1
   4  -5  11     900     450   1
   5  -5  11    8100     613   1
   6  -5  11    3395     348   1
   7  -5  11    4869     659   1
   8  -5  11     631     479   1
   9  -5  11    9056     982   1
  10  -5  11    1625     661   1
  11  -5  11     960     792   1
  12  -5  11     906    1013   1
  13  -5  11    -712     712   1
  14  -5  11      79     747   1
  15  -5  11     960     720   1
 -12  -4  11     613     340   1
 -11  -4  11     676     418   1
 -10  -4  11    1943    1021   1
  -9  -4  11     300     420   1
  -8  -4  11   14194    1236   1
  -7  -4  11     494     550   1
  -6  -4  11    -686     686   1
  -5  -4  11    2194     789   1
  -3  -4  11    1200     994   1
  -2  -4  11    8879    1508   1
  -1  -4  11   15939    1430   1
   0  -4  11    1222     517   1
   1  -4  11    5898     588   1
  -2 -11   4    8035     629  -2
   2  -4  11    8035     629   1
   3  -4  11    3866     391   1
   4  -4  11    4386     501   1
   5  -4  11   30901    1537   1
   6  -4  11    1038     374   1
   7  -4  11     667     543   1
   8  -4  11   25997    1585   1
   9  -4  11    7064     841   1
  10  -4  11    -350     636   1
  11  -4  11     674     624   1
  12  -4  11     -50     543   1
  13  -4  11    2028     719   1
  14  -4  11    3445    1200   1
  15  -4  11     -75     526   1
 -12  -3  11      80     337   1
 -11  -3  11    -309     309   1
 -10  -3  11     218     404   1
  -9  -3  11    1315     393   1
  -8  -3  11    3454     519   1
  -7  -3  11    2010     540   1
  -6  -3  11   11381    1646   1
  -5  -3  11    1920     720   1
  -3  -3  11    1200     994   1
  -2  -3  11    5862    1234   1
  -1  -3  11     721     704   1
   0  -3  11    4201     660   1
   1  -3  11    5219     585   1
  -2 -11   3    1113     410  -2
   2  -3  11    1113     410   1
  -3 -11   3   24882    1158  -2
   3  -3  11   24882    1158   1
   4  -3  11     624     354   1
   5  -3  11     632     445   1
   6  -3  11    1872     301   1
   7  -3  11     844     481   1
   8  -3  11   10123     826   1
   9  -3  11   21092    1576   1
  10  -3  11    1000     928   1
  11  -3  11     631     722   1
  12  -3  11     218     703   1
  13  -3  11    2706     578   1
  14  -3  11    -216     870   1
  15  -3  11    -361    1028   1
 -12  -2  11     686     720   1
 -11  -2  11     593     393   1
 -10  -2  11     396     404   1
  -9  -2  11    2413     425   1
  -8  -2  11    8315    1022   1
  -7  -2  11    2718    1020   1
  -6  -2  11    1439     583   1
  -5  -2  11     274     480   1
  -4  -2  11    3462     857   1
  -2  -2  11    3702    1063   1
  -1  -2  11    5248     878   1
   0  -2  11    1604     572   1
   1  -2  11    1520     702   1
  -2 -11   2   22760    1210  -2
   2  -2  11   22760    1210   1
  -3 -11   2    6182     508  -2
   3  -2  11    6182     508   1
   4  -2  11    3157     304   1
   5  -2  11   18826     908   1
   6  -2  11    8216     587   1
   7  -2  11    2620     434   1
   8  -2  11    4076     525   1
   9  -2  11    4928     696   1
  10  -2  11   10714     981   1
  11  -2  11   10015     847   1
  12  -2  11     826     643   1
  13  -2  11     847    1026   1
  14  -2  11    6603     735   1
  15  -2  11    -317     686   1
 -12  -1  11    1748     583   1
 -11  -1  11    4847     574   1
 -10  -1  11    -136     461   1
  -9  -1  11    9676    1214   1
  -8  -1  11     610     469   1
  -7  -1  11    7370     947   1
  -6  -1  11    1577     549   1
  -5  -1  11    1748     720   1
  -4  -1  11    2914     651   1
  -2  -1  11   12992    1954   1
  -1  -1  11   10102    1180   1
   0  -1  11     728     609   1
   1  -1  11   17095    1262   1
   2  -1  11   15162    1000   1
  -3 -11   1   12895     763  -2
   3  -1  11   12895     763   1
   4  -1  11    3281     747   1
   5  -1  11   10986     633   1
   6  -1  11    1993     496   1
   7  -1  11    2527     499   1
   8  -1  11     229     320   1
   9  -1  11    2573     364   1
  10  -1  11    9012     846   1
  11  -1  11    2841     650   1
  12  -1  11      26     571   1
  13  -1  11    6309     648   1
  14  -1  11    8726     855   1
  15  -1  11     526     534   1
 -12   0  11     377     480   1
 -11   0  11    1779     453   1
 -10   0  11    1630     558   1
  -9   0  11     106     317   1
  -8   0  11    2333     617   1
  -7   0  11    2112     977   1
  -6   0  11    5237     737   1
  -5   0  11     549     480   1
  -4   0  11    1028     686   1
  -2   0  11     171     891   1
  -1   0  11    5774     948   1
   0   0  11    -641     641   1
   1   0  11     689     633   1
   2   0  11     441     738   1
  -3 -11   0    1033     464  -2
   3   0  11    1033     464   1
  -4 -11   0   33407    1523  -2
   4   0  11   33407    1523   1
   5   0  11   47102    1935   1
   6   0  11   16433     848   1
   7   0  11   10634     624   1
   8   0  11     521     395   1
   9   0  11     287     541   1
  10   0  11    4475     630   1
  11   0  11   10742     866   1
  12   0  11    1739     559   1
  13   0  11    3584     801   1
  14   0  11    5555     732   1
  15   0  11     -32     401   1
  16   0  11     926     651   1
 -11   1  11     197     285   1
 -10   1  11     549     533   1
  -9   1  11    2218     633   1
  -8   1  11     437     531   1
  -7   1  11    -127     361   1
  -6   1  11    1284     526   1
  -5   1  11    3600     857   1
  -4   1  11    8639    1371   1
  -3   1  11   17689    2297   1
  -1   1  11    1954     891   1
   0   1  11    -644     644   1
   1   1  11   25289    1773   1
   2   1  11   48382    2901   1
  -3 -11  -1   14574     997  -2
   3   1  11   14574     997   1
  -4 -11  -1    3633     401  -2
   4   1  11    3633     401   1
   5   1  11   24885    1276   1
   6   1  11    3401     384   1
   7   1  11    6193     518   1
   8   1  11   10076     744   1
   9   1  11     915     380   1
  10   1  11    -404     607   1
  11   1  11     997     444   1
  12   1  11    2332     453   1
  13   1  11     895     488   1
  14   1  11    5118     796   1
  15   1  11    2204     458   1
  16   1  11     412     436   1
 -11   2  11     859     545   1
 -10   2  11    2079     537   1
  -9   2  11     308     533   1
  -8   2  11     479     658   1
  -7   2  11     377     840   1
  -6   2  11    6210     855   1
  -5   2  11   11508    1171   1
  -4   2  11    7885    1166   1
  -3   2  11    3257     686   1
  -1   2  11     583     583   1
   0   2  11    3188     741   1
   1   2  11      42     624   1
   2   2  11    2732     587   1
  -3 -11  -2   10947    1185  -2
   3   2  11   10947    1185   1
  -4 -11  -2   14010     931  -2
   4   2  11   14010     931   1
  -5 -11  -2   18051     972  -2
   5   2  11   18051     972   1
   6   2  11    3707     395   1
   7   2  11     761     302   1
   8   2  11    9447     715   1
   9   2  11    7683     582   1
  10   2  11    1717     321   1
  11   2  11     185     489   1
  12   2  11    3709     561   1
  13   2  11    3410     549   1
  14   2  11    5492     648   1
  15   2  11    1296     442   1
  16   2  11     555     496   1
  17   2  11    -617     617   1
 -11   3  11    -243     434   1
 -10   3  11     -14     732   1
  -9   3  11    1015     538   1
  -8   3  11     231     257   1
  -7   3  11    -234     468   1
  -6   3  11    1776     613   1
  -5   3  11    -409    2141   1
  -4   3  11    7200    1042   1
  -3   3  11    1131     514   1
  -1   3  11     274     789   1
   0   3  11    1697    1184   1
   1   3  11     370     627   1
   2   3  11   17288    1685   1
   3   3  11    4187     545   1
  -4 -11  -3   22873    1378  -2
   4   3  11   22873    1378   1
  -5 -11  -3   11946     721  -2
   5   3  11   11946     721   1
   6   3  11    3325     418   1
   7   3  11      27     283   1
   8   3  11   26448    1131   1
   9   3  11     328     331   1
  10   3  11    2743     594   1
  11   3  11     447     454   1
  12   3  11   29555    1947   1
  13   3  11    5728     694   1
  14   3  11     439     539   1
  15   3  11    -105     436   1
  16   3  11     494     428   1
  17   3  11      19     583   1
 -10   4  11    1652     314   1
  -9   4  11    1205     750   1
  -8   4  11     918     499   1
  -7   4  11     806    1697   1
  -6   4  11    -570    1131   1
  -5   4  11     454     673   1
  -4   4  11    6061     918   1
  -3   4  11    1254    1817   1
  -2   4  11   30784    3771   1
   0   4  11     686     754   1
   1   4  11    1031     615   1
   2   4  11    4271     630   1
   3   4  11    3497     802   1
  -4 -11  -4   16549    1088  -2
   4   4  11   16549    1088   1
  -5 -11  -4   10655     646  -2
   5   4  11   10655     646   1
  -6 -11  -4    3392     343  -2
   6   4  11    3392     343   1
   7   4  11   25043    1167   1
   8   4  11    9366     540   1
   9   4  11   11808     844   1
  10   4  11   21816    1318   1
  11   4  11     164     319   1
  12   4  11      84     519   1
  13   4  11    3536     564   1
  14   4  11    -120     668   1
  15   4  11     945     462   1
  16   4  11     409     421   1
  17   4  11    1680     543   1
 -10   5  11     295     386   1
  -9   5  11     849     439   1
  -8   5  11      75     503   1
  -7   5  11     326     804   1
  -6   5  11    1702     490   1
  -5   5  11    1017     551   1
  -4   5  11    1205     872   1
  -3   5  11    2905     720   1
  -2   5  11    3308     791   1
   0   5  11    5999    1131   1
   1   5  11   16699    1407   1
   2   5  11    6430     648   1
   3   5  11    8852     762   1
  -4 -11  -5   11142     836  -2
   4   5  11   11142     836   1
  -5 -11  -5    3444     362  -2
   5   5  11    3444     362   1
  -6 -11  -5     601     266  -2
   6   5  11     601     266   1
   7   5  11   24123    1127   1
   8   5  11    1620     393   1
   9   5  11   17515    1017   1
  10   5  11   17145    1298   1
  11   5  11    4835     509   1
  12   5  11    1043     263   1
  13   5  11    2111     546   1
  14   5  11    8007     936   1
  15   5  11      73     510   1
  16   5  11     216     518   1
  17   5  11     273     908   1
  18   5  11     678     410   1
  -9   6  11     502     287   1
  -8   6  11     380     461   1
  -7   6  11     408     492   1
  -6   6  11    -104     623   1
  -5   6  11     237     545   1
  -4   6  11     286     542   1
  -3   6  11    1156     569   1
  -2   6  11     372     806   1
  -1   6  11    3081    1911   1
   0   6  11    3584     738   1
   1   6  11   26416    2731   1
   2   6  11    1105     588   1
   3   6  11    2424     832   1
  -4 -11  -6    1477     393  -2
   4   6  11    1477     393   1
  -5 -11  -6   26582    1398  -2
   5   6  11   26582    1398   1
  -6 -11  -6    1726     329  -2
   6   6  11    1726     329   1
  -7 -11  -6    4494     397  -2
   7   6  11    4494     397   1
   8   6  11     449     373   1
   9   6  11     488     334   1
  10   6  11    5044    1030   1
  11   6  11    4204     593   1
  12   6  11    5213     689   1
  13   6  11   15458    1423   1
  14   6  11      78     610   1
  15   6  11    -150     582   1
  16   6  11      17     514   1
  17   6  11    5027     891   1
  18   6  11      57     410   1
  -9   7  11    2405     469   1
  -8   7  11     413     349   1
  -7   7  11    2525     490   1
  -6   7  11     362     390   1
  -5   7  11    2753     518   1
  -4   7  11    1060     560   1
  -3   7  11     789     538   1
  -2   7  11     788     723   1
  -1   7  11     919     689   1
   0   7  11    -220     828   1
   1   7  11    6808    1973   1
   2   7  11   12105    1468   1
  -3 -11  -7    5839     623  -2
   3   7  11    5839     623   1
  -4 -11  -7    1389     451  -2
   4   7  11    1389     451   1
  -5 -11  -7     571     320  -2
   5   7  11     571     320   1
  -6 -11  -7    1868     489  -2
   6   7  11    1868     489   1
  -7 -11  -7   10487     638  -2
   7   7  11   10487     638   1
  -8 -11  -7    3813     447  -2
   8   7  11    3813     447   1
   9   7  11    4252     430   1
  10   7  11    1351     278   1
  11   7  11    3575     540   1
  12   7  11     592     873   1
  13   7  11   22225    1504   1
  14   7  11    1574     573   1
  15   7  11     316     559   1
  16   7  11    2023     606   1
  17   7  11    -230    1303   1
  18   7  11    -154     412   1
  -8   8  11     383     249   1
  -7   8  11    2131     863   1
  -6   8  11    1112     642   1
  -5   8  11    2856     794   1
  -4   8  11     340     519   1
  -3   8  11    6399     734   1
  -2   8  11    1550    1114   1
  -1   8  11    1601     808   1
   0   8  11    3658    1830   1
   1   8  11    1544     778   1
   2   8  11    2110     586   1
  -3 -11  -8    2142     639  -2
   3   8  11    2142     639   1
  -4 -11  -8    4802     603  -2
   4   8  11    4802     603   1
  -5 -11  -8     213     460  -2
   5   8  11     213     460   1
  -6 -11  -8    2891     403  -2
   6   8  11    2891     403   1
  -7 -11  -8    2260     379  -2
   7   8  11    2260     379   1
  -8 -11  -8    5676     494  -2
   8   8  11    5676     494   1
   9   8  11   22952    1929   1
  10   8  11    3786     403   1
  11   8  11   36329    2219   1
  12   8  11    1633     446   1
  13   8  11   10802     899   1
  14   8  11    5427     932   1
  15   8  11     821     566   1
  16   8  11     247     618   1
  17   8  11    2834     775   1
  18   8  11    1213     480   1
  -7   9  11    3101    1014   1
  -6   9  11     351     531   1
  -5   9  11     354     374   1
  -4   9  11    2763     512   1
  -3   9  11    4879     623   1
  -2   9  11    3849     960   1
  -1   9  11     754     823   1
   0   9  11    4628    1063   1
   1   9  11    5896     994   1
   2   9  11    3412    1028   1
   3   9  11    9575    1324   1
  -4 -11  -9   42456    2363  -2
   4   9  11   42456    2363   1
  -5 -11  -9    8790    1238  -2
   5   9  11    8790    1238   1
  -6 -11  -9   16871    1018  -2
   6   9  11   16871    1018   1
  -7 -11  -9   11307     737  -2
   7   9  11   11307     737   1
  -8 -11  -9     535     215  -2
   8   9  11     535     215   1
  -9 -11  -9    -174     353  -2
   9   9  11    -174     353   1
  10   9  11    2945     392   1
  11   9  11   10767    1015   1
  12   9  11     686     453   1
  13   9  11    2427     812   1
  14   9  11    2375     351   1
  15   9  11    1236     600   1
  16   9  11    -434     502   1
  17   9  11    1359     634   1
  18   9  11     343     583   1
  -7  10  11      -9     273   1
  -6  10  11    3460     502   1
  -5  10  11    -269     503   1
  -4  10  11     470     400   1
  -3  10  11     503     446   1
  -2  10  11    7439    1268   1
  -1  10  11    5691    1131   1
   0  10  11   17860    2400   1
   1  10  11   12273    1680   1
   2  10  11    9222    1474   1
   3  10  11    1885     789   1
  -4 -11 -10   25170    2060  -2
   4  10  11   25170    2060   1
  -5 -11 -10   11912     996  -2
   5  10  11   11912     996   1
  -6 -11 -10   10613     841  -2
   6  10  11   10613     841   1
  -7 -11 -10    1153     365  -2
   7  10  11    1153     365   1
  -8 -11 -10    1414     365  -2
   8  10  11    1414     365   1
  -9 -11 -10     475     552  -2
   9  10  11     475     552   1
  10  10  11     270     386   1
  11  10  11    1302     651   1
  12  10  11     824     921   1
  13  10  11    1469     517   1
  14  10  11    -284     386   1
  15  10  11     918     683   1
  16  10  11     -88    1011   1
  17  10  11     312     428   1
  18  10  11    1351    1011   1
  -6  11  11     384     365   1
  -5  11  11     355     478   1
  -4  11  11    2610     381   1
  -3  11  11     560     368   1
  -2  11  11    1536     840   1
  -1  11  11    5828     994   1
   0  11  11   26122    3291   1
   1  11  11   14774    1466   1
   2  11  11    9462    1508   1
   3  11  11     240     549   1
  -4 -11 -11   13798    1403  -2
   4  11  11   13798    1403   1
  -5 -11 -11    -603     823  -2
   5  11  11    -603     823   1
  -6 -11 -11    1003     522  -2
   6  11  11    1003     522   1
  -7 -11 -11    2819     554  -2
   7  11  11    2819     554   1
  -8 -11 -11   27691    1605  -2
   8  11  11   27691    1605   1
  -9 -11 -11    5671     889  -2
   9  11  11    5671     889   1
  10  11  11     840     464   1
  11  11  11     872     423   1
  12  11  11     616     518   1
  13  11  11    1319     566   1
  14  11  11    4578     579   1
  15  11  11     -20     566   1
  16  11  11     600    1251   1
  17  11  11     200     393   1
  -5  12  11     422     404   1
  -4  12  11     549     527   1
  -3  12  11      13     360   1
  -2  12  11     847     545   1
  -1  12  11    1234     789   1
   0  12  11    5211    1097   1
   1  12  11    3284    1148   1
   2  12  11    6982    1131   1
   3  12  11     377     549   1
   4  12  11   10524    1577   1
  -5 -11 -12     513     466  -2
   5  12  11     513     466   1
  -6 -11 -12    2063     551  -2
   6  12  11    2063     551   1
  -7 -11 -12    3520     516  -2
   7  12  11    3520     516   1
  -8 -11 -12    1109     396  -2
   8  12  11    1109     396   1
  -9 -11 -12    3895     736  -2
   9  12  11    3895     736   1
  10  12  11    2662     540   1
  11  12  11    4946     644   1
  12  12  11    4130     544   1
  13  12  11     709     544   1
  14  12  11    3729     826   1
  15  12  11     394     424   1
  16  12  11    1316    1097   1
  17  12  11     274     651   1
  -4  13  11    1251     436   1
  -3  13  11     506     560   1
  -2  13  11      64     296   1
  -1  13  11     588     572   1
   0  13  11     291     444   1
   1  13  11     301     617   1
   2  13  11     495     467   1
   3  13  11    4011     960   1
   4  13  11    4765     994   1
  -5 -11 -13    6254     855  -2
   5  13  11    6254     855   1
  -6 -11 -13    1244     669  -2
   6  13  11    1244     669   1
  -7 -11 -13    1722     789  -2
   7  13  11    1722     789   1
  -8 -11 -13    8817     718  -2
   8  13  11    8817     718   1
  -9 -11 -13    1993     704  -2
   9  13  11    1993     704   1
 -10 -11 -13    1667     668  -2
  10  13  11    1667     668   1
  11  13  11    6459     703   1
  12  13  11    2850     979   1
  13  13  11    4316     789   1
  14  13  11     288     572   1
  15  13  11     451     840   1
  16  13  11    -240     651   1
  -3  14  11      72     428   1
  -2  14  11     194     218   1
  -1  14  11     431     617   1
   0  14  11     493     497   1
   1  14  11    2593     535   1
   2  14  11    2187     605   1
   3  14  11    1154     591   1
   4  14  11     446     514   1
  -5 -11 -14    2024     518  -2
   5  14  11    2024     518   1
  -6 -11 -14    3008     591  -2
   6  14  11    3008     591   1
  -7 -11 -14     134     485  -2
   7  14  11     134     485   1
  -8 -11 -14    2765     411  -2
   8  14  11    2765     411   1
  -9 -11 -14    1775     660  -2
   9  14  11    1775     660   1
 -10 -11 -14    3078     619  -2
  10  14  11    3078     619   1
  11  14  11    2488     593   1
  12  14  11   11187     964   1
  13  14  11    6267    1457   1
  14  14  11      -3     669   1
  15  14  11    1823     480   1
  16  14  11     617     651   1
  -2  15  11     432     480   1
  -1  15  11    3079     359   1
   0  15  11    1511     405   1
   1  15  11    3282     519   1
   2  15  11    -399     399   1
   3  15  11     477     436   1
   4  15  11    1153     600   1
   5  15  11    1547     450   1
  -6 -11 -15     -12     486  -2
   6  15  11     -12     486   1
  -7 -11 -15     208     484  -2
   7  15  11     208     484   1
  -8 -11 -15    1419     595  -2
   8  15  11    1419     595   1
  -9 -11 -15     520     486  -2
   9  15  11     520     486   1
 -10 -11 -15      30     480  -2
  10  15  11      30     480   1
  11  15  11     252     384   1
  12  15  11    1428     787   1
  13  15  11    -443     640   1
  14  15  11    3171    1851   1
  15  15  11     -22     463   1
  -1  16  11    1611     651   1
   0  16  11     178     207   1
   1  16  11     737     386   1
   2  16  11     903     351   1
   3  16  11    1093     428   1
   4  16  11    1016     386   1
   5  16  11    4079     823   1
   6  16  11    -384     410   1
  -7 -11 -16     702     365  -2
   7  16  11     702     365   1
  -8 -11 -16    2546     471  -2
   8  16  11    2546     471   1
  -9 -11 -16     574     470  -2
   9  16  11     574     470   1
 -10 -11 -16    3549     828  -2
  10  16  11    3549     828   1
  11  16  11    1763     462   1
  12  16  11    2967     610   1
  13  16  11     669     493   1
  14  16  11     452     994   1
   1  17  11     169     187   1
   2  17  11    1225     483   1
   3  17  11     802     342   1
   4  17  11     861     353   1
   5  17  11    1238     413   1
   6  17  11    8799     776   1
  -7 -11 -17    2148     455  -2
   7  17  11    2148     455   1
  -8 -11 -17    -542     823  -2
   8  17  11    -542     823   1
  -9 -11 -17    1251     493  -2
   9  17  11    1251     493   1
 -10 -11 -17    2519     461  -2
  10  17  11    2519     461   1
  11  17  11     880     413   1
  12  17  11    1913     737   1
  13  17  11    3516     507   1
   3  18  11     826     326   1
   4  18  11    -148     226   1
   5  18  11     639     287   1
   6  18  11     672     375   1
   7  18  11     411     823   1
  -8 -11 -18     309     583  -2
   8  18  11     309     583   1
  -9 -11 -18    -418     418  -2
   9  18  11    -418     418   1
 -10 -11 -18     994     412  -2
  10  18  11     994     412   1
  11  18  11     719     307   1
  -3 -16  12    2057     549   1
  -2 -16  12      69     343   1
   1 -12  16     446     274  -2
  -1 -16  12     446     274   1
   0 -16  12    1406     617   1
  -6 -15  12      57     274   1
  -5 -15  12    -310     424   1
  -4 -15  12     430     535   1
  -3 -15  12     910     478   1
  -2 -15  12    1234     549   1
   1 -12  15     603     626  -2
  -1 -15  12     603     626   1
   0 -15  12    2117     411   1
   1 -15  12    1070     513   1
   2 -15  12     184     507   1
   3 -15  12    1084     480   1
   4 -15  12      77     273   1
  -7 -14  12    -192     343   1
  -6 -14  12    1136     267   1
  -5 -14  12     607     312   1
  -4 -14  12     555     317   1
  -3 -14  12     -76     532   1
  -2 -14  12    1228     857   1
   1 -12  14     552     472  -2
  -1 -14  12     552     472   1
   0 -14  12     826     359   1
   1 -14  12    5207     722   1
   2 -14  12    2089    1097   1
   3 -14  12    1338    1011   1
   4 -14  12    -211     478   1
   5 -14  12     342     549   1
   6 -14  12    -309     583   1
  -8 -13  12     701     302   1
  -7 -13  12     738     617   1
  -6 -13  12     893     583   1
  -5 -13  12     572     369   1
  -4 -13  12    2000    1046   1
  -3 -13  12     441     419   1
  -2 -13  12    4652     652   1
  -1 -13  12     890     563   1
   0 -12  13    1133     500  -2
   0 -13  12    1133     500   1
   1 -13  12    6855     662   1
   2 -13  12    1380     418   1
   3 -13  12    4438     942   1
   4 -13  12     -16     600   1
   5 -13  12     119     533   1
   6 -13  12    -789     789   1
   7 -13  12    7747    1371   1
  -9 -12  12       1     213   1
  -8 -12  12     250     327   1
  -7 -12  12    3187     444   1
  -6 -12  12     130     321   1
  -5 -12  12     651     754   1
  -4 -12  12     651     560   1
  -3 -12  12    -235     549   1
  -2 -12  12     940     514   1
  -1 -12  12     942     319   1
   0 -12  12    1353    1049  -2
   0 -12  12    1353    1049   1
   1 -12  12     104     551   1
   2 -12  12    1264     522   1
   3 -12  12     196     450   1
   4 -12  12      93     572   1
   5 -12  12     443     625   1
   6 -12  12    1561     908   1
   7 -12  12    -171     566   1
   8 -12  12    -252     580   1
   9 -12  12    1028     617   1
 -10 -11  12    -514     514   1
  -9 -11  12     628     226   1
  -8 -11  12     120     364   1
  -7 -11  12     216     771   1
  -6 -11  12    -377     486   1
  -5 -11  12    1611     651   1
  -4 -11  12     327     476   1
  -3 -11  12    3241     675   1
  -2 -11  12    1212     610   1
  -1 -11  12     781     478   1
   0 -12  11    6739     677  -2
   0 -11  12    6739     677   1
   1 -11  12    4393     656   1
   2 -11  12    3113     598   1
   3 -11  12    2480     551   1
   4 -11  12    2225     823   1
   5 -11  12    3505     956   1
   6 -11  12    -272     495   1
   7 -11  12    1136     532   1
   8 -11  12    -225    1697   1
   9 -11  12    1640     698   1
  10 -11  12     -51     600   1
 -10 -10  12    -418     418   1
  -9 -10  12     307     278   1
  -8 -10  12     603     497   1
  -7 -10  12      26     583   1
  -6 -10  12     171     754   1
  -5 -10  12    5005     960   1
  -4 -10  12     720     891   1
  -3 -10  12    5853     926   1
  -2 -10  12     654     661   1
  -1 -10  12    2487     665   1
   0 -10  12   26602    2448   1
  -1 -12  10    3671     654  -2
   1 -10  12    3671     654   1
   2 -10  12     995     626   1
   3 -10  12     180     482   1
   4 -10  12    2536     539   1
   5 -10  12     143     542   1
   6 -10  12     794     439   1
   7 -10  12    7452     791   1
   8 -10  12     156     832   1
   9 -10  12     484     688   1
  10 -10  12     889     594   1
  11 -10  12    1563     497   1
 -11  -9  12     240     315   1
 -10  -9  12     583     412   1
  -9  -9  12     438     349   1
  -8  -9  12    1180     566   1
  -7  -9  12    -103     399   1
  -6  -9  12    1274     564   1
  -5  -9  12    -257     386   1
  -4  -9  12    3017    1028   1
  -3  -9  12    7242    1070   1
  -2  -9  12    -415     498   1
  -1  -9  12    6297     919   1
   0  -9  12   14281    1229   1
  -1 -12   9     538     384  -2
   1  -9  12     538     384   1
   2  -9  12    6840     832   1
   3  -9  12    1371     611   1
   4  -9  12    6514     790   1
   5  -9  12    -235     766   1
   6  -9  12     803     576   1
   7  -9  12    -508     573   1
   8  -9  12    1714     919   1
   9  -9  12    -248     843   1
  10  -9  12      71     960   1
  11  -9  12     695     679   1
  12  -9  12    1227     502   1
 -11  -8  12     115     337   1
 -10  -8  12    1091     720   1
  -9  -8  12    -253     253   1
  -8  -8  12     274     583   1
  -7  -8  12      -1     374   1
  -6  -8  12     174     977   1
  -5  -8  12    -393     393   1
  -4  -8  12    3771    1131   1
  -3  -8  12    -137     926   1
  -2  -8  12     483     567   1
  -1  -8  12    7637    2297   1
   0  -8  12    3237     595   1
  -1 -12   8    -237     420  -2
   1  -8  12    -237     420   1
   2  -8  12    3035     725   1
   3  -8  12    2551     986   1
   4  -8  12    3236     638   1
   5  -8  12     141     360   1
   6  -8  12   16061    1300   1
   7  -8  12    2166     610   1
   8  -8  12    1061     470   1
   9  -8  12    4120    1049   1
  10  -8  12     303     912   1
  11  -8  12    1063     855   1
  12  -8  12     970     703   1
 -11  -7  12     -86     339   1
 -10  -7  12    -446     494   1
  -9  -7  12    -344     344   1
  -8  -7  12    2957     499   1
  -7  -7  12    -651     651   1
  -6  -7  12    -326     558   1
  -5  -7  12    3619     613   1
  -4  -7  12   39183    4731   1
  -3  -7  12    1028     720   1
  -2  -7  12    4029     907   1
  -1  -7  12    6121     812   1
   0  -7  12     216     522   1
  -1 -12   7    8717     777  -2
   1  -7  12    8717     777   1
  -2 -12   7     954     476  -2
   2  -7  12     954     476   1
   3  -7  12    3342     649   1
   4  -7  12     549     542   1
   5  -7  12    1026     593   1
   6  -7  12    2194     646   1
   7  -7  12    1577     586   1
   8  -7  12    2221     611   1
   9  -7  12    -654     654   1
  10  -7  12    4987     740   1
  11  -7  12    2681     972   1
  12  -7  12     400     873   1
  13  -7  12    1120     926   1
 -11  -6  12     308     379   1
 -10  -6  12     220     467   1
  -9  -6  12    1201     412   1
  -8  -6  12     445     388   1
  -7  -6  12    1474     720   1
  -6  -6  12    5176     857   1
  -5  -6  12       4    1046   1
  -4  -6  12   24614    3120   1
  -3  -6  12     -34     960   1
  -2  -6  12    7757    1046   1
  -1  -6  12   11761    1282   1
   0  -6  12    7271     754   1
   1  -6  12    7068     841   1
  -2 -12   6     557     389  -2
   2  -6  12     557     389   1
   3  -6  12    3305     560   1
   4  -6  12     557     586   1
   5  -6  12     729     785   1
   6  -6  12    9579    1000   1
   7  -6  12    4585     723   1
   8  -6  12    2847    1019   1
   9  -6  12    1129     767   1
  10  -6  12    4230     844   1
  11  -6  12    1872     685   1
  12  -6  12    2302     810   1
  13  -6  12     919     677   1
  14  -6  12    1885     891   1
 -11  -5  12    -327     327   1
 -10  -5  12     718     434   1
  -9  -5  12    3497     448   1
  -8  -5  12     160     336   1
  -7  -5  12    1303     686   1
  -6  -5  12    -617     686   1
  -5  -5  12   10775    1128   1
  -4  -5  12    9393    1474   1
  -3  -5  12   11038    1851   1
  -2  -5  12     994     960   1
  -1  -5  12    6912    1565   1
   0  -5  12    1004     658   1
   1  -5  12    7695     685   1
  -2 -12   5    2830     477  -2
   2  -5  12    2830     477   1
   3  -5  12   22959    1157   1
   4  -5  12    1759     476   1
   5  -5  12     752     457   1
   6  -5  12    2186     681   1
   7  -5  12   10265     977   1
   8  -5  12    5747     701   1
   9  -5  12    5428    1053   1
  10  -5  12    6140    1039   1
  11  -5  12    -427     669   1
  12  -5  12    -505     505   1
  13  -5  12    -297    1680   1
  14  -5  12     -29     657   1
 -11  -4  12    2197     444   1
 -10  -4  12     600     389   1
  -9  -4  12    1920     394   1
  -8  -4  12    4815     683   1
  -7  -4  12      31     545   1
  -6  -4  12    1440     754   1
  -5  -4  12    1508     754   1
  -4  -4  12    6342    1200   1
  -3  -4  12    1337    1028   1
  -2  -4  12    1166     994   1
  -1  -4  12     671     646   1
   0  -4  12    2407     639   1
   1  -4  12    3921     585   1
  -2 -12   4   11237     785  -2
   2  -4  12   11237     785   1
  -3 -12   4   17056     839  -2
   3  -4  12   17056     839   1
   4  -4  12     424     512   1
   5  -4  12    8702     616   1
   6  -4  12     180     259   1
   7  -4  12    1707     733   1
   8  -4  12    5129     666   1
   9  -4  12      25     879   1
  10  -4  12    5412     898   1
  11  -4  12     661     681   1
  12  -4  12    1247     725   1
  13  -4  12     143     726   1
  14  -4  12    1360     903   1
  15  -4  12     156     658   1
 -11  -3  12    -394     394   1
 -10  -3  12    2376     908   1
  -9  -3  12    2138     376   1
  -8  -3  12   19831    1889   1
  -7  -3  12    -166     583   1
  -6  -3  12     353     551   1
  -5  -3  12     171     686   1
  -4  -3  12     956     608   1
  -3  -3  12      34     720   1
  -2  -3  12   28110    3462   1
  -1  -3  12     519     623   1
   0  -3  12    4064     665   1
   1  -3  12     487     470   1
   2  -3  12    4709     571   1
  -3 -12   3   22743    1068  -2
   3  -3  12   22743    1068   1
   4  -3  12   14257     802   1
   5  -3  12    6438     495   1
   6  -3  12    3083     395   1
   7  -3  12   14515    1068   1
   8  -3  12     494     482   1
   9  -3  12   12782     998   1
  10  -3  12    -715    1123   1
  11  -3  12     812    1099   1
  12  -3  12    5045    1189   1
  13  -3  12    1328     686   1
  14  -3  12    2062     697   1
  15  -3  12   -1050    1183   1
 -11  -2  12     217     407   1
 -10  -2  12     212    1080   1
  -9  -2  12    2339     402   1
  -8  -2  12    8527     972   1
  -7  -2  12    1284     527   1
  -6  -2  12    5759    1063   1
  -5  -2  12   15495    2091   1
  -4  -2  12    1440     720   1
  -3  -2  12    -994     994   1
  -2  -2  12    9359    1577   1
  -1  -2  12    9197    2006   1
   0  -2  12    9518    1095   1
   1  -2  12     403     420   1
   2  -2  12     932     408   1
  -3 -12   2     703     358  -2
   3  -2  12     703     358   1
   4  -2  12    3206     359   1
   5  -2  12    1818     413   1
   6  -2  12   10954     705   1
   7  -2  12    1872     506   1
   8  -2  12    1922     518   1
   9  -2  12    6556     848   1
  10  -2  12    1618     717   1
  11  -2  12    1869     548   1
  12  -2  12    4744    1272   1
  13  -2  12    -513    1171   1
  14  -2  12    -599     599   1
  15  -2  12     218     443   1
 -11  -1  12     481     256   1
 -10  -1  12     583     695   1
  -9  -1  12    1430     749   1
  -8  -1  12    3850     669   1
  -7  -1  12     -65     549   1
  -6  -1  12   13952    1885   1
  -5  -1  12    1200     549   1
  -4  -1  12    4114     926   1
  -3  -1  12    3874    1131   1
  -2  -1  12    2057    1028   1
  -1  -1  12     994     891   1
   0  -1  12    4110     803   1
   1  -1  12   11785     807   1
   2  -1  12   19173    1101   1
  -3 -12   1   11007     744  -2
   3  -1  12   11007     744   1
  -4 -12   1    9104     558  -2
   4  -1  12    9104     558   1
   5  -1  12    2318     406   1
   6  -1  12   19552     940   1
   7  -1  12     936     466   1
   8  -1  12    9015     762   1
   9  -1  12   17313    1114   1
  10  -1  12    1814     680   1
  11  -1  12     496     539   1
  12  -1  12    1737     612   1
  13  -1  12    3467     663   1
  14  -1  12    3537     782   1
  15  -1  12     749     666   1
 -11   0  12    2906     907   1
 -10   0  12     606     427   1
  -9   0  12    5453    1286   1
  -8   0  12     155     437   1
  -7   0  12     343     538   1
  -6   0  12    -560     560   1
  -5   0  12   13301    1851   1
  -4   0  12    1440     549   1
  -2   0  12    -309     617   1
  -1   0  12     617     891   1
   0   0  12   11934     973   1
   1   0  12    3915     529   1
   2   0  12    4286     476   1
  -3 -12   0    7420     578  -2
   3   0  12    7420     578   1
  -4 -12   0    2622     342  -2
   4   0  12    2622     342   1
   5   0  12   14657     772   1
   6   0  12   13837     739   1
   7   0  12    5126     512   1
   8   0  12    1299     454   1
   9   0  12    1165     382   1
  10   0  12     258     529   1
  11   0  12    2750     754   1
  12   0  12    1917     648   1
  13   0  12   26278    1852   1
  14   0  12    -192     539   1
  15   0  12     166     369   1
  16   0  12    2674     789   1
 -10   1  12     494     413   1
  -9   1  12    -366     515   1
  -8   1  12     655    1183   1
  -7   1  12    1807     994   1
  -6   1  12     431     446   1
  -5   1  12    8605    1234   1
  -4   1  12    1303     720   1
  -3   1  12   12650    1783   1
  -2   1  12    3942     926   1
  -1   1  12    5142    1131   1
   0   1  12    9028    1130   1
   1   1  12    1157     580   1
   2   1  12    1087     425   1
   3   1  12    2436     408   1
  -4 -12  -1   22564    1137  -2
   4   1  12   22564    1137   1
   5   1  12   36431    1668   1
   6   1  12    1056     360   1
   7   1  12    1864     329   1
   8   1  12   14619    1354   1
   9   1  12    2532     492   1
  10   1  12   10643    1261   1
  11   1  12    6261     742   1
  12   1  12     626     736   1
  13   1  12   19550    1534   1
  14   1  12    3754     667   1
  15   1  12    3088     578   1
  16   1  12     916     431   1
 -10   2  12     578     378   1
  -9   2  12     488     515   1
  -8   2  12    1135     309   1
  -7   2  12     182     450   1
  -6   2  12    -196     617   1
  -5   2  12    2674     823   1
  -4   2  12    -137     720   1
  -3   2  12    3325     857   1
  -2   2  12   11758    1646   1
  -1   2  12    4765    1097   1
   0   2  12   22643    5176   1
   1   2  12   13497    1176   1
   2   2  12   12329     915   1
   3   2  12    4383     484   1
  -4 -12  -2   15331    1071  -2
   4   2  12   15331    1071   1
  -5 -12  -2   22302    1022  -2
   5   2  12   22302    1022   1
   6   2  12    4561     432   1
   7   2  12   23609    1104   1
   8   2  12    5777     791   1
   9   2  12    1140     521   1
  10   2  12    7542     687   1
  11   2  12     617     580   1
  12   2  12    1004     696   1
  13   2  12     987     468   1
  14   2  12     215     396   1
  15   2  12    -431     431   1
  16   2  12    2216    1097   1
  17   2  12     206     480   1
 -10   3  12     506     287   1
  -9   3  12      19     554   1
  -8   3  12    1565    1440   1
  -7   3  12    -910    1526   1
  -6   3  12     343     545   1
  -5   3  12   11669    1680   1
  -4   3  12    7161    1044   1
  -3   3  12     274     514   1
  -1   3  12    7028    1303   1
   0   3  12    4045     994   1
   1   3  12    1005     499   1
   2   3  12    6562    1017   1
   3   3  12    5148     664   1
  -4 -12  -3     379     363  -2
   4   3  12     379     363   1
  -5 -12  -3    4962     415  -2
   5   3  12    4962     415   1
   6   3  12     895     370   1
   7   3  12    4434     449   1
   8   3  12    4445     364   1
   9   3  12    7124     622   1
  10   3  12   12634    1048   1
  11   3  12   10459     710   1
  12   3  12     862     569   1
  13   3  12     399     614   1
  14   3  12    -285     510   1
  15   3  12    5511     669   1
  16   3  12    1118     417   1
  17   3  12    1680     823   1
 -10   4  12    -240     583   1
  -9   4  12     407     385   1
  -8   4  12    -402     458   1
  -7   4  12    -169     317   1
  -6   4  12     171     771   1
  -5   4  12    4266     707   1
  -4   4  12    6342    1028   1
  -3   4  12     395     696   1
  -2   4  12    2023     651   1
  -1   4  12    7439    1337   1
   0   4  12    3257     960   1
   1   4  12    -608     608   1
   2   4  12    7257     841   1
   3   4  12    1935     428   1
  -4 -12  -4    4470     506  -2
   4   4  12    4470     506   1
  -5 -12  -4    4890     584  -2
   5   4  12    4890     584   1
  -6 -12  -4    3775     321  -2
   6   4  12    3775     321   1
   7   4  12    6527     557   1
   8   4  12   11463     934   1
   9   4  12   14179     913   1
  10   4  12    4556     525   1
  11   4  12     772     465   1
  12   4  12    2221     806   1
  13   4  12    1477     513   1
  14   4  12    1562     464   1
  15   4  12    3461     735   1
  16   4  12     982     564   1
  17   4  12     837     420   1
  -9   5  12     248     499   1
  -8   5  12     552     532   1
  -7   5  12      28     322   1
  -6   5  12     462     513   1
  -5   5  12    -478     478   1
  -4   5  12    -171     720   1
  -3   5  12    9667    3462   1
  -2   5  12     635     600   1
  -1   5  12    4148     857   1
   0   5  12    -385     791   1
   1   5  12     923     727   1
   2   5  12    1000     552   1
   3   5  12   15948    1219   1
  -4 -12  -5    1087     378  -2
   4   5  12    1087     378   1
  -5 -12  -5    3321     424  -2
   5   5  12    3321     424   1
  -6 -12  -5    6363     512  -2
   6   5  12    6363     512   1
   7   5  12    8159     516   1
   8   5  12   12928     749   1
   9   5  12    -153     243   1
  10   5  12   23103    1350   1
  11   5  12    -172     434   1
  12   5  12     566     399   1
  13   5  12    1156     561   1
  14   5  12    6118     765   1
  15   5  12    1653     537   1
  16   5  12    2456     544   1
  17   5  12     300     482   1
  18   5  12    -171     480   1
  -9   6  12    1097     617   1
  -8   6  12    -263     337   1
  -7   6  12    1036     591   1
  -6   6  12    5312     602   1
  -5   6  12    1820     444   1
  -4   6  12    2104     513   1
  -3   6  12    4388     960   1
  -2   6  12    1192     883   1
  -1   6  12    8551     948   1
   0   6  12    4273    1303   1
   1   6  12    1954    2811   1
   2   6  12    1277     500   1
   3   6  12   13043    1075   1
  -4 -12  -6   13768     926  -2
   4   6  12   13768     926   1
  -5 -12  -6    5625     507  -2
   5   6  12    5625     507   1
  -6 -12  -6    5730     488  -2
   6   6  12    5730     488   1
  -7 -12  -6    1291     479  -2
   7   6  12    1291     479   1
   8   6  12    3834     477   1
   9   6  12    2232     306   1
  10   6  12    3462     505   1
  11   6  12    2064     460   1
  12   6  12    8351     769   1
  13   6  12    5407     837   1
  14   6  12    7819     930   1
  15   6  12    3725     698   1
  16   6  12    3410     585   1
  17   6  12    1024     472   1
  18   6  12     771     388   1
  -8   7  12    -352     352   1
  -7   7  12     211     994   1
  -6   7  12    2115     354   1
  -5   7  12     902     442   1
  -4   7  12     382     775   1
  -3   7  12    9770    1508   1
  -2   7  12    2057     823   1
  -1   7  12     707     542   1
   0   7  12     -66     630   1
   1   7  12     963     581   1
   2   7  12    1153     756   1
   3   7  12   32417    2093   1
  -4 -12  -7    1547     572  -2
   4   7  12    1547     572   1
  -5 -12  -7    3841     528  -2
   5   7  12    3841     528   1
  -6 -12  -7    4828     809  -2
   6   7  12    4828     809   1
  -7 -12  -7    7219     504  -2
   7   7  12    7219     504   1
  -8 -12  -7    2049     424  -2
   8   7  12    2049     424   1
   9   7  12    1671     359   1
  10   7  12     370     300   1
  11   7  12   29082    1809   1
  12   7  12     115     400   1
  13   7  12   19185    1363   1
  14   7  12    -164     858   1
  15   7  12    4342     735   1
  16   7  12     -51     771   1
  17   7  12    -368     424   1
  18   7  12     446     364   1
  -7   8  12    1267     428   1
  -6   8  12    -256     651   1
  -5   8  12    6966     790   1
  -4   8  12    -391     442   1
  -3   8  12    2119     685   1
  -2   8  12    6890    1234   1
  -1   8  12    -137     583   1
   0   8  12    3037     926   1
   1   8  12    6551    5451   1
   2   8  12    2390     815   1
   3   8  12   10723    1351   1
  -4 -12  -8    3199     514  -2
   4   8  12    3199     514   1
  -5 -12  -8    8893     673  -2
   5   8  12    8893     673   1
  -6 -12  -8    3722     473  -2
   6   8  12    3722     473   1
  -7 -12  -8    5183     517  -2
   7   8  12    5183     517   1
  -8 -12  -8    1616     415  -2
   8   8  12    1616     415   1
  -9 -12  -8    8948     802  -2
   9   8  12    8948     802   1
  10   8  12    8679     636   1
  11   8  12   26243    2517   1
  12   8  12    1084     501   1
  13   8  12    2494     405   1
  14   8  12    1005     528   1
  15   8  12    -143     542   1
  16   8  12     863     874   1
  17   8  12     360     461   1
  18   8  12    -171     480   1
  -7   9  12    -265     327   1
  -6   9  12      86     463   1
  -5   9  12     312     239   1
  -4   9  12    1770     410   1
  -3   9  12    3581     541   1
  -2   9  12     901     651   1
  -1   9  12    1508     617   1
   0   9  12    6715     860   1
   1   9  12    1234     857   1
   2   9  12    5314    2914   1
   3   9  12    7543     935   1
  -4 -12  -9     875     479  -2
   4   9  12     875     479   1
  -5 -12  -9   21884    1225  -2
   5   9  12   21884    1225   1
  -6 -12  -9    5101     583  -2
   6   9  12    5101     583   1
  -7 -12  -9   13741     905  -2
   7   9  12   13741     905   1
  -8 -12  -9     488     880  -2
   8   9  12     488     880   1
  -9 -12  -9    9607     828  -2
   9   9  12    9607     828   1
  10   9  12    8653     660   1
  11   9  12    2892     522   1
  12   9  12    8237     836   1
  13   9  12    1313     410   1
  14   9  12     395     628   1
  15   9  12     654     580   1
  16   9  12     796     532   1
  17   9  12    1780     823   1
  -6  10  12     -34     411   1
  -5  10  12    1087     908   1
  -4  10  12    1364     365   1
  -3  10  12     988     634   1
  -2  10  12    -274     480   1
  -1  10  12     651     583   1
   0  10  12   26847    5159   1
   1  10  12    4045    1028   1
   2  10  12    1680     857   1
   3  10  12    9941    1508   1
  -4 -12 -10    6499    2072  -2
   4  10  12    6499    2072   1
  -5 -12 -10     731     480  -2
   5  10  12     731     480   1
  -6 -12 -10    2800     400  -2
   6  10  12    2800     400   1
  -7 -12 -10   23099    1524  -2
   7  10  12   23099    1524   1
  -8 -12 -10    2041     488  -2
   8  10  12    2041     488   1
  -9 -12 -10    1003     474  -2
   9  10  12    1003     474   1
  10  10  12      78     455   1
  11  10  12     793     463   1
  12  10  12    2661     500   1
  13  10  12    3141     536   1
  14  10  12    1589     490   1
  15  10  12      73     543   1
  16  10  12    2765    1063   1
  17  10  12    1133     453   1
  -5  11  12     514     514   1
  -4  11  12    -167     683   1
  -3  11  12      87     435   1
  -2  11  12    1913     551   1
  -1  11  12    6856    1200   1
   0  11  12    4893     960   1
   1  11  12     -38    1286   1
   2  11  12    5931     994   1
   3  11  12    -720     720   1
   4  11  12   24920    2227   1
  -5 -12 -11    -493     493  -2
   5  11  12    -493     493   1
  -6 -12 -11    1143     485  -2
   6  11  12    1143     485   1
  -7 -12 -11    1741     433  -2
   7  11  12    1741     433   1
  -8 -12 -11     103     264  -2
   8  11  12     103     264   1
  -9 -12 -11    1800     550  -2
   9  11  12    1800     550   1
  10  11  12   10205     888   1
  11  11  12     893     369   1
  12  11  12   14424    1546   1
  13  11  12    4142     552   1
  14  11  12   11806    1227   1
  15  11  12      25     494   1
  16  11  12    1044     486   1
  17  11  12     219     446   1
  -4  12  12     254     410   1
  -3  12  12     349     279   1
  -2  12  12     -10     425   1
  -1  12  12    1577     720   1
   0  12  12     294     686   1
   1  12  12    3688     806   1
   2  12  12     758     488   1
   3  12  12    -720     720   1
   4  12  12   13989    1372   1
  -5 -12 -12    -309     686  -2
   5  12  12    -309     686   1
  -6 -12 -12    5379     789  -2
   6  12  12    5379     789   1
  -7 -12 -12     436     381  -2
   7  12  12     436     381   1
  -8 -12 -12    1687     537  -2
   8  12  12    1687     537   1
  -9 -12 -12    4426     604  -2
   9  12  12    4426     604   1
 -10 -12 -12    2181     524  -2
  10  12  12    2181     524   1
  11  12  12     459     348   1
  12  12  12    4452     664   1
  13  12  12    -523     523   1
  14  12  12     914     402   1
  15  12  12    -343     840   1
  16  12  12    -277     374   1
  17  12  12     446     617   1
  -3  13  12      86     503   1
  -2  13  12     149     307   1
  -1  13  12    1827     402   1
   0  13  12    1218     446   1
   1  13  12     146     497   1
   2  13  12     826     566   1
   3  13  12    5142    1028   1
   4  13  12    3805     891   1
  -5 -12 -13    -433     576  -2
   5  13  12    -433     576   1
  -6 -12 -13    6231     799  -2
   6  13  12    6231     799   1
  -7 -12 -13     560     460  -2
   7  13  12     560     460   1
  -8 -12 -13    7703     632  -2
   8  13  12    7703     632   1
  -9 -12 -13     704     562  -2
   9  13  12     704     562   1
 -10 -12 -13    1654     545  -2
  10  13  12    1654     545   1
  11  13  12     846     449   1
  12  13  12    4448    2245   1
  13  13  12    8526    1903   1
  14  13  12    3427    1714   1
  15  13  12     137     686   1
  16  13  12     549     651   1
  -2  14  12     197     511   1
  -1  14  12    9943    1988   1
   0  14  12       7     348   1
   1  14  12    1544     531   1
   2  14  12     920     617   1
   3  14  12    2192     806   1
   4  14  12    5314     994   1
   5  14  12    -669     669   1
  -6 -12 -14    1287     415  -2
   6  14  12    1287     415   1
  -7 -12 -14    5518     649  -2
   7  14  12    5518     649   1
  -8 -12 -14     997     346  -2
   8  14  12     997     346   1
  -9 -12 -14    1948     519  -2
   9  14  12    1948     519   1
 -10 -12 -14   12467    1298  -2
  10  14  12   12467    1298   1
  11  14  12      71     444   1
  12  14  12    1340     891   1
  13  14  12    5774     891   1
  14  14  12     375     461   1
  15  14  12     857     686   1
  16  14  12     103     549   1
  -1  15  12    1737     583   1
   0  15  12    1515     328   1
   1  15  12     698     448   1
   2  15  12     634     339   1
   3  15  12     410     420   1
   4  15  12     502     410   1
   5  15  12     932     478   1
  -6 -12 -15    5083     667  -2
   6  15  12    5083     667   1
  -7 -12 -15     997     485  -2
   7  15  12     997     485   1
  -8 -12 -15    -149     750  -2
   8  15  12    -149     750   1
  -9 -12 -15    1347     652  -2
   9  15  12    1347     652   1
 -10 -12 -15    5467     608  -2
  10  15  12    5467     608   1
 -11 -12 -15     134     377  -2
  11  15  12     134     377   1
  12  15  12    1009     566   1
  13  15  12     360     436   1
  14  15  12    1943     446   1
  15  15  12    1371     583   1
   1  16  12     246     238   1
   2  16  12     155     377   1
   3  16  12    2920     480   1
   4  16  12     236     453   1
   5  16  12    6513    1303   1
  -6 -12 -16     731     338  -2
   6  16  12     731     338   1
  -7 -12 -16    3627     413  -2
   7  16  12    3627     413   1
  -8 -12 -16    1200     722  -2
   8  16  12    1200     722   1
  -9 -12 -16    2340     980  -2
   9  16  12    2340     980   1
 -10 -12 -16    -140     350  -2
  10  16  12    -140     350   1
 -11 -12 -16    1326     368  -2
  11  16  12    1326     368   1
  12  16  12     226     418   1
  13  16  12   12101    1611   1
  14  16  12    2120     926   1
   2  17  12     -52     343   1
   3  17  12   15495    1885   1
   4  17  12      44     240   1
   5  17  12    1373     386   1
   6  17  12    3876     432   1
  -7 -12 -17     617     513  -2
   7  17  12     617     513   1
  -8 -12 -17     548     444  -2
   8  17  12     548     444   1
  -9 -12 -17     598     428  -2
   9  17  12     598     428   1
 -10 -12 -17     207     517  -2
  10  17  12     207     517   1
  11  17  12     963     710   1
  12  17  12    6211    3222   1
   6  18  12    -206     514   1
   7  18  12    1920     617   1
  -8 -12 -18       0     411  -2
   8  18  12       0     411   1
  -9 -12 -18    1283     371  -2
   9  18  12    1283     371   1
 -10 -12 -18    1131     309  -2
  10  18  12    1131     309   1
  -3 -15  13     343     446   1
  -2 -15  13    2591     514   1
  -1 -15  13     274     309   1
   0 -15  13    3634     789   1
   1 -15  13     583     514   1
   2 -15  13     583     446   1
  -6 -14  13     994     651   1
  -5 -14  13     682    1011   1
  -4 -14  13     -72    1028   1
  -3 -14  13    1314     651   1
  -2 -14  13     177     461   1
  -1 -14  13     688     366   1
   0 -13  14    9416     842  -2
   0 -14  13    9416     842   1
   1 -14  13     698    1148   1
   2 -14  13     132     771   1
   3 -14  13     748     395   1
   4 -14  13    -248     248   1
  -7 -13  13     353     313   1
  -6 -13  13     449     260   1
  -5 -13  13     977     431   1
  -4 -13  13     381     403   1
  -3 -13  13    -159     527   1
  -2 -13  13     823     560   1
  -1 -13  13    2032     499   1
   0 -13  13     919     519  -2
   0 -13  13     919     519   1
   1 -13  13     426     564   1
   2 -13  13    1281     577   1
   3 -13  13    3388     505   1
   4 -13  13    1076     441   1
   5 -13  13     243     429   1
   6 -13  13    1303     754   1
  -8 -12  13     401     197   1
  -7 -12  13      85     254   1
  -6 -12  13    -103     291   1
  -5 -12  13      63     516   1
  -4 -12  13     375     651   1
  -3 -12  13     733    1268   1
  -2 -12  13    1635     781   1
  -1 -12  13    1817     751   1
   0 -13  12    2669     735  -2
   0 -12  13    2669     735   1
   1 -12  13    -425     425   1
   2 -12  13    1727     427   1
   3 -12  13      58     535   1
   4 -12  13    -495     495   1
   5 -12  13    2043    1423   1
   6 -12  13    5129    1097   1
   7 -12  13    2057     857   1
   8 -12  13     686     686   1
  -9 -11  13     450     288   1
  -8 -11  13       4     395   1
  -7 -11  13    5824    1028   1
  -6 -11  13     593     337   1
  -5 -11  13    -309     353   1
  -4 -11  13    -132     519   1
  -3 -11  13    5031     720   1
  -2 -11  13     329     475   1
  -1 -11  13    2338     477   1
   0 -11  13      20     577   1
  -1 -13  11     632     436  -2
   1 -11  13     632     436   1
   2 -11  13    1002     500   1
   3 -11  13     -82     381   1
   4 -11  13     -84     668   1
   5 -11  13     260     491   1
   6 -11  13    1014     503   1
   7 -11  13     447     651   1
   8 -11  13      46     552   1
   9 -11  13   13335    1920   1
  -9 -10  13     -33     207   1
  -8 -10  13     146     239   1
  -7 -10  13     709     450   1
  -6 -10  13     679     789   1
  -5 -10  13     906     371   1
  -4 -10  13     183     467   1
  -3 -10  13    5389     790   1
  -2 -10  13     894     586   1
  -1 -10  13     632     686   1
   0 -10  13     306     659   1
  -1 -13  10    -639     639  -2
   1 -10  13    -639     639   1
   2 -10  13     510     718   1
   3 -10  13    1471     503   1
   4 -10  13    -645     676   1
   5 -10  13    1153     647   1
   6 -10  13    2074     550   1
   7 -10  13    -118     316   1
   8 -10  13    -633     864   1
   9 -10  13     764     591   1
  10 -10  13    -457     651   1
  -9  -9  13    1474     317   1
  -8  -9  13    -313     313   1
  -7  -9  13     583     368   1
  -6  -9  13    2199     493   1
  -5  -9  13     121     686   1
  -4  -9  13    1200     857   1
  -3  -9  13    4725     875   1
  -2  -9  13     726    1148   1
  -1  -9  13    4773     794   1
   0  -9  13     397     384   1
  -1 -13   9     -27     659  -2
   1  -9  13     -27     659   1
   2  -9  13    4018     670   1
   3  -9  13    4085     636   1
   4  -9  13     364     491   1
   5  -9  13    1122     660   1
   6  -9  13     724     437   1
   7  -9  13     -30     405   1
   8  -9  13    6287    1716   1
   9  -9  13      90     677   1
  10  -9  13    -417     926   1
  11  -9  13     189     600   1
 -10  -8  13    2468     617   1
  -9  -8  13    -327     327   1
  -8  -8  13    -156     340   1
  -7  -8  13     463     436   1
  -6  -8  13    1313     411   1
  -5  -8  13    -583     634   1
  -4  -8  13   11930    1817   1
  -3  -8  13    4086    1046   1
  -2  -8  13    1249     642   1
  -1  -8  13    2258     658   1
   0  -8  13    -465     465   1
  -1 -13   8     190     692  -2
   1  -8  13     190     692   1
  -2 -13   8     486     703  -2
   2  -8  13     486     703   1
   3  -8  13   10263    1147   1
   4  -8  13    1956     568   1
   5  -8  13    -475     569   1
   6  -8  13    3872     708   1
   7  -8  13     211     487   1
   8  -8  13     486     599   1
   9  -8  13     505     681   1
  10  -8  13    -361    1474   1
  11  -8  13     891     655   1
  12  -8  13    1467     556   1
 -10  -7  13    -337     337   1
  -9  -7  13     341     295   1
  -8  -7  13     307     348   1
  -7  -7  13     926     426   1
  -6  -7  13     151     583   1
  -5  -7  13    3280     675   1
  -4  -7  13    3977     926   1
  -3  -7  13     103     651   1
  -2  -7  13    8727    1084   1
  -1  -7  13    1826     714   1
   0  -7  13    2106     581   1
   1  -7  13    -444     444   1
  -2 -13   7    1948     666  -2
   2  -7  13    1948     666   1
   3  -7  13    4781     725   1
   4  -7  13    2823     649   1
   5  -7  13    4308     546   1
   6  -7  13    6260     823   1
   7  -7  13     617     582   1
   8  -7  13    1469     407   1
   9  -7  13     237     993   1
  10  -7  13    -226     586   1
  11  -7  13    -652    1006   1
  12  -7  13    -514     630   1
  13  -7  13     456     977   1
 -10  -6  13     -34     329   1
  -9  -6  13     -82     254   1
  -8  -6  13     -74     502   1
  -7  -6  13    -307     349   1
  -6  -6  13    6950     796   1
  -5  -6  13    1623     545   1
  -4  -6  13    1474     994   1
  -3  -6  13     411     994   1
  -2  -6  13    2123     747   1
  -1  -6  13   14103    1522   1
   0  -6  13    3118     802   1
   1  -6  13    4605     612   1
  -2 -13   6    1964     450  -2
   2  -6  13    1964     450   1
   3  -6  13    4054     789   1
   4  -6  13    4347     632   1
   5  -6  13    3094     521   1
   6  -6  13    1367     807   1
   7  -6  13     569     566   1
   8  -6  13     885     455   1
   9  -6  13     197     753   1
  10  -6  13    -742     766   1
  11  -6  13    -579     579   1
  12  -6  13    3376     926   1
  13  -6  13    1282     639   1
 -10  -5  13    1303     789   1
  -9  -5  13     222     465   1
  -8  -5  13    1861     419   1
  -7  -5  13    6922    2623   1
  -6  -5  13    2233     556   1
  -5  -5  13    -464     480   1
  -4  -5  13    9907    1680   1
  -3  -5  13    5108    1234   1
  -2  -5  13    7746    1131   1
  -1  -5  13     449     758   1
   0  -5  13    2127     732   1
   1  -5  13    8598    1000   1
  -2 -13   5    3341     539  -2
   2  -5  13    3341     539   1
  -3 -13   5    6816     680  -2
   3  -5  13    6816     680   1
   4  -5  13    3788     825   1
   5  -5  13    5519     626   1
   6  -5  13    6960     850   1
   7  -5  13      63     802   1
   8  -5  13    7565    1341   1
   9  -5  13     109     716   1
  10  -5  13    1830     993   1
  11  -5  13     644     726   1
  12  -5  13    3834    1116   1
  13  -5  13     707    1015   1
  14  -5  13     446     789   1
 -10  -4  13    -514     514   1
  -9  -4  13    2682     519   1
  -8  -4  13    2099     742   1
  -7  -4  13     648    1200   1
  -6  -4  13    4414     977   1
  -5  -4  13    4740     702   1
  -4  -4  13    4457    1234   1
  -3  -4  13    2708    1097   1
  -2  -4  13    -240     960   1
  -1  -4  13    4036     767   1
   0  -4  13    4955    1301   1
   1  -4  13    9592     736   1
   2  -4  13    7091     632   1
  -3 -13   4    1816     392  -2
   3  -4  13    1816     392   1
   4  -4  13    6008     599   1
   5  -4  13   20633    1242   1
   6  -4  13   11446     768   1
   7  -4  13   15079    1196   1
   8  -4  13      37     529   1
   9  -4  13   16493    1745   1
  10  -4  13     634     881   1
  11  -4  13     792     686   1
  12  -4  13    1167     760   1
  13  -4  13    2349     767   1
  14  -4  13     324     664   1
 -10  -3  13     -32     386   1
  -9  -3  13     429     247   1
  -8  -3  13   11640    1209   1
  -7  -3  13    7966     964   1
  -6  -3  13    1097     720   1
  -5  -3  13    7120    1131   1
  -4  -3  13   16460    1611   1
  -3  -3  13    1817    1063   1
  -2  -3  13    2845    1063   1
  -1  -3  13    2277     857   1
   0  -3  13    1481     562   1
   1  -3  13    2266     552   1
   2  -3  13   14214     895   1
  -3 -13   3    2877     447  -2
   3  -3  13    2877     447   1
   4  -3  13    1051     432   1
   5  -3  13    6299     511   1
   6  -3  13    1495     510   1
   7  -3  13    1781     537   1
   8  -3  13     349     491   1
   9  -3  13     385     440   1
  10  -3  13      15    1034   1
  11  -3  13    3442     980   1
  12  -3  13    3411    1151   1
  13  -3  13    2765     710   1
  14  -3  13     116     494   1
  15  -3  13    1508     789   1
 -10  -2  13     -41     404   1
  -9  -2  13     639     615   1
  -8  -2  13    4166    1543   1
  -7  -2  13     595     600   1
  -6  -2  13     891     720   1
  -5  -2  13    1337     754   1
  -4  -2  13    4053     908   1
  -3  -2  13    9599    1508   1
  -2  -2  13    2914     823   1
  -1  -2  13    7427     886   1
   0  -2  13   16948    1282   1
   1  -2  13   14946     954   1
   2  -2  13    8164     685   1
  -3 -13   2    7305     590  -2
   3  -2  13    7305     590   1
  -4 -13   2   18949    1035  -2
   4  -2  13   18949    1035   1
   5  -2  13    9869     642   1
   6  -2  13   11797     833   1
   7  -2  13    -498     498   1
   8  -2  13   34574    1971   1
   9  -2  13   13889     986   1
  10  -2  13    6270     797   1
  11  -2  13    2910     871   1
  12  -2  13    9697    1712   1
  13  -2  13     307     703   1
  14  -2  13     685     596   1
  15  -2  13    -633     633   1
 -10  -1  13     840     485   1
  -9  -1  13    4252     763   1
  -8  -1  13    3302     542   1
  -7  -1  13    2401     497   1
  -6  -1  13    -137     686   1
  -5  -1  13    1611     754   1
  -4  -1  13     804     686   1
  -3  -1  13     343     994   1
  -2  -1  13     823     994   1
  -1  -1  13    3325     823   1
   0  -1  13    1536     557   1
   1  -1  13     847     624   1
   2  -1  13    7257     644   1
  -3 -13   1   14935     891  -2
   3  -1  13   14935     891   1
  -4 -13   1    2782     496  -2
   4  -1  13    2782     496   1
   5  -1  13    1904     417   1
   6  -1  13    1996     373   1
   7  -1  13     892     530   1
   8  -1  13   32150    1841   1
   9  -1  13   20538    1292   1
  10  -1  13    1774     703   1
  11  -1  13     494     592   1
  12  -1  13   15375    1197   1
  13  -1  13    1127     432   1
  14  -1  13    1705     709   1
  15  -1  13    1059     593   1
 -10   0  13     883     475   1
  -9   0  13    -494     494   1
  -8   0  13     809     354   1
  -7   0  13     860     583   1
  -6   0  13     377     415   1
  -5   0  13    3222     686   1
  -4   0  13    3942     926   1
  -3   0  13    3325     891   1
  -2   0  13    7953    1303   1
  -1   0  13    2640     994   1
   0   0  13    -535     620   1
   1   0  13    1895     717   1
   2   0  13   15561    1046   1
   3   0  13   20012    1150   1
  -4 -13   0    2164     351  -2
   4   0  13    2164     351   1
   5   0  13     993     395   1
   6   0  13   18728     965   1
   7   0  13     318     276   1
   8   0  13   37976    2070   1
   9   0  13    6510     628   1
  10   0  13    -448     641   1
  11   0  13    3856     726   1
  12   0  13   12362    1291   1
  13   0  13     738     535   1
  14   0  13    3010     615   1
  15   0  13    -170     485   1
  16   0  13     171     583   1
 -10   1  13     399     279   1
  -9   1  13     207     703   1
  -8   1  13     113     240   1
  -7   1  13    -460     460   1
  -6   1  13    1644     551   1
  -5   1  13    -171     720   1
  -4   1  13    4182     789   1
  -3   1  13    3573     771   1
  -2   1  13    -411     617   1
  -1   1  13    5828    1200   1
   0   1  13     595     686   1
   1   1  13     691     587   1
   2   1  13   28562    1501   1
   3   1  13    3206     433   1
  -4 -13  -1    3149     424  -2
   4   1  13    3149     424   1
  -5 -13  -1   21151    1085  -2
   5   1  13   21151    1085   1
   6   1  13      65     372   1
   7   1  13    1715     354   1
   8   1  13     732     663   1
   9   1  13   14565     974   1
  10   1  13     583     384   1
  11   1  13    -708     708   1
  12   1  13    1604     591   1
  13   1  13    6677     873   1
  14   1  13     340     510   1
  15   1  13    7572    1043   1
  16   1  13    -261     353   1
  -9   2  13     824     484   1
  -8   2  13    -361     618   1
  -7   2  13    -753     806   1
  -6   2  13    3903     690   1
  -5   2  13     103     480   1
  -4   2  13    3017     857   1
  -3   2  13    9701    1508   1
  -2   2  13    2331     754   1
  -1   2  13   15529    2057   1
   0   2  13    6685    1131   1
   1   2  13     146     489   1
   2   2  13    2132     479   1
   3   2  13   21298    1255   1
  -4 -13  -2    1555     411  -2
   4   2  13    1555     411   1
  -5 -13  -2   14488     745  -2
   5   2  13   14488     745   1
   6   2  13   16999     913   1
   7   2  13    1274     402   1
   8   2  13    5345     680   1
   9   2  13    2678     665   1
  10   2  13    1241     580   1
  11   2  13    -840     840   1
  12   2  13   10482    1194   1
  13   2  13    3574     728   1
  14   2  13     597     671   1
  15   2  13    3466     809   1
  16   2  13     300     425   1
  -9   3  13     656     378   1
  -8   3  13     399     511   1
  -7   3  13    1244     352   1
  -6   3  13     560     634   1
  -5   3  13    2947     617   1
  -4   3  13     309     720   1
  -3   3  13     343     514   1
  -2   3  13    1268     686   1
  -1   3  13     309     617   1
   0   3  13    1474     891   1
   1   3  13   14403    1121   1
   2   3  13    -203     529   1
   3   3  13    1572     451   1
  -4 -13  -3    3888     495  -2
   4   3  13    3888     495   1
  -5 -13  -3    5278     474  -2
   5   3  13    5278     474   1
  -6 -13  -3     397     408  -2
   6   3  13     397     408   1
   7   3  13    2809     400   1
   8   3  13    1350     477   1
   9   3  13     972     516   1
  10   3  13    4536     614   1
  11   3  13    -333     423   1
  12   3  13     425     483   1
  13   3  13    1142     546   1
  14   3  13     251     503   1
  15   3  13     465     560   1
  16   3  13    1523     551   1
  17   3  13     171     549   1
  -9   4  13     163     322   1
  -8   4  13     530     926   1
  -7   4  13     200     223   1
  -6   4  13    1467     634   1
  -5   4  13    3949     722   1
  -4   4  13    1817     583   1
  -3   4  13     823     549   1
  -2   4  13     278     404   1
  -1   4  13      34     617   1
   0   4  13    3292    2108   1
   1   4  13    4608     790   1
   2   4  13   16161    1224   1
   3   4  13   10097     816   1
  -4 -13  -4     468     395  -2
   4   4  13     468     395   1
  -5 -13  -4    2792     406  -2
   5   4  13    2792     406   1
  -6 -13  -4   25751    1324  -2
   6   4  13   25751    1324   1
   7   4  13    1166     372   1
   8   4  13    8491     976   1
   9   4  13    8093     999   1
  10   4  13    7885     698   1
  11   4  13   12008     813   1
  12   4  13    7023    1013   1
  13   4  13     814    1012   1
  14   4  13    1543     526   1
  15   4  13     719     427   1
  16   4  13    1681     679   1
  17   4  13     926     617   1
  -8   5  13     411     472   1
  -7   5  13    1412     732   1
  -6   5  13     -27     339   1
  -5   5  13     263     497   1
  -4   5  13     857     549   1
  -3   5  13     206     789   1
  -2   5  13    -311     634   1
  -1   5  13    -672    2862   1
   0   5  13     996    2811   1
   1   5  13   22614    2424   1
   2   5  13    1093     521   1
   3   5  13    3561     570   1
   4   5  13    4901     680   1
  -5 -13  -5     705     457  -2
   5   5  13     705     457   1
  -6 -13  -5    3381     350  -2
   6   5  13    3381     350   1
   7   5  13    2025     376   1
   8   5  13   14248     767   1
   9   5  13     301     353   1
  10   5  13    1920     508   1
  11   5  13     234     486   1
  12   5  13    -245     288   1
  13   5  13    3962    1257   1
  14   5  13     508     505   1
  15   5  13     727     439   1
  16   5  13     428     513   1
  17   5  13    -377     377   1
  -8   6  13     -41     354   1
  -7   6  13    -156     527   1
  -6   6  13    1986     444   1
  -5   6  13    -403     403   1
  -4   6  13    9052     980   1
  -3   6  13    6925    1200   1
  -2   6  13     651     789   1
  -1   6  13    3190     574   1
   0   6  13      68     752   1
   1   6  13   18616    2113   1
   2   6  13    -393     852   1
   3   6  13   13115    1093   1
   4   6  13   28062    1544   1
  -5 -13  -6    5570     749  -2
   5   6  13    5570     749   1
  -6 -13  -6   14528    1044  -2
   6   6  13   14528    1044   1
  -7 -13  -6    2466     414  -2
   7   6  13    2466     414   1
   8   6  13    3671     413   1
   9   6  13     753     347   1
  10   6  13     563     482   1
  11   6  13    1930     460   1
  12   6  13   13689    1020   1
  13   6  13     545     571   1
  14   6  13    1427     514   1
  15   6  13    1003     474   1
  16   6  13     -32     702   1
  17   6  13     343     651   1
  -7   7  13     803     411   1
  -6   7  13    6616    1303   1
  -5   7  13    1090     960   1
  -4   7  13    2046     498   1
  -3   7  13    5348    1028   1
  -2   7  13    5793    1131   1
  -1   7  13     602     482   1
   0   7  13    3952    1598   1
   1   7  13     588     651   1
   2   7  13    2783     855   1
   3   7  13    5605     663   1
   4   7  13   27593    2155   1
  -5 -13  -7    5014     552  -2
   5   7  13    5014     552   1
  -6 -13  -7    6738     587  -2
   6   7  13    6738     587   1
  -7 -13  -7    6879     598  -2
   7   7  13    6879     598   1
  -8 -13  -7    3469     474  -2
   8   7  13    3469     474   1
   9   7  13    9155     716   1
  10   7  13    1192     512   1
  11   7  13    7668     756   1
  12   7  13    3691     585   1
  13   7  13     558     591   1
  14   7  13    9696    1008   1
  15   7  13    -265     505   1
  16   7  13     261     507   1
  17   7  13    -113     594   1
  -7   8  13     103     446   1
  -6   8  13    1533     448   1
  -5   8  13     149     240   1
  -4   8  13     633     445   1
  -3   8  13    1611     617   1
  -2   8  13    -720     720   1
  -1   8  13    1480     527   1
   0   8  13     908     606   1
   1   8  13    2365     686   1
   2   8  13    1840     821   1
   3   8  13    3668     589   1
   4   8  13   16120    1196   1
  -5 -13  -8   58142    3088  -2
   5   8  13   58142    3088   1
  -6 -13  -8    7128     610  -2
   6   8  13    7128     610   1
  -7 -13  -8   10150     645  -2
   7   8  13   10150     645   1
  -8 -13  -8     243     443  -2
   8   8  13     243     443   1
   9   8  13    5357     541   1
  10   8  13   10309     774   1
  11   8  13    9382     864   1
  12   8  13    5603     638   1
  13   8  13    1684     391   1
  14   8  13     479     554   1
  15   8  13     781     516   1
  16   8  13    1063     533   1
  17   8  13    1538    1800   1
  -6   9  13    -142     754   1
  -5   9  13     731    1011   1
  -4   9  13      91     258   1
  -3   9  13       9     556   1
  -2   9  13    -191     568   1
  -1   9  13    -229     545   1
   0   9  13     411     558   1
   1   9  13    8022    1337   1
   2   9  13    7193    1594   1
   3   9  13   11351     988   1
  -4 -13  -9    2606     525  -2
   4   9  13    2606     525   1
  -5 -13  -9    1334     733  -2
   5   9  13    1334     733   1
  -6 -13  -9    4272     481  -2
   6   9  13    4272     481   1
  -7 -13  -9   21588    1656  -2
   7   9  13   21588    1656   1
  -8 -13  -9    1643     532  -2
   8   9  13    1643     532   1
  -9 -13  -9   17890    1300  -2
   9   9  13   17890    1300   1
  10   9  13     388     354   1
  11   9  13     -83     489   1
  12   9  13     426     802   1
  13   9  13    5972     724   1
  14   9  13    -525     525   1
  15   9  13    2146     685   1
  16   9  13     495     583   1
  17   9  13     870     434   1
  -5  10  13    -480     480   1
  -4  10  13     646     255   1
  -3  10  13    3025     494   1
  -2  10  13     411     686   1
  -1  10  13    1158     651   1
   0  10  13     651     412   1
   1  10  13    1575     519   1
   2  10  13    1954     823   1
   3  10  13    5064     840   1
   4  10  13    1274     551   1
  -5 -13 -10    8285     793  -2
   5  10  13    8285     793   1
  -6 -13 -10    1126     408  -2
   6  10  13    1126     408   1
  -7 -13 -10    6728     574  -2
   7  10  13    6728     574   1
  -8 -13 -10    -171     383  -2
   8  10  13    -171     383   1
  -9 -13 -10     820     474  -2
   9  10  13     820     474   1
  10  10  13    3970     541   1
  11  10  13      85     516   1
  12  10  13    1939     556   1
  13  10  13    -108     428   1
  14  10  13    4601     564   1
  15  10  13    -741     741   1
  16  10  13     993     943   1
  17  10  13     484     617   1
  -4  11  13    -103     789   1
  -3  11  13     935     703   1
  -2  11  13     586     461   1
  -1  11  13     143     405   1
   0  11  13     271     497   1
   1  11  13    1489     448   1
   2  11  13    1851     823   1
   3  11  13    2571     651   1
   4  11  13    3365     639   1
  -5 -13 -11    7716     930  -2
   5  11  13    7716     930   1
  -6 -13 -11     564     420  -2
   6  11  13     564     420   1
  -7 -13 -11    1114     386  -2
   7  11  13    1114     386   1
  -8 -13 -11    6440     641  -2
   8  11  13    6440     641   1
  -9 -13 -11    1183     485  -2
   9  11  13    1183     485   1
 -10 -13 -11    1087     461  -2
  10  11  13    1087     461   1
  11  11  13    4183     549   1
  12  11  13    1352     557   1
  13  11  13    -466     466   1
  14  11  13    3908     477   1
  15  11  13     506     583   1
  16  11  13     391     651   1
  17  11  13     411     583   1
  -3  12  13     403     424   1
  -2  12  13    -328     328   1
  -1  12  13     729     686   1
   0  12  13    2827     511   1
   1  12  13     298     583   1
   2  12  13    1312     420   1
   3  12  13    5005     857   1
   4  12  13    2320     653   1
  -5 -13 -12     -59     669  -2
   5  12  13     -59     669   1
  -6 -13 -12    8831     952  -2
   6  12  13    8831     952   1
  -7 -13 -12     660     330  -2
   7  12  13     660     330   1
  -8 -13 -12    4698     623  -2
   8  12  13    4698     623   1
  -9 -13 -12    2390     577  -2
   9  12  13    2390     577   1
 -10 -13 -12     706     456  -2
  10  12  13     706     456   1
  11  12  13     908     377   1
  12  12  13    8430    1284   1
  13  12  13    2646     485   1
  14  12  13     838     365   1
  15  12  13     221     521   1
  16  12  13    -206     651   1
  -2  13  13     439     348   1
  -1  13  13    1061     322   1
   0  13  13     553     374   1
   1  13  13     778     823   1
   2  13  13     969     453   1
   3  13  13    -651     651   1
   4  13  13    5409     742   1
   5  13  13     227     840   1
  -6 -13 -13     877     425  -2
   6  13  13     877     425   1
  -7 -13 -13      85     489  -2
   7  13  13      85     489   1
  -8 -13 -13    1231     658  -2
   8  13  13    1231     658   1
  -9 -13 -13    2783     568  -2
   9  13  13    2783     568   1
 -10 -13 -13    4065     585  -2
  10  13  13    4065     585   1
  11  13  13     987     385   1
  12  13  13   13810    2794   1
  13  13  13    -519     519   1
  14  13  13     929     600   1
  15  13  13     171     686   1
  16  13  13     103     617   1
  -1  14  13    2522     480   1
   0  14  13    4525     686   1
   1  14  13     633     686   1
   2  14  13    1818    1028   1
   3  14  13     350     361   1
   4  14  13    1708     857   1
   5  14  13    6212     761   1
  -6 -13 -14    6313    1868  -2
   6  14  13    6313    1868   1
  -7 -13 -14    1124     355  -2
   7  14  13    1124     355   1
  -8 -13 -14     395     554  -2
   8  14  13     395     554   1
  -9 -13 -14    1217     512  -2
   9  14  13    1217     512   1
 -10 -13 -14    1675     435  -2
  10  14  13    1675     435   1
 -11 -13 -14    -170     322  -2
  11  14  13    -170     322   1
  12  14  13    5616     824   1
  13  14  13    1087     576   1
  14  14  13     537     384   1
  15  14  13     137     617   1
   0  15  13    3098     960   1
   1  15  13     299     297   1
   2  15  13    2125    1423   1
   3  15  13    5693    1474   1
   4  15  13     -64     343   1
   5  15  13    3392    1114   1
  -6 -13 -15     921     360  -2
   6  15  13     921     360   1
  -7 -13 -15    2101     385  -2
   7  15  13    2101     385   1
  -8 -13 -15    1590     639  -2
   8  15  13    1590     639   1
  -9 -13 -15    1279     498  -2
   9  15  13    1279     498   1
 -10 -13 -15     626     436  -2
  10  15  13     626     436   1
 -11 -13 -15    1758     332  -2
  11  15  13    1758     332   1
  12  15  13     693     456   1
  13  15  13   20231    1887   1
  14  15  13      -6     343   1
   2  16  13     559     254   1
   3  16  13    4799     521   1
   4  16  13     309     315   1
   5  16  13    8581    1420   1
   6  16  13     494     260   1
  -7 -13 -16     840    1046  -2
   7  16  13     840    1046   1
  -8 -13 -16     338     507  -2
   8  16  13     338     507   1
  -9 -13 -16     932     664  -2
   9  16  13     932     664   1
 -10 -13 -16     963     346  -2
  10  16  13     963     346   1
 -11 -13 -16    4123     874  -2
  11  16  13    4123     874   1
  12  16  13     129     418   1
  13  16  13     -93     399   1
   4  17  13      45     167   1
   5  17  13     921     336   1
   6  17  13     315     386   1
  -7 -13 -17    3222     720  -2
   7  17  13    3222     720   1
  -8 -13 -17     967     497  -2
   8  17  13     967     497   1
  -9 -13 -17    7541     820  -2
   9  17  13    7541     820   1
 -10 -13 -17     -43     256  -2
  10  17  13     -43     256   1
 -11 -13 -17    -446     446  -2
  11  17  13    -446     446   1
  -3 -14  14     731     371   1
  -2 -14  14    1148     463   1
  -1 -14  14    2248     448   1
   0 -14  14    4877     789  -2
   0 -14  14    4877     789   1
   1 -14  14     171     549   1
   2 -14  14    -411     411   1
  -5 -13  14    -309     583   1
  -4 -13  14     496     469   1
  -3 -13  14    1341     700   1
  -2 -13  14    1450    1200   1
  -1 -13  14    3022     464   1
   0 -14  13    9791    1577  -2
   0 -13  14    9791    1577   1
   1 -13  14    1386     691   1
   2 -13  14      83     424   1
   3 -13  14    -282     290   1
   4 -13  14     263     531   1
  -6 -12  14     958     225   1
  -5 -12  14    5944     772   1
  -4 -12  14     751     268   1
  -3 -12  14    1624     698   1
  -2 -12  14     371     649   1
  -1 -12  14    3836     670   1
   0 -12  14     655     517   1
  -1 -14  12    -267     473  -2
   1 -12  14    -267     473   1
   2 -12  14    4388     807   1
   3 -12  14       5     791   1
   4 -12  14     958     373   1
   5 -12  14     305     379   1
   6 -12  14     343     720   1
   7 -12  14    5074     994   1
  -7 -11  14     381     233   1
  -6 -11  14     331     328   1
  -5 -11  14     111     282   1
  -4 -11  14    -291     291   1
  -3 -11  14    -120     465   1
  -2 -11  14    1400     306   1
  -1 -11  14    3976     664   1
   0 -11  14     749     618   1
  -1 -14  11     732     531  -2
   1 -11  14     732     531   1
   2 -11  14    5824    1035   1
   3 -11  14     258     516   1
   4 -11  14    2170     528   1
   5 -11  14     462     398   1
   6 -11  14    1389     327   1
   7 -11  14    1166     823   1
   8 -11  14    -240     617   1
  -8 -10  14     868     201   1
  -7 -10  14     140     286   1
  -6 -10  14    -280     410   1
  -5 -10  14     561     348   1
  -4 -10  14    1563     669   1
  -3 -10  14     599     943   1
  -2 -10  14     109     543   1
  -1 -10  14    1995     394   1
   0 -10  14     595     590   1
  -1 -14  10    4906     783  -2
   1 -10  14    4906     783   1
   2 -10  14     -60     608   1
   3 -10  14     730     643   1
   4 -10  14     440     640   1
   5 -10  14     516     641   1
   6 -10  14    1195     529   1
   7 -10  14    -243     519   1
   8 -10  14    -184     501   1
   9 -10  14    1890     943   1
  -8  -9  14    -118     287   1
  -7  -9  14     530     279   1
  -6  -9  14     571     321   1
  -5  -9  14    -225     453   1
  -4  -9  14      64     771   1
  -3  -9  14    2293     634   1
  -2  -9  14     -90     501   1
  -1  -9  14    7703     980   1
   0  -9  14     474     369   1
   1  -9  14    4740    1368   1
  -2 -14   9    -582     582  -2
   2  -9  14    -582     582   1
   3  -9  14   12739    1129   1
   4  -9  14    1354     307   1
   5  -9  14    9446    1041   1
   6  -9  14    1014     538   1
   7  -9  14     446     411   1
   8  -9  14    1206     599   1
   9  -9  14     404     591   1
  10  -9  14    1468     566   1
  -8  -8  14    1755     287   1
  -7  -8  14    1294     741   1
  -6  -8  14    -531     531   1
  -5  -8  14     413     410   1
  -4  -8  14     823     617   1
  -3  -8  14    1200     563   1
  -2  -8  14     776     601   1
  -1  -8  14    1639     527   1
   0  -8  14    1481     388   1
   1  -8  14    6077     991   1
  -2 -14   8     453     791  -2
   2  -8  14     453     791   1
   3  -8  14    6109     774   1
   4  -8  14     339     457   1
   5  -8  14    -356     698   1
   6  -8  14     -99     568   1
   7  -8  14    -290     444   1
   8  -8  14    7171    1057   1
   9  -8  14     618     501   1
  10  -8  14     351     629   1
  11  -8  14     494     545   1
  -9  -7  14     650     337   1
  -8  -7  14    8196     604   1
  -7  -7  14    1236     711   1
  -6  -7  14    1558     526   1
  -5  -7  14    3132     703   1
  -4  -7  14     617     651   1
  -3  -7  14     -15     639   1
  -2  -7  14    2252     741   1
  -1  -7  14    -338     736   1
   0  -7  14     -31     520   1
   1  -7  14    1061     515   1
  -2 -14   7    -244     649  -2
   2  -7  14    -244     649   1
   3  -7  14   12634    1058   1
   4  -7  14     917     599   1
   5  -7  14    2362     718   1
   6  -7  14    1022     687   1
   7  -7  14    1796     559   1
   8  -7  14    3645     553   1
   9  -7  14    1199     754   1
  10  -7  14    4471     666   1
  11  -7  14     136    1011   1
  12  -7  14     461     771   1
  -9  -6  14    1851     617   1
  -8  -6  14    3037     388   1
  -7  -6  14     564     457   1
  -6  -6  14    2677     421   1
  -5  -6  14     228     386   1
  -4  -6  14    -926     926   1
  -3  -6  14    2708     994   1
  -2  -6  14    1073     926   1
  -1  -6  14     433     916   1
   0  -6  14    -722     722   1
   1  -6  14     858     416   1
  -2 -14   6    1684     870  -2
   2  -6  14    1684     870   1
  -3 -14   6    2035     808  -2
   3  -6  14    2035     808   1
   4  -6  14     999     520   1
   5  -6  14     514     378   1
   6  -6  14     509     609   1
   7  -6  14     659     598   1
   8  -6  14      -9     802   1
   9  -6  14    9792    1189   1
  10  -6  14    -582     642   1
  11  -6  14     353    1185   1
  12  -6  14     377     655   1
  13  -6  14     970     594   1
  -9  -5  14    1097     583   1
  -8  -5  14    1190     411   1
  -7  -5  14     560    1063   1
  -6  -5  14     -51     402   1
  -5  -5  14      48     472   1
  -4  -5  14     480     926   1
  -3  -5  14    5245    1028   1
  -2  -5  14    6477    1663   1
  -1  -5  14    2241     640   1
   0  -5  14     805     560   1
   1  -5  14    -482     482   1
   2  -5  14    1083     341   1
  -3 -14   5   10141    1121  -2
   3  -5  14   10141    1121   1
   4  -5  14    1432     520   1
   5  -5  14    2517     560   1
   6  -5  14     896     690   1
   7  -5  14     467     587   1
   8  -5  14    -695     757   1
   9  -5  14    3139    1054   1
  10  -5  14    5050     898   1
  11  -5  14    4125     777   1
  12  -5  14    1023     607   1
  13  -5  14    1831     664   1
  -9  -4  14     870     450   1
  -8  -4  14     240     411   1
  -7  -4  14    -322     322   1
  -6  -4  14    2885     633   1
  -5  -4  14    8106     883   1
  -4  -4  14    -160     429   1
  -3  -4  14    1166     754   1
  -2  -4  14     633     815   1
  -1  -4  14    1399     594   1
   0  -4  14    4723     646   1
   1  -4  14    1112     526   1
   2  -4  14    1977     517   1
  -3 -14   4      26     557  -2
   3  -4  14      26     557   1
   4  -4  14    7252     717   1
   5  -4  14     377     458   1
   6  -4  14    2408     772   1
   7  -4  14    3640     677   1
   8  -4  14    1362     522   1
   9  -4  14    3609    1056   1
  10  -4  14    2959    1174   1
  11  -4  14     585     938   1
  12  -4  14    1283     750   1
  13  -4  14    2201     681   1
  14  -4  14      34     891   1
  -9  -3  14    2619     874   1
  -8  -3  14      73     348   1
  -7  -3  14     244     737   1
  -6  -3  14    1526     509   1
  -5  -3  14    1046     521   1
  -4  -3  14    9568    1088   1
  -3  -3  14    5279    1063   1
  -2  -3  14    6616    1070   1
  -1  -3  14   23201    1849   1
   0  -3  14    4642     909   1
   1  -3  14   18788    1712   1
   2  -3  14     962     420   1
  -3 -14   3    4446     466  -2
   3  -3  14    4446     466   1
  -4 -14   3   25830    1432  -2
   4  -3  14   25830    1432   1
   5  -3  14   15912    1035   1
   6  -3  14    9973     721   1
   7  -3  14   10918    1277   1
   8  -3  14    3341     608   1
   9  -3  14    7182     714   1
  10  -3  14    1175     895   1
  11  -3  14    -545     759   1
  12  -3  14    4011     998   1
  13  -3  14    4602     713   1
  14  -3  14    1337     571   1
  -9  -2  14    -137     617   1
  -8  -2  14     -10     303   1
  -7  -2  14     452     480   1
  -6  -2  14     686     651   1
  -5  -2  14    5826    2005   1
  -4  -2  14   13795    1390   1
  -3  -2  14    3257    1131   1
  -2  -2  14   10216    1748   1
  -1  -2  14     272     727   1
   0  -2  14    1147     950   1
   1  -2  14     542     455   1
   2  -2  14   10040     940   1
  -3 -14   2    7555     597  -2
   3  -2  14    7555     597   1
  -4 -14   2     908     650  -2
   4  -2  14     908     650   1
   5  -2  14    5531     635   1
   6  -2  14    6185     536   1
   7  -2  14    4917     810   1
   8  -2  14    2422     500   1
   9  -2  14     935     406   1
  10  -2  14    -488     488   1
  11  -2  14     -51     999   1
  12  -2  14    6668     905   1
  13  -2  14     900     691   1
  14  -2  14     497     720   1
  15  -2  14     446    1166   1
  -9  -1  14     234     480   1
  -8  -1  14     620     485   1
  -7  -1  14     169     418   1
  -6  -1  14    -240     617   1
  -5  -1  14     185     960   1
  -4  -1  14    2866     594   1
  -3  -1  14     514     994   1
  -2  -1  14    -926     926   1
  -1  -1  14    6445    1268   1
   0  -1  14    5369     758   1
   1  -1  14    1713     525   1
   2  -1  14    3319     537   1
   3  -1  14    8379     661   1
  -4 -14   1   15127    1140  -2
   4  -1  14   15127    1140   1
   5  -1  14   12691     894   1
   6  -1  14    1390     431   1
   7  -1  14    9446     818   1
   8  -1  14   18928    1230   1
   9  -1  14     111     408   1
  10  -1  14    2494     597   1
  11  -1  14     -93     686   1
  12  -1  14   13284    1081   1
  13  -1  14     593     761   1
  14  -1  14    -738    1063   1
  15  -1  14     467     634   1
  -9   0  14    -444     444   1
  -8   0  14    1621     560   1
  -7   0  14     149     307   1
  -6   0  14    1200     514   1
  -5   0  14    2708     651   1
  -4   0  14    1624     608   1
  -3   0  14    1605    1046   1
  -2   0  14    2948    1028   1
  -1   0  14    -617     891   1
   0   0  14     310     771   1
   1   0  14    1544     792   1
   2   0  14    5717     602   1
   3   0  14    5057     578   1
  -4 -14   0     973     284  -2
   4   0  14     973     284   1
  -5 -14   0    1495     611  -2
   5   0  14    1495     611   1
   6   0  14    4019     451   1
   7   0  14   18496    1022   1
   8   0  14   50455    3000   1
   9   0  14    1216     524   1
  10   0  14     -40     590   1
  11   0  14    6699     928   1
  12   0  14    7143     868   1
  13   0  14    1032    1035   1
  14   0  14    -151     522   1
  15   0  14    1059     726   1
  16   0  14     274     549   1
  -9   1  14     952     361   1
  -8   1  14    1043     514   1
  -7   1  14     898     394   1
  -6   1  14    -397     461   1
  -5   1  14     309     686   1
  -4   1  14    -161     568   1
  -3   1  14     263     493   1
  -2   1  14     720     686   1
  -1   1  14     171     926   1
   0   1  14    4274     733   1
   1   1  14    -190     590   1
   2   1  14     932     437   1
   3   1  14   10011     718   1
  -4 -14  -1    4490     607  -2
   4   1  14    4490     607   1
  -5 -14  -1    9615     729  -2
   5   1  14    9615     729   1
   6   1  14    4684     466   1
   7   1  14    6787     528   1
   8   1  14     954     515   1
   9   1  14    1555     513   1
  10   1  14   17814    1257   1
  11   1  14      54     686   1
  12   1  14      30     730   1
  13   1  14    2607     644   1
  14   1  14    2246     649   1
  15   1  14     244     496   1
  16   1  14     -34     651   1
  -9   2  14     241     566   1
  -8   2  14     809     532   1
  -7   2  14     336     435   1
  -6   2  14    1467     476   1
  -5   2  14    -240     651   1
  -4   2  14    3188     720   1
  -3   2  14      81     404   1
  -2   2  14    8365    1474   1
  -1   2  14    2468     754   1
   0   2  14    7914    2228   1
   1   2  14    6905     850   1
   2   2  14      -3     970   1
   3   2  14    1194     414   1
  -4 -14  -2     440     367  -2
   4   2  14     440     367   1
  -5 -14  -2    2242     497  -2
   5   2  14    2242     497   1
   6   2  14    6982     572   1
   7   2  14   11964     727   1
   8   2  14     354     523   1
   9   2  14    4078     607   1
  10   2  14    4088     594   1
  11   2  14    5251     940   1
  12   2  14    1104     757   1
  13   2  14    3491     715   1
  14   2  14    7202     922   1
  15   2  14     270     514   1
  16   2  14    -374     374   1
  -8   3  14    3098    1388   1
  -7   3  14     590     297   1
  -6   3  14    1105     487   1
  -5   3  14     240     651   1
  -4   3  14    -240     720   1
  -3   3  14    2625    1251   1
  -2   3  14     467     585   1
  -1   3  14    3005    1406   1
   0   3  14    4507    1148   1
   1   3  14   21361    1934   1
   2   3  14    6604     914   1
   3   3  14    1584     687   1
   4   3  14    3085     578   1
  -5 -14  -3   10435     720  -2
   5   3  14   10435     720   1
  -6 -14  -3    1477     465  -2
   6   3  14    1477     465   1
   7   3  14    6637     737   1
   8   3  14    2325     426   1
   9   3  14    5070     649   1
  10   3  14    6263     722   1
  11   3  14    1281     311   1
  12   3  14    2660     744   1
  13   3  14    8233     982   1
  14   3  14    1435     591   1
  15   3  14    -874     874   1
  16   3  14      34     469   1
  -8   4  14    -424     424   1
  -7   4  14     507     535   1
  -6   4  14      76     532   1
  -5   4  14    -105     497   1
  -4   4  14    3497     857   1
  -3   4  14     -77     480   1
  -2   4  14    1251     600   1
  -1   4  14       0     857   1
   0   4  14    1911    2280   1
   1   4  14    3778     818   1
   2   4  14   29717    2245   1
   3   4  14    3958     542   1
   4   4  14    4559     520   1
  -5 -14  -4    2902     389  -2
   5   4  14    2902     389   1
  -6 -14  -4    7841     651  -2
   6   4  14    7841     651   1
   7   4  14    8405     657   1
   8   4  14    1102     466   1
   9   4  14    6201     758   1
  10   4  14    1446     747   1
  11   4  14   14467    1093   1
  12   4  14    1482     923   1
  13   4  14     -33     638   1
  14   4  14    4918    1063   1
  15   4  14      75     667   1
  16   4  14     751     527   1
  17   4  14    1028     549   1
  -7   5  14     502     493   1
  -6   5  14    2194     349   1
  -5   5  14    -405     405   1
  -4   5  14    3394     823   1
  -3   5  14    1178    1183   1
  -2   5  14    3076     590   1
  -1   5  14    -480     891   1
   0   5  14    1508     857   1
   1   5  14    5370    1714   1
   2   5  14     205    1148   1
   3   5  14    9926    1687   1
   4   5  14   15015    1574   1
  -5 -14  -5    2783     698  -2
   5   5  14    2783     698   1
  -6 -14  -5    7163     881  -2
   6   5  14    7163     881   1
  -7 -14  -5     435     365  -2
   7   5  14     435     365   1
   8   5  14    3603     514   1
   9   5  14    6572     534   1
  10   5  14    4948     608   1
  11   5  14   19487    1244   1
  12   5  14     184     614   1
  13   5  14    -315     581   1
  14   5  14    1656     590   1
  15   5  14    -190     378   1
  16   5  14    -189     720   1
  17   5  14    3188     754   1
  -7   6  14      82     342   1
  -6   6  14    2037     609   1
  -5   6  14    -296     338   1
  -4   6  14    1642     535   1
  -3   6  14    1268     754   1
  -2   6  14    7801    1303   1
  -1   6  14    1060     434   1
   0   6  14      69     823   1
   1   6  14     442    1337   1
   2   6  14   21722    2023   1
   3   6  14     906     514   1
   4   6  14   45275    2492   1
  -5 -14  -6    2061     718  -2
   5   6  14    2061     718   1
  -6 -14  -6    6695     513  -2
   6   6  14    6695     513   1
  -7 -14  -6    1728     554  -2
   7   6  14    1728     554   1
   8   6  14     388     425   1
   9   6  14     528     346   1
  10   6  14    2420     509   1
  11   6  14    1649     673   1
  12   6  14     146     335   1
  13   6  14     108     610   1
  14   6  14     494    1223   1
  15   6  14    2864     554   1
  16   6  14     135     433   1
  17   6  14     -69     514   1
  -6   7  14    -208     469   1
  -5   7  14    -309     309   1
  -4   7  14     451     492   1
  -3   7  14    -549     686   1
  -2   7  14    6653     812   1
  -1   7  14    1763    1166   1
   0   7  14     926     823   1
   1   7  14     309     617   1
   2   7  14     959     703   1
   3   7  14    4900     954   1
   4   7  14   41490    2792   1
  -5 -14  -7    2681     451  -2
   5   7  14    2681     451   1
  -6 -14  -7    2496     636  -2
   6   7  14    2496     636   1
  -7 -14  -7   11482     950  -2
   7   7  14   11482     950   1
  -8 -14  -7    9475     809  -2
   8   7  14    9475     809   1
   9   7  14    7246     595   1
  10   7  14    -242     604   1
  11   7  14    1076     517   1
  12   7  14    7251     702   1
  13   7  14     -61     522   1
  14   7  14    -458     458   1
  15   7  14    1072     729   1
  16   7  14     511     444   1
  -6   8  14    -206     411   1
  -5   8  14    1447     531   1
  -4   8  14     828     366   1
  -3   8  14     -33     404   1
  -2   8  14      30     413   1
  -1   8  14    1372     580   1
   0   8  14     754    1114   1
   1   8  14    1406     823   1
   2   8  14     493     580   1
   3   8  14     269     460   1
   4   8  14   10258     983   1
  -5 -14  -8     147     759  -2
   5   8  14     147     759   1
  -6 -14  -8    2981     406  -2
   6   8  14    2981     406   1
  -7 -14  -8   22233    1539  -2
   7   8  14   22233    1539   1
  -8 -14  -8    5144     590  -2
   8   8  14    5144     590   1
   9   8  14    5652     576   1
  10   8  14     392     291   1
  11   8  14     161     394   1
  12   8  14    1349     435   1
  13   8  14    8653     709   1
  14   8  14     994     500   1
  15   8  14     481     440   1
  16   8  14     747     543   1
  17   8  14    -394     394   1
  -5   9  14     823     514   1
  -4   9  14      60     237   1
  -3   9  14    1317     383   1
  -2   9  14     -66     874   1
  -1   9  14    4522    1851   1
   0   9  14    1200    1063   1
   1   9  14    7336    1268   1
   2   9  14     472     545   1
   3   9  14    6731     760   1
   4   9  14    4936     848   1
  -5 -14  -9     -87     438  -2
   5   9  14     -87     438   1
  -6 -14  -9    3753     697  -2
   6   9  14    3753     697   1
  -7 -14  -9    5443     664  -2
   7   9  14    5443     664   1
  -8 -14  -9    3029     560  -2
   8   9  14    3029     560   1
  -9 -14  -9    1212     417  -2
   9   9  14    1212     417   1
  10   9  14    1797     440   1
  11   9  14    4921     582   1
  12   9  14    2628     491   1
  13   9  14    7036     705   1
  14   9  14     -31     613   1
  15   9  14    -274     754   1
  16   9  14    -372     514   1
  17   9  14     475     361   1
  -4  10  14    -103     514   1
  -3  10  14    2487     369   1
  -2  10  14     383     357   1
  -1  10  14    2174     486   1
   0  10  14     651     446   1
   1  10  14     485     566   1
   2  10  14    -274     720   1
   3  10  14    3418     630   1
   4  10  14    1492     467   1
  -5 -14 -10    2894     916  -2
   5  10  14    2894     916   1
  -6 -14 -10    1398     382  -2
   6  10  14    1398     382   1
  -7 -14 -10    1393     461  -2
   7  10  14    1393     461   1
  -8 -14 -10    1557     488  -2
   8  10  14    1557     488   1
  -9 -14 -10     961     475  -2
   9  10  14     961     475   1
 -10 -14 -10     945     435  -2
  10  10  14     945     435   1
  11  10  14    7483     835   1
  12  10  14     299     432   1
  13  10  14    5645     634   1
  14  10  14     642     658   1
  15  10  14    1246     639   1
  16  10  14     419     429   1
  -3  11  14    -311     311   1
  -2  11  14     460     260   1
  -1  11  14    1701     418   1
   0  11  14    -386     386   1
   1  11  14    1659     456   1
   2  11  14    2023     789   1
   3  11  14    3110     539   1
   4  11  14     279     960   1
  -5 -14 -11    2599     595  -2
   5  11  14    2599     595   1
  -6 -14 -11    1050     427  -2
   6  11  14    1050     427   1
  -7 -14 -11    2130     331  -2
   7  11  14    2130     331   1
  -8 -14 -11    3459     496  -2
   8  11  14    3459     496   1
  -9 -14 -11     259     390  -2
   9  11  14     259     390   1
 -10 -14 -11    4936     551  -2
  10  11  14    4936     551   1
  11  11  14    3299    1145   1
  12  11  14     339     638   1
  13  11  14    1210     457   1
  14  11  14    2810     593   1
  15  11  14     612     754   1
  16  11  14     701     386   1
  -2  12  14     154     202   1
  -1  12  14     624     394   1
   0  12  14     -15     327   1
   1  12  14    9058     982   1
   2  12  14    1084     686   1
   3  12  14    2331     720   1
   4  12  14   11835    1783   1
   5  12  14    -118     428   1
  -6 -14 -12    2959     771  -2
   6  12  14    2959     771   1
  -7 -14 -12    3230     363  -2
   7  12  14    3230     363   1
  -8 -14 -12     568     565  -2
   8  12  14     568     565   1
  -9 -14 -12    4040     702  -2
   9  12  14    4040     702   1
 -10 -14 -12   15375    2040  -2
  10  12  14   15375    2040   1
  11  12  14     -64     514   1
  12  12  14    4601    1351   1
  13  12  14    -100     388   1
  14  12  14    -105     237   1
  15  12  14     399     353   1
  16  12  14    -343     549   1
  -1  13  14     118     343   1
   0  13  14    5536    1766   1
   1  13  14    1946     583   1
   2  13  14    1825     771   1
   3  13  14     110     478   1
   4  13  14    3953     908   1
   5  13  14    4085     977   1
  -6 -14 -13    7415     737  -2
   6  13  14    7415     737   1
  -7 -14 -13    1633     561  -2
   7  13  14    1633     561   1
  -8 -14 -13    -266     591  -2
   8  13  14    -266     591   1
  -9 -14 -13     789     492  -2
   9  13  14     789     492   1
 -10 -14 -13     373     408  -2
  10  13  14     373     408   1
 -11 -14 -13      91    1543  -2
  11  13  14      91    1543   1
  12  13  14     301     566   1
  13  13  14     411     514   1
  14  13  14     896     354   1
  15  13  14     960     617   1
   0  14  14    1730     272   1
   1  14  14    1080     288   1
   2  14  14   10250    1337   1
   3  14  14    -354     354   1
   4  14  14    2827     450   1
   5  14  14      29     402   1
  -6 -14 -14    5298     585  -2
   6  14  14    5298     585   1
  -7 -14 -14     235    1131  -2
   7  14  14     235    1131   1
  -8 -14 -14     135     606  -2
   8  14  14     135     606   1
  -9 -14 -14    2955     669  -2
   9  14  14    2955     669   1
 -10 -14 -14    2145     513  -2
  10  14  14    2145     513   1
 -11 -14 -14    1602     551  -2
  11  14  14    1602     551   1
  12  14  14     209     497   1
  13  14  14    1234     486   1
  14  14  14     722     291   1
   2  15  14     431     229   1
   3  15  14    2337     549   1
   4  15  14     370     386   1
   5  15  14     529     481   1
   6  15  14     389     497   1
  -7 -14 -15    1017     700  -2
   7  15  14    1017     700   1
  -8 -14 -15    1825     520  -2
   8  15  14    1825     520   1
  -9 -14 -15     991     679  -2
   9  15  14     991     679   1
 -10 -14 -15    1176     347  -2
  10  15  14    1176     347   1
 -11 -14 -15     651     545  -2
  11  15  14     651     545   1
  12  15  14     753     425   1
  13  15  14      82     371   1
   4  16  14     804     221   1
   5  16  14    -285     285   1
   6  16  14     370     549   1
  -7 -14 -16    7130    1131  -2
   7  16  14    7130    1131   1
  -8 -14 -16    -343     514  -2
   8  16  14    -343     514   1
  -9 -14 -16    2111     440  -2
   9  16  14    2111     440   1
 -10 -14 -16     322     335  -2
  10  16  14     322     335   1
 -11 -14 -16     150     354  -2
  11  16  14     150     354   1
 -12 -14 -16    1090     361  -2
  12  16  14    1090     361   1
  -2 -13  15     981     531   1
  -1 -13  15    2819     617   1
   0 -13  15    5314     960   1
   1 -13  15    1114     412   1
   2 -13  15     514     480   1
   3 -13  15     343     514   1
  -4 -12  15     255     428   1
  -3 -12  15    7321    3839   1
  -2 -12  15     -31     444   1
  -1 -12  15    1050     676   1
   0 -12  15    5874     692   1
  -1 -15  12    1085     532  -2
   1 -12  15    1085     532   1
   2 -12  15    -104     551   1
   3 -12  15     119     480   1
   4 -12  15     -60     444   1
  -6 -11  15     240     165   1
  -5 -11  15     607     213   1
  -4 -11  15     398     247   1
  -3 -11  15    -113    1080   1
  -2 -11  15      63     551   1
  -1 -11  15    1739     713   1
   0 -11  15     917     540   1
  -1 -15  11    1427     924  -2
   1 -11  15    1427     924   1
   2 -11  15     816     805   1
   3 -11  15    1928     771   1
   4 -11  15    3003     957   1
   5 -11  15     329     340   1
   6 -11  15    1775    1234   1
   7 -11  15    -377     549   1
  -6 -10  15     671     193   1
  -5 -10  15     376     244   1
  -4 -10  15      67     646   1
  -3 -10  15     739     424   1
  -2 -10  15    -312     585   1
  -1 -10  15    5455     840   1
   0 -10  15     411     586   1
   1 -10  15    4666     688   1
   2 -10  15    -496     537   1
   3 -10  15    3628    1320   1
   4 -10  15    -469     469   1
   5 -10  15      66     477   1
   6 -10  15    2850     858   1
   7 -10  15     689     634   1
   8 -10  15    1680     754   1
  -7  -9  15    -130     274   1
  -6  -9  15    2206     513   1
  -5  -9  15     343     366   1
  -4  -9  15     465     402   1
  -3  -9  15    -266     414   1
  -2  -9  15     808     803   1
  -1  -9  15      66     817   1
   0  -9  15    1241     709   1
   1  -9  15    4880     777   1
  -2 -15   9     -91     512  -2
   2  -9  15     -91     512   1
   3  -9  15     404     475   1
   4  -9  15     702     551   1
   5  -9  15     697     539   1
   6  -9  15    1778     478   1
   7  -9  15    2837     674   1
   8  -9  15    -463     502   1
   9  -9  15    3222     926   1
  -8  -8  15    1097     309   1
  -7  -8  15     601     231   1
  -6  -8  15     434     287   1
  -5  -8  15    -229     281   1
  -4  -8  15    2336     499   1
  -3  -8  15    1331     411   1
  -2  -8  15     151     444   1
  -1  -8  15     912     405   1
   0  -8  15     185    1023   1
   1  -8  15    1105     931   1
  -2 -15   8     572     496  -2
   2  -8  15     572     496   1
   3  -8  15    4245     684   1
   4  -8  15     -32     307   1
   5  -8  15    6248     806   1
   6  -8  15    3951     636   1
   7  -8  15    4279     616   1
   8  -8  15     744     553   1
   9  -8  15    3671     594   1
  10  -8  15    1268     891   1
  -8  -7  15    2285     737   1
  -7  -7  15     310     254   1
  -6  -7  15     533     378   1
  -5  -7  15     268     310   1
  -4  -7  15     804     576   1
  -3  -7  15    -477     477   1
  -2  -7  15    -319     544   1
  -1  -7  15     408     439   1
   0  -7  15    1681     401   1
   1  -7  15     776     674   1
  -2 -15   7    1227     647  -2
   2  -7  15    1227     647   1
   3  -7  15    6732     795   1
   4  -7  15     268     470   1
   5  -7  15     731     785   1
   6  -7  15     -81     622   1
   7  -7  15    5232     768   1
   8  -7  15    2052     678   1
   9  -7  15    -374     563   1
  10  -7  15     495     506   1
  11  -7  15    1268     857   1
  -8  -6  15    1223     260   1
  -7  -6  15     232     303   1
  -6  -6  15     146     375   1
  -5  -6  15     352     364   1
  -4  -6  15     357     605   1
  -3  -6  15    3807     676   1
  -2  -6  15    3586     663   1
  -1  -6  15     562     522   1
   0  -6  15    3150     515   1
   1  -6  15    -335     525   1
   2  -6  15    3571    1186   1
  -3 -15   6   13116    1224  -2
   3  -6  15   13116    1224   1
   4  -6  15    8480     841   1
   5  -6  15    4449     724   1
   6  -6  15    1077     599   1
   7  -6  15    1325     503   1
   8  -6  15     170     331   1
   9  -6  15    1865     639   1
  10  -6  15    2094     670   1
  11  -6  15     452     468   1
  12  -6  15    2640     926   1
  -8  -5  15    1896     261   1
  -7  -5  15     549     497   1
  -6  -5  15    4930     658   1
  -5  -5  15    -200     720   1
  -4  -5  15    5189     623   1
  -3  -5  15    3003     799   1
  -2  -5  15    1578     608   1
  -1  -5  15    6221     797   1
   0  -5  15    2830     579   1
   1  -5  15    2203     945   1
   2  -5  15   13064    1363   1
  -3 -15   5    1312     723  -2
   3  -5  15    1312     723   1
   4  -5  15   13236    1281   1
   5  -5  15    1352     482   1
   6  -5  15    7859    1000   1
   7  -5  15     152     782   1
   8  -5  15     433     517   1
   9  -5  15    8162    1035   1
  10  -5  15    1670     706   1
  11  -5  15     669     717   1
  12  -5  15     367     543   1
  13  -5  15     789     823   1
  -8  -4  15      53     167   1
  -7  -4  15     161     304   1
  -6  -4  15    2878     488   1
  -5  -4  15    1128    1011   1
  -4  -4  15   21520    3325   1
  -3  -4  15    7139    2091   1
  -2  -4  15    -472     472   1
  -1  -4  15    1101     650   1
   0  -4  15   10141    1165   1
   1  -4  15    3690     549   1
   2  -4  15    1712     372   1
  -3 -15   4    4833     654  -2
   3  -4  15    4833     654   1
  -4 -15   4    2786     709  -2
   4  -4  15    2786     709   1
   5  -4  15    3595     534   1
   6  -4  15    -173     695   1
   7  -4  15     824     522   1
   8  -4  15      11     459   1
   9  -4  15     622     747   1
  10  -4  15    -777     785   1
  11  -4  15    1422     715   1
  12  -4  15    3294     771   1
  13  -4  15    3562    1680   1
  -8  -3  15     221     169   1
  -7  -3  15     733     391   1
  -6  -3  15    3635     566   1
  -5  -3  15    8611     931   1
  -4  -3  15    5203    1474   1
  -3  -3  15    -891     891   1
  -2  -3  15    7897     866   1
  -1  -3  15    2082     625   1
   0  -3  15    2461     632   1
   1  -3  15     714     579   1
   2  -3  15    2178     423   1
   3  -3  15    3693     755   1
  -4 -15   3    6387     764  -2
   4  -3  15    6387     764   1
   5  -3  15   14318    1044   1
   6  -3  15    5798     547   1
   7  -3  15     -25     673   1
   8  -3  15    3816     664   1
   9  -3  15    4774     856   1
  10  -3  15    2269     742   1
  11  -3  15    5763     869   1
  12  -3  15    5494     957   1
  13  -3  15     794    1268   1
  14  -3  15     480     754   1
  -8  -2  15     656    1028   1
  -7  -2  15     572     423   1
  -6  -2  15    -191     329   1
  -5  -2  15    1917     446   1
  -4  -2  15    3152     642   1
  -3  -2  15    9564    1440   1
  -2  -2  15     343     651   1
  -1  -2  15     869     599   1
   0  -2  15    2242     578   1
   1  -2  15     916     585   1
   2  -2  15    4422     762   1
   3  -2  15   10358     760   1
  -4 -15   2    2227     560  -2
   4  -2  15    2227     560   1
   5  -2  15   33601    2701   1
   6  -2  15    2259     426   1
   7  -2  15     642     519   1
   8  -2  15     446     564   1
   9  -2  15     615     423   1
  10  -2  15    2182    1059   1
  11  -2  15    -613     840   1
  12  -2  15    -158    1074   1
  13  -2  15    3631     907   1
  14  -2  15    2458     653   1
  15  -2  15    -446     686   1
  -8  -1  15     -94     771   1
  -7  -1  15     413     583   1
  -6  -1  15     878     395   1
  -5  -1  15    1154     467   1
  -4  -1  15     369     560   1
  -3  -1  15    1954     754   1
  -2  -1  15    -891     891   1
  -1  -1  15    1263     758   1
   0  -1  15    7509    1097   1
   1  -1  15    3811     635   1
   2  -1  15     202     427   1
   3  -1  15    2250     439   1
  -4 -15   1    8179     791  -2
   4  -1  15    8179     791   1
  -5 -15   1    1039     685  -2
   5  -1  15    1039     685   1
   6  -1  15     521     518   1
   7  -1  15    1852     670   1
   8  -1  15    4939     707   1
   9  -1  15    1717     493   1
  10  -1  15     785     599   1
  11  -1  15    -175     605   1
  12  -1  15    1186     538   1
  13  -1  15    1961     906   1
  14  -1  15    -146     601   1
  15  -1  15     446     456   1
  -8   0  15     501     483   1
  -7   0  15    1280     337   1
  -6   0  15    3050    1131   1
  -5   0  15    4993     625   1
  -4   0  15     554     497   1
  -3   0  15     523     568   1
  -2   0  15    6582    1268   1
  -1   0  15     549     651   1
   0   0  15     732     658   1
   1   0  15     -23     867   1
   2   0  15    5008     933   1
   3   0  15   10897     840   1
  -4 -15   0    7336    1071  -2
   4   0  15    7336    1071   1
  -5 -15   0    2102     573  -2
   5   0  15    2102     573   1
   6   0  15   15258     996   1
   7   0  15     526     465   1
   8   0  15    4665     649   1
   9   0  15    4947     913   1
  10   0  15     781     739   1
  11   0  15    5959     987   1
  12   0  15      73     555   1
  13   0  15     311     483   1
  14   0  15     -51     372   1
  15   0  15     -58     908   1
  -8   1  15    -166     497   1
  -7   1  15    1378     491   1
  -6   1  15     270     343   1
  -5   1  15    1178     543   1
  -4   1  15    2838    1131   1
  -3   1  15     645     493   1
  -2   1  15    5279     994   1
  -1   1  15    8673    1474   1
   0   1  15    4704     805   1
   1   1  15     530     852   1
   2   1  15    1357     871   1
   3   1  15    2397     442   1
   4   1  15    1662     623   1
  -5 -15  -1    6085     679  -2
   5   1  15    6085     679   1
   6   1  15     392     468   1
   7   1  15    1885     582   1
   8   1  15   13712    1184   1
   9   1  15    1781     518   1
  10   1  15     462     708   1
  11   1  15     729     857   1
  12   1  15     376     717   1
  13   1  15    -545     550   1
  14   1  15    -475     475   1
  15   1  15     302     411   1
  16   1  15     103     617   1
  -8   2  15     377     549   1
  -7   2  15     549     857   1
  -6   2  15     857     399   1
  -5   2  15    1526     461   1
  -4   2  15     941     583   1
  -3   2  15    1573     532   1
  -2   2  15    -309     891   1
  -1   2  15     549     617   1
   0   2  15    1030     649   1
   1   2  15    9028    1215   1
   2   2  15    1483     806   1
   3   2  15   17606    1989   1
   4   2  15    3274     399   1
  -5 -15  -2    1614     531  -2
   5   2  15    1614     531   1
  -6 -15  -2    -477     730  -2
   6   2  15    -477     730   1
   7   2  15     417     676   1
   8   2  15    5636     783   1
   9   2  15    9804     967   1
  10   2  15    4162     599   1
  11   2  15    4836    1003   1
  12   2  15   13457    1385   1
  13   2  15     284     616   1
  14   2  15      -8     591   1
  15   2  15    -121     994   1
  16   2  15     206     686   1
  -7   3  15     149     410   1
  -6   3  15    1369     599   1
  -5   3  15     945     424   1
  -4   3  15     540     543   1
  -3   3  15     456     445   1
  -2   3  15    -270     874   1
  -1   3  15    5691    1200   1
   0   3  15    5176    1131   1
   1   3  15     127     582   1
   2   3  15    7589     983   1
   3   3  15    8227     802   1
   4   3  15   16900    1196   1
  -5 -15  -3    5161     989  -2
   5   3  15    5161     989   1
  -6 -15  -3    9268    1048  -2
   6   3  15    9268    1048   1
   7   3  15    2180     520   1
   8   3  15    3127     390   1
   9   3  15     573     562   1
  10   3  15    2392     527   1
  11   3  15    2131     599   1
  12   3  15     614    1100   1
  13   3  15     532     628   1
  14   3  15    2546     692   1
  15   3  15    1371     535   1
  16   3  15     431     429   1
  -7   4  15     267     361   1
  -6   4  15     326     238   1
  -5   4  15     353     806   1
  -4   4  15    1457     617   1
  -3   4  15    2615     615   1
  -2   4  15     378     560   1
  -1   4  15    2708     960   1
   0   4  15    7576    1234   1
   1   4  15    7815    1543   1
   2   4  15    2563     701   1
   3   4  15    9889    1900   1
   4   4  15    2672     451   1
  -5 -15  -4   10280     816  -2
   5   4  15   10280     816   1
  -6 -15  -4    3870     618  -2
   6   4  15    3870     618   1
   7   4  15    6060     632   1
   8   4  15   12954     897   1
   9   4  15     516     549   1
  10   4  15    5791     679   1
  11   4  15   18529    1348   1
  12   4  15    6600    1006   1
  13   4  15     226     753   1
  14   4  15     834     741   1
  15   4  15    -552     591   1
  16   4  15    -229     502   1
  -6   5  15      50     527   1
  -5   5  15    2691     586   1
  -4   5  15     599     388   1
  -3   5  15    3899     874   1
  -2   5  15   10827    1491   1
  -1   5  15    2640     960   1
   0   5  15    8742    1337   1
   1   5  15    1645     539   1
   2   5  15    1140     670   1
   3   5  15    9552    1474   1
   4   5  15   25681    1608   1
  -5 -15  -5   17434    1112  -2
   5   5  15   17434    1112   1
  -6 -15  -5     138     742  -2
   6   5  15     138     742   1
  -7 -15  -5    8791     972  -2
   7   5  15    8791     972   1
   8   5  15     693     454   1
   9   5  15    4036     726   1
  10   5  15    1834     820   1
  11   5  15    6786    1987   1
  12   5  15    -617     857   1
  13   5  15    -380     653   1
  14   5  15    1329     642   1
  15   5  15     516     943   1
  16   5  15    2364    2040   1
  -6   6  15     499     617   1
  -5   6  15     446     291   1
  -4   6  15    1348     387   1
  -3   6  15     936     379   1
  -2   6  15     314     436   1
  -1   6  15    2195     629   1
   0   6  15    1097     617   1
   1   6  15     343     789   1
   2   6  15    1364     532   1
   3   6  15     595     388   1
   4   6  15   12707     959   1
   5   6  15    1541     586   1
  -6 -15  -6     -94     653  -2
   6   6  15     -94     653   1
  -7 -15  -6     484     449  -2
   7   6  15     484     449   1
   8   6  15    4051     535   1
   9   6  15    2906     657   1
  10   6  15     143     767   1
  11   6  15     209     383   1
  12   6  15     -27     300   1
  13   6  15     906     739   1
  14   6  15      37     630   1
  15   6  15    1588     672   1
  16   6  15     566     507   1
  -5   7  15    -136     545   1
  -4   7  15     191     584   1
  -3   7  15    1704     350   1
  -2   7  15    2746     977   1
  -1   7  15    1250     482   1
   0   7  15    2434     686   1
   1   7  15     377     789   1
   2   7  15     -89     439   1
   3   7  15      45     593   1
   4   7  15   10957    1217   1
   5   7  15    1911     465   1
  -6 -15  -7    2184     563  -2
   6   7  15    2184     563   1
  -7 -15  -7      88     547  -2
   7   7  15      88     547   1
  -8 -15  -7     -93     559  -2
   8   7  15     -93     559   1
   9   7  15   15393    1110   1
  10   7  15     714     515   1
  11   7  15    1724     491   1
  12   7  15     279     385   1
  13   7  15    -461     755   1
  14   7  15     618     654   1
  15   7  15     154     388   1
  16   7  15    8982    1406   1
  -5   8  15     309     446   1
  -4   8  15     937     279   1
  -3   8  15    1425     772   1
  -2   8  15     -16     361   1
  -1   8  15     934     436   1
   0   8  15    -306     445   1
   1   8  15    2879    1440   1
   2   8  15     372     574   1
   3   8  15    7795     828   1
   4   8  15   26723    1954   1
   5   8  15    1029     475   1
  -6 -15  -8     754     398  -2
   6   8  15     754     398   1
  -7 -15  -8    2147     550  -2
   7   8  15    2147     550   1
  -8 -15  -8    3777     571  -2
   8   8  15    3777     571   1
   9   8  15     442     384   1
  10   8  15    2208     669   1
  11   8  15    2057     465   1
  12   8  15    2518     465   1
  13   8  15     975     462   1
  14   8  15    8039     833   1
  15   8  15    -360     483   1
  16   8  15    -313     379   1
  -4   9  15     583     514   1
  -3   9  15    4271     603   1
  -2   9  15    -348     348   1
  -1   9  15    4790     629   1
   0   9  15     960     651   1
   1   9  15     222     651   1
   2   9  15    1482     510   1
   3   9  15    1483     705   1
   4   9  15    3370     509   1
   5   9  15    2632     449   1
  -6 -15  -9    1083     303  -2
   6   9  15    1083     303   1
  -7 -15  -9    5616     667  -2
   7   9  15    5616     667   1
  -8 -15  -9    1840     511  -2
   8   9  15    1840     511   1
  -9 -15  -9    2729     494  -2
   9   9  15    2729     494   1
  10   9  15     713     525   1
  11   9  15    3049     610   1
  12   9  15    1792     426   1
  13   9  15    2182     319   1
  14   9  15     291     509   1
  15   9  15    1916    1097   1
  16   9  15     452     375   1
  -3  10  15    3937     888   1
  -2  10  15    -247     247   1
  -1  10  15     270     908   1
   0  10  15    1405     514   1
   1  10  15    2063    1011   1
   2  10  15     514     514   1
   3  10  15   17593    2451   1
   4  10  15     387     393   1
   5  10  15    4350     574   1
  -6 -15 -10    1338     381  -2
   6  10  15    1338     381   1
  -7 -15 -10    1972     454  -2
   7  10  15    1972     454   1
  -8 -15 -10    1437     443  -2
   8  10  15    1437     443   1
  -9 -15 -10    3573     784  -2
   9  10  15    3573     784   1
 -10 -15 -10     735     319  -2
  10  10  15     735     319   1
  11  10  15    1541     671   1
  12  10  15     176     412   1
  13  10  15   11011    1141   1
  14  10  15     368     517   1
  15  10  15     -45     420   1
  16  10  15      95     327   1
  -2  11  15     177     239   1
  -1  11  15    1608     446   1
   0  11  15     627     327   1
   1  11  15    2280     532   1
   2  11  15     527     511   1
   3  11  15    2801     566   1
   4  11  15     775     686   1
   5  11  15    1076     463   1
  -6 -15 -11     583     303  -2
   6  11  15     583     303   1
  -7 -15 -11     720     404  -2
   7  11  15     720     404   1
  -8 -15 -11    1114     474  -2
   8  11  15    1114     474   1
  -9 -15 -11     215     405  -2
   9  11  15     215     405   1
 -10 -15 -11     -78     359  -2
  10  11  15     -78     359   1
  11  11  15    -495     724   1
  12  11  15     228     439   1
  13  11  15    1680     614   1
  14  11  15     236     789   1
  15  11  15    -356     379   1
  -1  12  15     293     218   1
   0  12  15    2495    1028   1
   1  12  15    1538     411   1
   2  12  15     666     634   1
   3  12  15    2007     600   1
   4  12  15    -453     453   1
   5  12  15    1732     435   1
  -6 -15 -12   12955    1646  -2
   6  12  15   12955    1646   1
  -7 -15 -12     316     588  -2
   7  12  15     316     588   1
  -8 -15 -12       3     578  -2
   8  12  15       3     578   1
  -9 -15 -12       6     494  -2
   9  12  15       6     494   1
 -10 -15 -12    2422     428  -2
  10  12  15    2422     428   1
 -11 -15 -12     226     754  -2
  11  12  15     226     754   1
  12  12  15    4016     526   1
  13  12  15     265     392   1
  14  12  15     258     432   1
  15  12  15     891     583   1
   0  13  15    2983    1217   1
   1  13  15    2830    1286   1
   2  13  15    2528    1577   1
   3  13  15    2332     598   1
   4  13  15     895     393   1
   5  13  15    2936     789   1
  -6 -15 -13    1698     551  -2
   6  13  15    1698     551   1
  -7 -15 -13    5851     626  -2
   7  13  15    5851     626   1
  -8 -15 -13    1427     417  -2
   8  13  15    1427     417   1
  -9 -15 -13    1532     547  -2
   9  13  15    1532     547   1
 -10 -15 -13     514     336  -2
  10  13  15     514     336   1
 -11 -15 -13     167     672  -2
  11  13  15     167     672   1
  12  13  15     176     410   1
  13  13  15     583     720   1
  14  13  15     343     583   1
   2  14  15     627     239   1
   3  14  15     782     252   1
   4  14  15     140     199   1
   5  14  15     402     246   1
   6  14  15    -253     591   1
  -7 -15 -14     249     478  -2
   7  14  15     249     478   1
  -8 -15 -14    2227     566  -2
   8  14  15    2227     566   1
  -9 -15 -14    1232     468  -2
   9  14  15    1232     468   1
 -10 -15 -14     621     558  -2
  10  14  15     621     558   1
 -11 -15 -14    -240     418  -2
  11  14  15    -240     418   1
  12  14  15    4459    1766   1
  13  14  15     979     281   1
   4  15  15    1508     651   1
   5  15  15     155     420   1
   6  15  15    1252     634   1
  -7 -15 -15    -240     720  -2
   7  15  15    -240     720   1
  -8 -15 -15     513     394  -2
   8  15  15     513     394   1
  -9 -15 -15    4794    1019  -2
   9  15  15    4794    1019   1
 -10 -15 -15    2099     771  -2
  10  15  15    2099     771   1
 -11 -15 -15     542     395  -2
  11  15  15     542     395   1
 -12 -15 -15     609     410  -2
  12  15  15     609     410   1
  -7 -15 -16     617     583  -2
   7  16  15     617     583   1
  -8 -15 -16    4045     857  -2
   8  16  15    4045     857   1
  -9 -15 -16      69     549  -2
   9  16  15      69     549   1
  -1 -12  16     419     300   1
   0 -12  16     411     651   1
  -1 -16  12    -351     351  -2
   1 -12  16    -351     351   1
   2 -12  16     427     463   1
   3 -12  16    1543     411   1
  -3 -11  16     891     509   1
  -2 -11  16     549     428   1
  -1 -11  16    2981     527   1
   0 -11  16     398     449   1
   1 -11  16    1831     542   1
   2 -11  16    -538     583   1
   3 -11  16    1125     434   1
   4 -11  16     232     531   1
  -4 -10  16    1423     568   1
  -3 -10  16     911     593   1
  -2 -10  16    1090     708   1
  -1 -10  16     737     486   1
   0 -10  16    1232     913   1
   1 -10  16    1847     399   1
  -2 -16  10    -635     943  -2
   2 -10  16    -635     943   1
   3 -10  16    5714     781   1
   4 -10  16     150     521   1
   5 -10  16     508     524   1
   6 -10  16     407     434   1
  -5  -9  16    -169     204   1
  -4  -9  16     229     241   1
  -3  -9  16     323     254   1
  -2  -9  16    2984    1063   1
  -1  -9  16   11620    1298   1
   0  -9  16    -147     560   1
   1  -9  16    5822    2342   1
  -2 -16   9    1834     473  -2
   2  -9  16    1834     473   1
   3  -9  16    2936     906   1
   4  -9  16    1646    1080   1
   5  -9  16    3373     563   1
   6  -9  16     335     446   1
   7  -9  16    1127     806   1
   8  -9  16     377     651   1
  -6  -8  16    -194     194   1
  -5  -8  16     493     278   1
  -4  -8  16    2438     485   1
  -3  -8  16    2348     405   1
  -2  -8  16    1263     277   1
  -1  -8  16    1239     618   1
   0  -8  16      19     535   1
   1  -8  16    6675    2091   1
  -2 -16   8    1009     593  -2
   2  -8  16    1009     593   1
   3  -8  16     755     590   1
   4  -8  16    -837     837   1
   5  -8  16      19     488   1
   6  -8  16    1052     932   1
   7  -8  16    1748     742   1
   8  -8  16    2252     788   1
   9  -8  16    1851     789   1
  -6  -7  16     126     229   1
  -5  -7  16     444     247   1
  -4  -7  16    2187     376   1
  -3  -7  16     -93     665   1
  -2  -7  16     340     365   1
  -1  -7  16      -4     309   1
   0  -7  16    2747     938   1
   1  -7  16    1379     551   1
   2  -7  16    2101     907   1
  -3 -16   7     915     636  -2
   3  -7  16     915     636   1
   4  -7  16    -124     431   1
   5  -7  16   11016    1708   1
   6  -7  16     751     759   1
   7  -7  16    2498     491   1
   8  -7  16    2061     688   1
   9  -7  16    2052     789   1
  10  -7  16    1577     857   1
  -7  -6  16     686     309   1
  -6  -6  16     385     297   1
  -5  -6  16    -346     346   1
  -4  -6  16    1267     415   1
  -3  -6  16    -256     469   1
  -2  -6  16    1265     448   1
  -1  -6  16     295     498   1
   0  -6  16     474     505   1
   1  -6  16    2238     670   1
   2  -6  16   11896    1293   1
  -3 -16   6    1050     654  -2
   3  -6  16    1050     654   1
   4  -6  16    1170     486   1
   5  -6  16    -245     496   1
   6  -6  16    4372     713   1
   7  -6  16    3280     991   1
   8  -6  16    2281     781   1
   9  -6  16     986     823   1
  10  -6  16    1098     908   1
  11  -6  16     819     486   1
  -7  -5  16    1006     254   1
  -6  -5  16    1015     531   1
  -5  -5  16     735     321   1
  -4  -5  16    3936     605   1
  -3  -5  16    7078     780   1
  -2  -5  16    6903     787   1
  -1  -5  16    -266     661   1
   0  -5  16    1279     346   1
   1  -5  16      18     297   1
   2  -5  16     719     784   1
  -3 -16   5     400     700  -2
   3  -5  16     400     700   1
   4  -5  16    7188     829   1
   5  -5  16    9497    1323   1
   6  -5  16     818     654   1
   7  -5  16    1538     561   1
   8  -5  16    1486     870   1
   9  -5  16    1980     880   1
  10  -5  16     223     943   1
  11  -5  16    5087    2537   1
  12  -5  16      71     840   1
  -7  -4  16     119     220   1
  -6  -4  16    1785     337   1
  -5  -4  16     221     480   1
  -4  -4  16    2900     566   1
  -3  -4  16     651     549   1
  -2  -4  16    4390     760   1
  -1  -4  16    1448     527   1
   0  -4  16    2444     573   1
   1  -4  16    2911     428   1
   2  -4  16     825     623   1
   3  -4  16    1910     489   1
  -4 -16   4    2462     692  -2
   4  -4  16    2462     692   1
   5  -4  16    4764     929   1
   6  -4  16    2731     983   1
   7  -4  16    -151     957   1
   8  -4  16    -105     638   1
   9  -4  16    1126     932   1
  10  -4  16    1322     763   1
  11  -4  16    -106     715   1
  12  -4  16       2     630   1
  13  -4  16     994     754   1
  -7  -3  16     584     222   1
  -6  -3  16    1456     321   1
  -5  -3  16     226     461   1
  -4  -3  16    5583     639   1
  -3  -3  16    2057     651   1
  -2  -3  16    -105     478   1
  -1  -3  16     486     498   1
   0  -3  16     -32     703   1
   1  -3  16     642     389   1
   2  -3  16     459     310   1
   3  -3  16    3362     608   1
  -4 -16   3     255     573  -2
   4  -3  16     255     573   1
   5  -3  16    3354     538   1
   6  -3  16    1858     545   1
   7  -3  16     862     612   1
   8  -3  16     576     515   1
   9  -3  16    3390    1251   1
  10  -3  16    -602     763   1
  11  -3  16    1183     751   1
  12  -3  16    1474     943   1
  13  -3  16    5358     799   1
  -7  -2  16     -77     297   1
  -6  -2  16    1319     429   1
  -5  -2  16    2682     943   1
  -4  -2  16   13793    1714   1
  -3  -2  16    -103     789   1
  -2  -2  16     432     480   1
  -1  -2  16    1050    1286   1
   0  -2  16    -112     541   1
   1  -2  16     223     437   1
   2  -2  16   13688    1155   1
   3  -2  16     543     567   1
  -4 -16   2    9223    1242  -2
   4  -2  16    9223    1242   1
   5  -2  16    4703     604   1
   6  -2  16    1398     446   1
   7  -2  16     439     537   1
   8  -2  16     429     431   1
   9  -2  16    2169     403   1
  10  -2  16    1100     937   1
  11  -2  16    1116    1166   1
  12  -2  16    2417     908   1
  13  -2  16    4487    1423   1
  14  -2  16    -214     634   1
  -7  -1  16     150     243   1
  -6  -1  16    1076     304   1
  -5  -1  16    2573     472   1
  -4  -1  16    4578     688   1
  -3  -1  16     695     497   1
  -2  -1  16    3702     789   1
  -1  -1  16    4135    1491   1
   0  -1  16    6276     919   1
   1  -1  16     367     560   1
   2  -1  16     907     397   1
   3  -1  16    1913     657   1
  -4 -16   1    1341    1004  -2
   4  -1  16    1341    1004   1
  -5 -16   1    2162     614  -2
   5  -1  16    2162     614   1
   6  -1  16    1807     708   1
   7  -1  16    1284     826   1
   8  -1  16    1931     552   1
   9  -1  16     639     433   1
  10  -1  16    1536     688   1
  11  -1  16    -163     620   1
  12  -1  16    -691     691   1
  13  -1  16    2648     843   1
  14  -1  16    -295     569   1
  -7   0  16     798     420   1
  -6   0  16      74     302   1
  -5   0  16    3611     576   1
  -4   0  16    2797     737   1
  -3   0  16     415     617   1
  -2   0  16    -480     583   1
  -1   0  16    1923    1885   1
   0   0  16     342     585   1
   1   0  16   18538    1804   1
   2   0  16     172     385   1
   3   0  16    1450     342   1
   4   0  16    5302     785   1
  -5 -16   0    2296     597  -2
   5   0  16    2296     597   1
   6   0  16    3792     557   1
   7   0  16    6066     755   1
   8   0  16     624     561   1
   9   0  16    3243     543   1
  10   0  16    3196     842   1
  11   0  16    -252     609   1
  12   0  16    -188     580   1
  13   0  16     273     503   1
  14   0  16    -125     609   1
  15   0  16     343     549   1
  -7   1  16     994     583   1
  -6   1  16     404     479   1
  -5   1  16    5201     703   1
  -4   1  16    2408     497   1
  -3   1  16     -61     926   1
  -2   1  16    -343     823   1
  -1   1  16    7405    1200   1
   0   1  16    5828     848   1
   1   1  16    3569     602   1
   2   1  16    2527     827   1
   3   1  16    -285     462   1
   4   1  16    4326     708   1
  -5 -16  -1   20109    1593  -2
   5   1  16   20109    1593   1
  -6 -16  -1   13093    1093  -2
   6   1  16   13093    1093   1
   7   1  16     839     568   1
   8   1  16    3775     633   1
   9   1  16   10595     940   1
  10   1  16    4652     554   1
  11   1  16    1464     603   1
  12   1  16      40     572   1
  13   1  16      68     543   1
  14   1  16     333     429   1
  15   1  16     309     686   1
  -6   2  16     -62     227   1
  -5   2  16      17     364   1
  -4   2  16     288     360   1
  -3   2  16     810     527   1
  -2   2  16     958     497   1
  -1   2  16     103     789   1
   0   2  16     884     536   1
   1   2  16    2849     732   1
   2   2  16   12498    1292   1
   3   2  16     806     586   1
   4   2  16   13405    1316   1
  -5 -16  -2    5008     723  -2
   5   2  16    5008     723   1
  -6 -16  -2    8165     786  -2
   6   2  16    8165     786   1
   7   2  16    3106     784   1
   8   2  16     606     599   1
   9   2  16   12409    1053   1
  10   2  16    1024     876   1
  11   2  16     328     734   1
  12   2  16    -359     554   1
  13   2  16    1334     626   1
  14   2  16    -156     583   1
  15   2  16     137     399   1
  -6   3  16     -99     288   1
  -5   3  16     101     514   1
  -4   3  16      58     617   1
  -3   3  16     684     386   1
  -2   3  16    3659     583   1
  -1   3  16    2228     686   1
   0   3  16    -229     675   1
   1   3  16     -30     630   1
   2   3  16    1688     558   1
   3   3  16    7666     726   1
   4   3  16   10254     784   1
  -5 -16  -3    4905     896  -2
   5   3  16    4905     896   1
  -6 -16  -3    5776     709  -2
   6   3  16    5776     709   1
   7   3  16      42     473   1
   8   3  16   41758    2649   1
   9   3  16    4259     700   1
  10   3  16    4787     803   1
  11   3  16    1435     742   1
  12   3  16    3346     732   1
  13   3  16     -87     625   1
  14   3  16     347    1080   1
  15   3  16     806     534   1
  -6   4  16    -549     549   1
  -5   4  16    1107     272   1
  -4   4  16     380     514   1
  -3   4  16    6428    1543   1
  -2   4  16     -31     507   1
  -1   4  16    1783     857   1
   0   4  16     446     789   1
   1   4  16    2540     727   1
   2   4  16     383     603   1
   3   4  16    2551     473   1
   4   4  16    1320     364   1
   5   4  16   10977    1134   1
  -6 -16  -4    1313     625  -2
   6   4  16    1313     625   1
  -7 -16  -4    5645     676  -2
   7   4  16    5645     676   1
   8   4  16    8492     752   1
   9   4  16    8078     887   1
  10   4  16    1891     557   1
  11   4  16    7035     794   1
  12   4  16    -169     773   1
  13   4  16     278     750   1
  14   4  16    3286    1303   1
  15   4  16     540    1063   1
  16   4  16      69     651   1
  -5   5  16     265     215   1
  -4   5  16     977     333   1
  -3   5  16     969     377   1
  -2   5  16    3111     533   1
  -1   5  16     305     450   1
   0   5  16    -137     549   1
   1   5  16      25     503   1
   2   5  16     406     603   1
   3   5  16    5209     697   1
   4   5  16    2893     628   1
   5   5  16   24226    1892   1
  -6 -16  -5    5337     741  -2
   6   5  16    5337     741   1
  -7 -16  -5    1407     621  -2
   7   5  16    1407     621   1
   8   5  16     834     396   1
   9   5  16    1138     481   1
  10   5  16    5083    1048   1
  11   5  16   15011    1599   1
  12   5  16    2451     840   1
  13   5  16    -685     685   1
  14   5  16    3127     926   1
  15   5  16    -381     789   1
  16   5  16    1034     720   1
  -5   6  16    1268     514   1
  -4   6  16     579     221   1
  -3   6  16    2007     481   1
  -2   6  16    -383     483   1
  -1   6  16     568     943   1
   0   6  16    1508     617   1
   1   6  16    -167     617   1
   2   6  16    1834     458   1
   3   6  16    2064     539   1
   4   6  16    4709     549   1
   5   6  16    2330     381   1
  -6 -16  -6    2690     588  -2
   6   6  16    2690     588   1
  -7 -16  -6      54     690  -2
   7   6  16      54     690   1
   8   6  16    1539     463   1
   9   6  16    4665     774   1
  10   6  16    1078     635   1
  11   6  16    3394     603   1
  12   6  16     722     642   1
  13   6  16    -286     580   1
  14   6  16    1887     629   1
  15   6  16    6926     897   1
  16   6  16     377     514   1
  -4   7  16     892     477   1
  -3   7  16     279     287   1
  -2   7  16     371     365   1
  -1   7  16     499     908   1
   0   7  16     652     356   1
   1   7  16    2479     592   1
   2   7  16    3691     649   1
   3   7  16    1037     717   1
   4   7  16    4524     559   1
   5   7  16     930     262   1
  -6 -16  -7    2740     571  -2
   6   7  16    2740     571   1
  -7 -16  -7    2139     562  -2
   7   7  16    2139     562   1
  -8 -16  -7    3007     472  -2
   8   7  16    3007     472   1
   9   7  16    -270     270   1
  10   7  16    2806     523   1
  11   7  16     141     386   1
  12   7  16    1596     351   1
  13   7  16     143     424   1
  14   7  16    5239     789   1
  15   7  16    1139     926   1
  16   7  16     103     480   1
  -3   8  16    -233     233   1
  -2   8  16      67     346   1
  -1   8  16     917     390   1
   0   8  16     487     353   1
   1   8  16    4855     698   1
   2   8  16    5600     706   1
   3   8  16     468     488   1
   4   8  16    3033     586   1
   5   8  16     294     286   1
  -6 -16  -8    2592     584  -2
   6   8  16    2592     584   1
  -7 -16  -8    -401     521  -2
   7   8  16    -401     521   1
  -8 -16  -8    3076     520  -2
   8   8  16    3076     520   1
   9   8  16    4298     771   1
  10   8  16     772     413   1
  11   8  16     693     726   1
  12   8  16     633     393   1
  13   8  16    1913     593   1
  14   8  16    1492     562   1
  15   8  16     571     418   1
  -2   9  16     598     263   1
  -1   9  16    4466    1457   1
   0   9  16     497     461   1
   1   9  16    9346    2023   1
   2   9  16    -158     397   1
   3   9  16    3893     610   1
   4   9  16    2661     440   1
   5   9  16    1700     337   1
   6   9  16    2451     463   1
  -7 -16  -9    1505     505  -2
   7   9  16    1505     505   1
  -8 -16  -9     703     448  -2
   8   9  16     703     448   1
  -9 -16  -9    5165     907  -2
   9   9  16    5165     907   1
  10   9  16    -467     467   1
  11   9  16     830     407   1
  12   9  16    4389     592   1
  13   9  16    -145     733   1
  14   9  16    1158     551   1
  15   9  16    2120     480   1
  -2  10  16     158     171   1
  -1  10  16     442     254   1
   0  10  16    1528     386   1
   1  10  16    1977     771   1
   2  10  16    2186     771   1
   3  10  16     951     487   1
   4  10  16     550     405   1
   5  10  16    1043     307   1
   6  10  16    1974     405   1
  -7 -16 -10    -175     668  -2
   7  10  16    -175     668   1
  -8 -16 -10    3745     446  -2
   8  10  16    3745     446   1
  -9 -16 -10    1021     460  -2
   9  10  16    1021     460   1
  10  10  16     -53     435   1
  11  10  16    2259     540   1
  12  10  16     816     339   1
  13  10  16     436     590   1
  14  10  16    2214    1337   1
  15  10  16    -171     514   1
  -1  11  16     994     214   1
   0  11  16     866    1217   1
   1  11  16     379     288   1
   2  11  16     484     358   1
   3  11  16     682     310   1
   4  11  16    1172     404   1
   5  11  16    5377     963   1
   6  11  16     377     493   1
  -7 -16 -11     206     541  -2
   7  11  16     206     541   1
  -8 -16 -11     715     369  -2
   8  11  16     715     369   1
  -9 -16 -11     240     356  -2
   9  11  16     240     356   1
 -10 -16 -11    7882     896  -2
  10  11  16    7882     896   1
  11  11  16     499     367   1
  12  11  16    1398     382   1
  13  11  16    1356     286   1
  14  11  16     918     393   1
   0  12  16     257     194   1
   1  12  16     -92     222   1
   2  12  16    1940     318   1
   3  12  16   14025    1318   1
   4  12  16     653     303   1
   5  12  16    5306     785   1
  -6 -16 -12     951     511  -2
   6  12  16     951     511   1
  -7 -16 -12    8118     769  -2
   7  12  16    8118     769   1
  -8 -16 -12     -23     452  -2
   8  12  16     -23     452   1
  -9 -16 -12    7392     700  -2
   9  12  16    7392     700   1
 -10 -16 -12    1067     519  -2
  10  12  16    1067     519   1
 -11 -16 -12    3352    1423  -2
  11  12  16    3352    1423   1
  12  12  16     394     806   1
  13  12  16   10976    1053   1
  14  12  16      34     549   1
   2  13  16      53     214   1
   3  13  16    1079     322   1
   4  13  16     283     754   1
   5  13  16    9222    1406   1
   6  13  16    1954     606   1
  -7 -16 -13    1061     460  -2
   7  13  16    1061     460   1
  -8 -16 -13    -340     484  -2
   8  13  16    -340     484   1
  -9 -16 -13    1458     723  -2
   9  13  16    1458     723   1
 -10 -16 -13    2421     581  -2
  10  13  16    2421     581   1
 -11 -16 -13    1526     533  -2
  11  13  16    1526     533   1
  12  13  16    -290     446   1
  13  13  16      69     617   1
   4  14  16     843     480   1
   5  14  16     439     395   1
   6  14  16    2106     478   1
  -7 -16 -14     654     566  -2
   7  14  16     654     566   1
  -8 -16 -14     380     412  -2
   8  14  16     380     412   1
  -9 -16 -14    2917     429  -2
   9  14  16    2917     429   1
 -10 -16 -14    1225     600  -2
  10  14  16    1225     600   1
 -11 -16 -14     686     446  -2
  11  14  16     686     446   1
 -12 -16 -14     637     737  -2
  12  14  16     637     737   1
  -7 -16 -15     137     343  -2
   7  15  16     137     343   1
  -8 -16 -15    4594     754  -2
   8  15  16    4594     754   1
  -9 -16 -15     446     617  -2
   9  15  16     446     617   1
  -2 -10  17    1244     361   1
  -1 -10  17     174     326   1
   0 -10  17     394     294   1
   1 -10  17    3197     585   1
  -2 -17  10     312    1097  -2
   2 -10  17     312    1097   1
   3 -10  17    6698     815   1
   4 -10  17    -326     326   1
  -3  -9  17    3158    1560   1
  -2  -9  17    -395     395   1
  -1  -9  17    1378     651   1
   0  -9  17     422     684   1
   1  -9  17     185     361   1
   2  -9  17      -2     615   1
   3  -9  17    2821     568   1
   4  -9  17     150     581   1
   5  -9  17    -245     379   1
   6  -9  17    1783     754   1
  -4  -8  17     206     549   1
  -3  -8  17    1478     493   1
  -2  -8  17    7177    1080   1
  -1  -8  17     618     733   1
   0  -8  17     934     439   1
   1  -8  17     707     441   1
   2  -8  17     548     452   1
  -3 -17   8    2391     626  -2
   3  -8  17    2391     626   1
   4  -8  17     946     617   1
   5  -8  17    -418     418   1
   6  -8  17    2247     840   1
   7  -8  17     399     469   1
   8  -8  17     274     617   1
  -5  -7  17    1031     229   1
  -4  -7  17     180     208   1
  -3  -7  17     -91     239   1
  -2  -7  17    2197     707   1
  -1  -7  17    1172    1097   1
   0  -7  17     -30     503   1
   1  -7  17    1648     575   1
   2  -7  17    1384     515   1
  -3 -17   7     905     368  -2
   3  -7  17     905     368   1
   4  -7  17    -480     679   1
   5  -7  17      34    1063   1
   6  -7  17    6677     806   1
   7  -7  17    2159     712   1
   8  -7  17    -497     497   1
   9  -7  17    1312     977   1
  -5  -6  17      48     309   1
  -4  -6  17     533     235   1
  -3  -6  17     352     345   1
  -2  -6  17     379     271   1
  -1  -6  17    3795     840   1
   0  -6  17     944     869   1
   1  -6  17    4749     788   1
   2  -6  17    1144     572   1
  -3 -17   6    5235    1194  -2
   3  -6  17    5235    1194   1
   4  -6  17    1098     672   1
   5  -6  17    2137     737   1
   6  -6  17    1330     633   1
   7  -6  17    1858     388   1
   8  -6  17    -469     960   1
   9  -6  17    3650     702   1
  10  -6  17     -74     521   1
  -6  -5  17    -154     257   1
  -5  -5  17    1151     297   1
  -4  -5  17    -240     269   1
  -3  -5  17     -96     314   1
  -2  -5  17     154     363   1
  -1  -5  17     569     327   1
   0  -5  17    3162     823   1
   1  -5  17     841     675   1
   2  -5  17    2013     644   1
   3  -5  17    2653     837   1
  -4 -17   5    -196     433  -2
   4  -5  17    -196     433   1
   5  -5  17    -703     836   1
   6  -5  17    -326     726   1
   7  -5  17    1243     477   1
   8  -5  17    1428     796   1
   9  -5  17     128    1234   1
  10  -5  17    1431    1131   1
  11  -5  17     -59     497   1
  -6  -4  17     386     206   1
  -5  -4  17     171     242   1
  -4  -4  17    1059     361   1
  -3  -4  17     636     365   1
  -2  -4  17    -120     441   1
  -1  -4  17     233     340   1
   0  -4  17    2347     380   1
   1  -4  17     136     465   1
   2  -4  17    1027     572   1
   3  -4  17    3825     593   1
  -4 -17   4    8582    1209  -2
   4  -4  17    8582    1209   1
   5  -4  17    1300     926   1
   6  -4  17    1297     660   1
   7  -4  17     103     542   1
   8  -4  17    -381     405   1
   9  -4  17    -377     758   1
  10  -4  17    1642     944   1
  11  -4  17    3687     727   1
  -6  -3  17     227     189   1
  -5  -3  17     477     291   1
  -4  -3  17    1259     386   1
  -3  -3  17     250     528   1
  -2  -3  17    1916     539   1
  -1  -3  17     624     467   1
   0  -3  17    -373     470   1
   1  -3  17    -166     343   1
   2  -3  17     251     497   1
   3  -3  17    3373     581   1
  -4 -17   3    5678     647  -2
   4  -3  17    5678     647   1
   5  -3  17     370     381   1
   6  -3  17    3414     828   1
   7  -3  17    3773     741   1
   8  -3  17    1321    1006   1
   9  -3  17      10     810   1
  10  -3  17    -125     666   1
  11  -3  17    1796     691   1
  12  -3  17     291     558   1
  -6  -2  17    -206     206   1
  -5  -2  17     -34     361   1
  -4  -2  17    2434     521   1
  -3  -2  17    2111     480   1
  -2  -2  17     -94     549   1
  -1  -2  17      97     371   1
   0  -2  17    2467     524   1
   1  -2  17     805     633   1
   2  -2  17    1222     560   1
   3  -2  17    1424     499   1
   4  -2  17    1306     578   1
  -5 -17   2    2808     531  -2
   5  -2  17    2808     531   1
   6  -2  17    3227     769   1
   7  -2  17    1102     668   1
   8  -2  17     -29     704   1
   9  -2  17     357     820   1
  10  -2  17    2224     785   1
  11  -2  17    -336     715   1
  12  -2  17     132     618   1
  13  -2  17    -120     533   1
  -6  -1  17     370     214   1
  -5  -1  17    1178     360   1
  -4  -1  17    2901     469   1
  -3  -1  17    -120     315   1
  -2  -1  17      60     771   1
  -1  -1  17     935     533   1
   0  -1  17    4541     686   1
   1  -1  17    1915     477   1
   2  -1  17     -17     297   1
   3  -1  17    1231     546   1
   4  -1  17    4952     607   1
  -5 -17   1    3281     534  -2
   5  -1  17    3281     534   1
   6  -1  17    5565     726   1
   7  -1  17    3769     669   1
   8  -1  17     -49     428   1
   9  -1  17    1814     393   1
  10  -1  17    1837     803   1
  11  -1  17    1709    1039   1
  12  -1  17    -629     629   1
  13  -1  17    1134     960   1
  -6   0  17    -118     343   1
  -5   0  17     783     327   1
  -4   0  17      34     315   1
  -3   0  17     724     411   1
  -2   0  17    3942     754   1
  -1   0  17     504     926   1
   0   0  17      -5     555   1
   1   0  17     400     514   1
   2   0  17    4339     485   1
   3   0  17    1606     609   1
   4   0  17   10373     959   1
  -5 -17   0    1328     604  -2
   5   0  17    1328     604   1
   6   0  17    2031     454   1
   7   0  17    5260     778   1
   8   0  17    6273     755   1
   9   0  17    1734     485   1
  10   0  17    2338     798   1
  11   0  17    1352     576   1
  12   0  17    -509     509   1
  13   0  17     433     625   1
  14   0  17     446     651   1
  -5   1  17     186     247   1
  -4   1  17    8605    1268   1
  -3   1  17     219     353   1
  -2   1  17     380     497   1
  -1   1  17     705     568   1
   0   1  17    2222     617   1
   1   1  17    7478     890   1
   2   1  17    2539     597   1
   3   1  17     365     602   1
   4   1  17    3052     668   1
  -5 -17  -1    2777     574  -2
   5   1  17    2777     574   1
  -6 -17  -1    1797     674  -2
   6   1  17    1797     674   1
   7   1  17      41     603   1
   8   1  17    3488     679   1
   9   1  17   19365    1376   1
  10   1  17     212     633   1
  11   1  17   14185    1505   1
  12   1  17     402     509   1
  13   1  17    2383     506   1
  14   1  17    -583     686   1
  -5   2  17     346     275   1
  -4   2  17     255     329   1
  -3   2  17     287     312   1
  -2   2  17     737     364   1
  -1   2  17    -614     754   1
   0   2  17    3180     710   1
   1   2  17     -42     501   1
   2   2  17    -415     415   1
   3   2  17    7549     609   1
   4   2  17    6070     804   1
   5   2  17    1524     580   1
  -6 -17  -2     136     555  -2
   6   2  17     136     555   1
   7   2  17   11610     950   1
   8   2  17   10831     966   1
   9   2  17    5916     906   1
  10   2  17    1325     409   1
  11   2  17    3803     736   1
  12   2  17     665     878   1
  13   2  17    -142     533   1
  14   2  17    1366    1817   1
  -5   3  17    2084     734   1
  -4   3  17     -98     343   1
  -3   3  17    1239     351   1
  -2   3  17    -394     394   1
  -1   3  17    1440     720   1
   0   3  17    -168     576   1
   1   3  17    -412     527   1
   2   3  17   12738    1325   1
   3   3  17    1491     398   1
   4   3  17   11448    1134   1
   5   3  17    6417     889   1
  -6 -17  -3    1119     546  -2
   6   3  17    1119     546   1
   7   3  17   16667    1185   1
   8   3  17    8788    1239   1
   9   3  17     731     570   1
  10   3  17    1355     488   1
  11   3  17    6988    1508   1
  12   3  17    -256     725   1
  13   3  17    1172    1080   1
  14   3  17    -233     823   1
  -4   4  17    -233     249   1
  -3   4  17     549     686   1
  -2   4  17     365     429   1
  -1   4  17     465     634   1
   0   4  17    1401     560   1
   1   4  17      49     519   1
   2   4  17     128     576   1
   3   4  17    3489     554   1
   4   4  17   16895    1457   1
   5   4  17    2334     679   1
  -6 -17  -4    1450     565  -2
   6   4  17    1450     565   1
  -7 -17  -4    4752     620  -2
   7   4  17    4752     620   1
   8   4  17    4776     788   1
   9   4  17    2325     629   1
  10   4  17     584     517   1
  11   4  17    1281     702   1
  12   4  17    7926    1054   1
  13   4  17    2267     677   1
  14   4  17    -507     507   1
  15   4  17     265     395   1
  -4   5  17     668     187   1
  -3   5  17    1106     651   1
  -2   5  17    2129     399   1
  -1   5  17     943     364   1
   0   5  17    5434     756   1
   1   5  17     177     448   1
   2   5  17     315     710   1
   3   5  17    1054     371   1
   4   5  17    6937     920   1
   5   5  17    1273     735   1
  -6 -17  -5    9272     931  -2
   6   5  17    9272     931   1
  -7 -17  -5    8784     955  -2
   7   5  17    8784     955   1
   8   5  17     703     291   1
   9   5  17    3641    1332   1
  10   5  17     728     489   1
  11   5  17     236     387   1
  12   5  17     554     891   1
  13   5  17    2152     729   1
  14   5  17     548     583   1
  15   5  17     326     436   1
  -3   6  17      53     197   1
  -2   6  17      75     307   1
  -1   6  17    2934     667   1
   0   6  17    2121     568   1
   1   6  17    2737     498   1
   2   6  17    1648     558   1
   3   6  17    4596     695   1
   4   6  17    1694     525   1
   5   6  17    6486     831   1
   6   6  17    4997     734   1
  -7 -17  -6    2589     607  -2
   7   6  17    2589     607   1
  -8 -17  -6    2509     511  -2
   8   6  17    2509     511   1
   9   6  17    1607     702   1
  10   6  17     203     537   1
  11   6  17    5132    1080   1
  12   6  17     -70     669   1
  13   6  17    5326     873   1
  14   6  17      13     566   1
  15   6  17      69     926   1
  -3   7  17    1817     514   1
  -2   7  17    -191     239   1
  -1   7  17      27     248   1
   0   7  17    1109     609   1
   1   7  17     196     350   1
   2   7  17    7868     747   1
   3   7  17     115     378   1
   4   7  17    8222    1372   1
   5   7  17     349     522   1
   6   7  17    1709     507   1
  -7 -17  -7    4243     850  -2
   7   7  17    4243     850   1
  -8 -17  -7    1140     415  -2
   8   7  17    1140     415   1
   9   7  17    -282     748   1
  10   7  17    2104     874   1
  11   7  17    1498     418   1
  12   7  17     383     527   1
  13   7  17     118     483   1
  14   7  17    -444     444   1
  15   7  17    2982     720   1
  -2   8  17     926     291   1
  -1   8  17     -12     304   1
   0   8  17    1880     346   1
   1   8  17    2656     438   1
   2   8  17    3140    1007   1
   3   8  17    4727     583   1
   4   8  17    2495     693   1
   5   8  17    1506     906   1
   6   8  17    1461     634   1
  -7 -17  -8    -444     776  -2
   7   8  17    -444     776   1
  -8 -17  -8    1057    1100  -2
   8   8  17    1057    1100   1
   9   8  17     904     599   1
  10   8  17    6424     887   1
  11   8  17    1993     467   1
  12   8  17    4634     943   1
  13   8  17    1563     517   1
  14   8  17    1714     720   1
  -1   9  17     455     326   1
   0   9  17     704     272   1
   1   9  17    1948     427   1
   2   9  17    3157     728   1
   3   9  17     466     504   1
   4   9  17    3242     398   1
   5   9  17    1129     412   1
   6   9  17    1194     464   1
  -7 -17  -9    1065     377  -2
   7   9  17    1065     377   1
  -8 -17  -9    -297     376  -2
   8   9  17    -297     376   1
  -9 -17  -9     415     554  -2
   9   9  17     415     554   1
  10   9  17    4095     723   1
  11   9  17    2325     580   1
  12   9  17    2291     483   1
  13   9  17     240     686   1
  14   9  17     343     549   1
   0  10  17     334     274   1
   1  10  17    -163     294   1
   2  10  17     190     270   1
   3  10  17    3485     411   1
   4  10  17    -320     493   1
   5  10  17     -73     427   1
   6  10  17    1994     458   1
  -7 -17 -10    2309     515  -2
   7  10  17    2309     515   1
  -8 -17 -10     410     317  -2
   8  10  17     410     317   1
  -9 -17 -10    1098     446  -2
   9  10  17    1098     446   1
  10  10  17     294     521   1
  11  10  17    -421     421   1
  12  10  17    2940     601   1
  13  10  17    -289     386   1
  14  10  17     446     514   1
   1  11  17     336     229   1
   2  11  17      48     200   1
   3  11  17     246     349   1
   4  11  17    1682     551   1
   5  11  17    1610    1217   1
   6  11  17    7000    1526   1
  -7 -17 -11    6841     824  -2
   7  11  17    6841     824   1
  -8 -17 -11    1208     387  -2
   8  11  17    1208     387   1
  -9 -17 -11    1835     428  -2
   9  11  17    1835     428   1
 -10 -17 -11    1098     378  -2
  10  11  17    1098     378   1
  11  11  17    1208     681   1
  12  11  17    2513     367   1
  13  11  17    4422     857   1
   4  12  17      32     514   1
   5  12  17    1255     448   1
   6  12  17    1894     583   1
  -7 -17 -12     877     472  -2
   7  12  17     877     472   1
  -8 -17 -12     800     411  -2
   8  12  17     800     411   1
  -9 -17 -12    -214     420  -2
   9  12  17    -214     420   1
 -10 -17 -12     491     428  -2
  10  12  17     491     428   1
  11  12  17     585     361   1
  12  12  17     621     446   1
   4  13  17    1474     549   1
   5  13  17    -346     346   1
   6  13  17    1200     549   1
  -7 -17 -13    2674     514  -2
   7  13  17    2674     514   1
  -8 -17 -13     751     336  -2
   8  13  17     751     336   1
  -9 -17 -13    2004    1234  -2
   9  13  17    2004    1234   1
 -10 -17 -13    -135     361  -2
  10  13  17    -135     361   1
 -11 -17 -13     222     311  -2
  11  13  17     222     311   1
   0  -9  18    1611     651   1
   1  -9  18     -47     395   1
   2  -9  18    1569     497   1
  -3 -18   9    -129     410  -2
   3  -9  18    -129     410   1
   4  -9  18     144     342   1
  -2  -8  18    -377     377   1
  -1  -8  18     545     322   1
   0  -8  18     477     356   1
   1  -8  18     134     279   1
   2  -8  18     -99     469   1
  -3 -18   8     943     558  -2
   3  -8  18     943     558   1
   4  -8  18    2318    1166   1
   5  -8  18     157     255   1
   6  -8  18     583     617   1
  -2  -7  18     206     549   1
  -1  -7  18     829     476   1
   0  -7  18    2385     493   1
   1  -7  18    1533     356   1
   2  -7  18     592     311   1
  -3 -18   7     771     737  -2
   3  -7  18     771     737   1
   4  -7  18    1364     686   1
   5  -7  18     122     524   1
   6  -7  18     470     328   1
   7  -7  18    -651     651   1
  -3  -6  18      69     549   1
  -2  -6  18     566     436   1
  -1  -6  18     346     960   1
   0  -6  18     143     448   1
   1  -6  18    -206     487   1
   2  -6  18    1009     449   1
   3  -6  18    4956    1097   1
  -4 -18   6    -498     642  -2
   4  -6  18    -498     642   1
   5  -6  18    4946     704   1
   6  -6  18    1824     426   1
   7  -6  18    -686     789   1
   8  -6  18    1474     857   1
  -3  -5  18    1086     467   1
  -2  -5  18    -411     891   1
  -1  -5  18     167     568   1
   0  -5  18    -373     591   1
   1  -5  18     550     418   1
   2  -5  18     489     465   1
   3  -5  18    1684     403   1
  -4 -18   5    2845     776  -2
   4  -5  18    2845     776   1
   5  -5  18    1300    1200   1
   6  -5  18    6192     865   1
   7  -5  18    -271     407   1
   8  -5  18     293     617   1
   9  -5  18     644     517   1
  -4  -4  18     434     205   1
  -3  -4  18    1647     287   1
  -2  -4  18     381     235   1
  -1  -4  18    1507     549   1
   0  -4  18      24     410   1
   1  -4  18     936     469   1
   2  -4  18    3523     648   1
   3  -4  18    3492    1090   1
  -4 -18   4     386     276  -2
   4  -4  18     386     276   1
   5  -4  18    2301     850   1
   6  -4  18     530     626   1
   7  -4  18    1298    1354   1
   8  -4  18    1359     634   1
   9  -4  18    1343     702   1
  10  -4  18    -521     521   1
  11  -4  18    -137     617   1
  -4  -3  18    -206     229   1
  -3  -3  18     513     236   1
  -2  -3  18     136     310   1
  -1  -3  18    -108     220   1
   0  -3  18     420    1474   1
   1  -3  18    -384     384   1
   2  -3  18    4113     548   1
   3  -3  18    3752     528   1
   4  -3  18     365     377   1
  -5 -18   3    -363     908  -2
   5  -3  18    -363     908   1
   6  -3  18    1950     756   1
   7  -3  18     841     581   1
   8  -3  18     292     299   1
   9  -3  18    1141     658   1
  10  -3  18    1542     634   1
  11  -3  18     784     542   1
  -4  -2  18     365     205   1
  -3  -2  18    1351     291   1
  -2  -2  18    1286     415   1
  -1  -2  18    1114     358   1
   0  -2  18    2109     384   1
   1  -2  18      -1     447   1
   2  -2  18    4570     618   1
   3  -2  18    1248     494   1
   4  -2  18    5810    1242   1
  -5 -18   2    1235     371  -2
   5  -2  18    1235     371   1
   6  -2  18     536     605   1
   7  -2  18     613     492   1
   8  -2  18    7540    1018   1
   9  -2  18    1541     667   1
  10  -2  18     331     741   1
  11  -2  18     -55     569   1
  12  -2  18     288     472   1
  -4  -1  18     589     260   1
  -3  -1  18    1553     343   1
  -2  -1  18    2451    1320   1
  -1  -1  18     131     286   1
   0  -1  18    1624     416   1
   1  -1  18    -137     533   1
   2  -1  18     820     608   1
   3  -1  18     428     437   1
   4  -1  18   10287    1009   1
  -5 -18   1    2385     449  -2
   5  -1  18    2385     449   1
   6  -1  18    2311     682   1
   7  -1  18    -384     616   1
   8  -1  18     828     495   1
   9  -1  18    -379     494   1
  10  -1  18    -522     642   1
  11  -1  18    1071     618   1
  12  -1  18    4868     908   1
  -4   0  18     517     254   1
  -3   0  18    3305    1234   1
  -2   0  18    1188     314   1
  -1   0  18    1775     960   1
   0   0  18     175     720   1
   1   0  18    2568     444   1
   2   0  18     977     659   1
   3   0  18    2951     741   1
   4   0  18    5643     713   1
  -5 -18   0    1621     508  -2
   5   0  18    1621     508   1
  -6 -18   0    1257     773  -2
   6   0  18    1257     773   1
   7   0  18    -128     577   1
   8   0  18    -191     453   1
   9   0  18    5744     891   1
  10   0  18     263     484   1
  11   0  18    7694     796   1
  12   0  18      10     594   1
  13   0  18    2674     823   1
  -4   1  18    1099     288   1
  -3   1  18    -255     549   1
  -2   1  18   10145    1479   1
  -1   1  18    -282     440   1
   0   1  18    1084     566   1
   1   1  18     562     787   1
   2   1  18     245     537   1
   3   1  18    1532     608   1
   4   1  18    1704     867   1
   5   1  18   15922    1301   1
  -6 -18  -1    1134     316  -2
   6   1  18    1134     316   1
   7   1  18     883     499   1
   8   1  18     -33     517   1
   9   1  18    1222     628   1
  10   1  18      99     597   1
  11   1  18    2790     678   1
  12   1  18     631     482   1
  13   1  18     206     754   1
  -4   2  18    2193     497   1
  -3   2  18     254     285   1
  -2   2  18     165     337   1
  -1   2  18     -64     425   1
   0   2  18    1434     686   1
   1   2  18    1012     346   1
   2   2  18      40     231   1
   3   2  18    1383     587   1
   4   2  18   29901    2260   1
   5   2  18    3671     791   1
  -6 -18  -2     329     445  -2
   6   2  18     329     445   1
   7   2  18    2604     682   1
   8   2  18    9418     992   1
   9   2  18    2132     879   1
  10   2  18    -276     864   1
  11   2  18    2294     683   1
  12   2  18     570     629   1
  13   2  18     -15     436   1
  -3   3  18     799     297   1
  -2   3  18      80     296   1
  -1   3  18     676     300   1
   0   3  18    2702    1011   1
   1   3  18     250     410   1
   2   3  18     632     618   1
   3   3  18     171     636   1
   4   3  18   30962    2869   1
   5   3  18    3935     592   1
  -6 -18  -3    5873     859  -2
   6   3  18    5873     859   1
  -7 -18  -3    1036     561  -2
   7   3  18    1036     561   1
   8   3  18   12558    1146   1
   9   3  18    1254     499   1
  10   3  18     890     606   1
  11   3  18    1198     741   1
  12   3  18     215     857   1
  13   3  18    1192    1063   1
  14   3  18    1268     651   1
  -3   4  18     240     201   1
  -2   4  18      61     270   1
  -1   4  18    1208     303   1
   0   4  18      36     386   1
   1   4  18     346     336   1
   2   4  18    4209     503   1
   3   4  18    1242     561   1
   4   4  18   16346    1488   1
   5   4  18    7181     838   1
  -6 -18  -4    1039     843  -2
   6   4  18    1039     843   1
  -7 -18  -4    1875     406  -2
   7   4  18    1875     406   1
   8   4  18    4697     955   1
   9   4  18    5877     676   1
  10   4  18    1363     556   1
  11   4  18    1016     691   1
  12   4  18    -222     583   1
  13   4  18    1390     545   1
  14   4  18     792     424   1
  -2   5  18    -241     251   1
  -1   5  18     462     287   1
   0   5  18    2552     561   1
   1   5  18    3180     445   1
   2   5  18     380     492   1
   3   5  18    5926     869   1
   4   5  18   12096    1108   1
   5   5  18     328     539   1
   6   5  18    1363     576   1
  -7 -18  -5    -176     420  -2
   7   5  18    -176     420   1
   8   5  18    8386    1104   1
   9   5  18     839     840   1
  10   5  18     547     364   1
  11   5  18     820     658   1
  12   5  18     789    1046   1
  13   5  18    -385     503   1
  14   5  18     221     399   1
  -2   6  18     288     497   1
  -1   6  18     958     403   1
   0   6  18     986     277   1
   1   6  18     -89     334   1
   2   6  18    9079     994   1
   3   6  18     621     720   1
   4   6  18    -193     581   1
   5   6  18    1772     593   1
   6   6  18    2178     566   1
  -7 -18  -6    3713     500  -2
   7   6  18    3713     500   1
  -8 -18  -6    4851    1046  -2
   8   6  18    4851    1046   1
   9   6  18    5174     741   1
  10   6  18    -518     549   1
  11   6  18     633     323   1
  12   6  18    -487     487   1
  13   6  18     362     556   1
  -1   7  18     408     214   1
   0   7  18     617     371   1
   1   7  18      79     345   1
   2   7  18    2212     683   1
   3   7  18    2780     692   1
   4   7  18    1199     664   1
   5   7  18     642     604   1
   6   7  18    7807     785   1
  -7 -18  -7    2285     515  -2
   7   7  18    2285     515   1
  -8 -18  -7    -134     723  -2
   8   7  18    -134     723   1
   9   7  18    1422     723   1
  10   7  18     -74     384   1
  11   7  18    1783     514   1
  12   7  18    2263     823   1
  13   7  18       0     651   1
  14   7  18    -103     514   1
   0   8  18    1034     669   1
   1   8  18     423     272   1
   2   8  18     579     500   1
   3   8  18    5868    1680   1
   4   8  18     683     683   1
   5   8  18    1426     474   1
   6   8  18     175     427   1
  -7 -18  -8     836     437  -2
   7   8  18     836     437   1
  -8 -18  -8    2177     771  -2
   8   8  18    2177     771   1
  -9 -18  -8     125     806  -2
   9   8  18     125     806   1
  10   8  18     -74     586   1
  11   8  18     415     379   1
  12   8  18     171     720   1
  13   8  18     274     651   1
   1   9  18     281     200   1
   2   9  18    2057     891   1
   3   9  18    -209     566   1
   4   9  18    -582     582   1
   5   9  18    2562    1037   1
   6   9  18    2048     923   1
   7   9  18    1407     398   1
  -8 -18  -9     353     258  -2
   8   9  18     353     258   1
  -9 -18  -9     254     459  -2
   9   9  18     254     459   1
  10   9  18    1029    1011   1
  11   9  18    -258     386   1
  12   9  18     926     686   1
  13   9  18     377     549   1
   2  10  18     720     549   1
   3  10  18     103     549   1
   4  10  18    2777     891   1
   5  10  18    -754     754   1
   6  10  18    1572     680   1
   7  10  18     165     333   1
  -8 -18 -10     364     241  -2
   8  10  18     364     241   1
  -9 -18 -10    1457     651  -2
   9  10  18    1457     651   1
  10  10  18     384     459   1
  11  10  18    -361     361   1
  12  10  18    -480     480   1
   4  11  18    -446     446   1
   5  11  18    6616    1063   1
   6  11  18    -329     329   1
   7  11  18     179     429   1
  -8 -18 -11     274     789  -2
   8  11  18     274     789   1
  -9 -18 -11     487     361  -2
   9  11  18     487     361   1
 -10 -18 -11    -107     583  -2
  10  11  18    -107     583   1
  11  11  18     240     446   1
   5  12  18    -343     377   1
   6  12  18     240     480   1
   7  12  18    1440     411   1
  -8 -18 -12     446     514  -2
   8  12  18     446     514   1
  -9 -18 -12    4079     891  -2
   9  12  18    4079     891   1
 -10 -18 -12    -343     377  -2
  10  12  18    -343     377   1
   2  -7  19     570     404   1
   3  -7  19     726     393   1
  -4 -19   7     960     377  -2
   4  -7  19     960     377   1
   5  -7  19    5573     628   1
  -1  -6  19    1646     583   1
   0  -6  19     926     377   1
   1  -6  19     182     232   1
   2  -6  19    1229     566   1
   3  -6  19     224     480   1
  -4 -19   6     699     425  -2
   4  -6  19     699     425   1
   5  -6  19    2560     507   1
   6  -6  19      34     686   1
   7  -6  19    2023     720   1
  -1  -5  19     206     617   1
   0  -5  19     132     583   1
   1  -5  19     535     464   1
   2  -5  19     734     304   1
   3  -5  19     284     507   1
  -4 -19   5     954     514  -2
   4  -5  19     954     514   1
   5  -5  19    1055     535   1
   6  -5  19    1097     343   1
   7  -5  19     823     857   1
   8  -5  19      34     583   1
  -2  -4  19     857     514   1
  -1  -4  19    2125     823   1
   0  -4  19     994     754   1
   1  -4  19    1109     405   1
   2  -4  19    -252     321   1
   3  -4  19     896     274   1
   4  -4  19     609     625   1
  -5 -19   4    1699     629  -2
   5  -4  19    1699     629   1
   6  -4  19    1133     669   1
   7  -4  19     605     289   1
   8  -4  19    1474     823   1
   9  -4  19     377     720   1
  -2  -3  19    -316     405   1
  -1  -3  19    -113    1354   1
   0  -3  19     309     497   1
   1  -3  19    4183     702   1
   2  -3  19     547     399   1
   3  -3  19    1459     376   1
   4  -3  19    1453     609   1
  -5 -19   3    1349     564  -2
   5  -3  19    1349     564   1
   6  -3  19    6052     960   1
   7  -3  19     406     423   1
   8  -3  19    -446     789   1
   9  -3  19       0     754   1
  10  -3  19    2468     823   1
  -2  -2  19    4079     994   1
  -1  -2  19     823     436   1
   0  -2  19    -189     412   1
   1  -2  19     409     392   1
   2  -2  19    2770     596   1
   3  -2  19    -209     445   1
   4  -2  19    1324     330   1
  -5 -19   2    4075     658  -2
   5  -2  19    4075     658   1
   6  -2  19     847     488   1
   7  -2  19     435     545   1
   8  -2  19     149     290   1
   9  -2  19    2023     891   1
  10  -2  19     137     754   1
  -2  -1  19     856     476   1
  -1  -1  19     835     703   1
   0  -1  19    -241     960   1
   1  -1  19    2778     640   1
   2  -1  19    1583     737   1
   3  -1  19     552     465   1
   4  -1  19   11296     845   1
   5  -1  19    1787     750   1
  -6 -19   1    2603     626  -2
   6  -1  19    2603     626   1
   7  -1  19     168     417   1
   8  -1  19    3616     459   1
   9  -1  19     617     891   1
  10  -1  19     480     823   1
  11  -1  19     789     789   1
  -2   0  19    -296     296   1
  -1   0  19     373     448   1
   0   0  19    -309     461   1
   1   0  19     562     583   1
   2   0  19    7424     893   1
   3   0  19     994     493   1
   4   0  19     589     648   1
   5   0  19    2649     609   1
  -6 -19   0    1695     641  -2
   6   0  19    1695     641   1
   7   0  19     683     565   1
   8   0  19    2212     460   1
   9   0  19    -216     943   1
  10   0  19    1586     659   1
  11   0  19     -34     720   1
  12   0  19     480     651   1
  -2   1  19     753     266   1
  -1   1  19     615     220   1
   0   1  19    -377     485   1
   1   1  19    1152     633   1
   2   1  19    1057     750   1
   3   1  19     464     541   1
   4   1  19    7316     957   1
   5   1  19     -20     366   1
  -6 -19  -1      87     531  -2
   6   1  19      87     531   1
   7   1  19    -410     453   1
   8   1  19     345     427   1
   9   1  19    2097     446   1
  10   1  19    1719     533   1
  11   1  19    2549    1080   1
  12   1  19     583     720   1
  -2   2  19    4185     463   1
  -1   2  19       6     193   1
   0   2  19    -543     543   1
   1   2  19    1009     761   1
   2   2  19    1183    1097   1
   3   2  19    2719     505   1
   4   2  19    6679     730   1
   5   2  19    2644     672   1
  -6 -19  -2      69     556  -2
   6   2  19      69     556   1
  -7 -19  -2    3764     774  -2
   7   2  19    3764     774   1
   8   2  19    1466     556   1
   9   2  19     391     382   1
  10   2  19     130     651   1
  11   2  19    -453     453   1
  12   2  19     -76     420   1
  -1   3  19     721     247   1
   0   3  19    -379     478   1
   1   3  19    1141     545   1
   2   3  19     844     639   1
   3   3  19     723     510   1
   4   3  19   13295    1141   1
   5   3  19    2139     503   1
   6   3  19    4339     933   1
  -7 -19  -3     718     519  -2
   7   3  19     718     519   1
   8   3  19     408     566   1
   9   3  19    1609     550   1
  10   3  19     358    1474   1
  11   3  19    6050    3051   1
  12   3  19     407     463   1
  -1   4  19    1195     205   1
   0   4  19     -90     686   1
   1   4  19     151     707   1
   2   4  19     945     560   1
   3   4  19     617     562   1
   4   4  19    2522     561   1
   5   4  19    1565     463   1
   6   4  19    3285     445   1
  -7 -19  -4    2323     702  -2
   7   4  19    2323     702   1
   8   4  19    4191    1063   1
   9   4  19    4300     596   1
  10   4  19     -31     324   1
  11   4  19    -453     453   1
  12   4  19     752     472   1
  -1   5  19    -274     514   1
   0   5  19     -53     400   1
   1   5  19     728     585   1
   2   5  19     733     601   1
   3   5  19     404     625   1
   4   5  19       6     514   1
   5   5  19     697     528   1
   6   5  19    7796     756   1
  -7 -19  -5    -246     511  -2
   7   5  19    -246     511   1
  -8 -19  -5    1460     533  -2
   8   5  19    1460     533   1
   9   5  19     526     703   1
  10   5  19    1290     720   1
  11   5  19    2914     891   1
  12   5  19     143     420   1
   0   6  19     274     549   1
   1   6  19    1042     519   1
   2   6  19    2660     625   1
   3   6  19     211     874   1
   4   6  19    3637     613   1
   5   6  19    3865     604   1
   6   6  19      49     412   1
  -7 -19  -6     396     741  -2
   7   6  19     396     741   1
  -8 -19  -6    4509     775  -2
   8   6  19    4509     775   1
   9   6  19    1271     560   1
  10   6  19    1696    1320   1
  11   6  19    -377     720   1
  12   6  19     651     651   1
   1   7  19    1817     549   1
   2   7  19     -78     444   1
   3   7  19     300     497   1
   4   7  19    1182     489   1
   5   7  19     298     463   1
   6   7  19    2185     468   1
   7   7  19    -113     625   1
  -8 -19  -7   10627    1543  -2
   8   7  19   10627    1543   1
   9   7  19     401     497   1
  10   7  19      15     583   1
  11   7  19    1303     994   1
  12   7  19    -617     617   1
   2   8  19     -69     480   1
   3   8  19    1886     436   1
   4   8  19     845     703   1
   5   8  19     302     369   1
   6   8  19     208     288   1
   7   8  19    4055     698   1
  -8 -19  -8     651     651  -2
   8   8  19     651     651   1
  -9 -19  -8     823     485  -2
   9   8  19     823     485   1
  10   8  19    1566     384   1
  11   8  19    -171     651   1
  12   8  19     274     549   1
   3   9  19    4388     891   1
   4   9  19    1097     514   1
   5   9  19    1561     377   1
   6   9  19    2910    1082   1
   7   9  19      52     469   1
  -8 -19  -9     754     456  -2
   8   9  19     754     456   1
  -9 -19  -9     770     404  -2
   9   9  19     770     404   1
  10   9  19    -118     386   1
  11   9  19    1440     686   1
   5  10  19     480     343   1
   6  10  19     477     291   1
   7  10  19    1303     583   1
  -8 -19 -10     789     514  -2
   8  10  19     789     514   1
  -9 -19 -10    -343     446  -2
   9  10  19    -343     446   1
  10  10  19    1063     480   1
   3  -5  20     720     480   1
   4  -5  20    -514     514   1
   2  -4  20    -514     514   1
   3  -4  20     686     720   1
   4  -4  20     579     480   1
  -5 -20   4    1376     377  -2
   5  -4  20    1376     377   1
   6  -4  20     374     703   1
   1  -3  20     514     411   1
   2  -3  20    -286     429   1
   3  -3  20    1611     686   1
   4  -3  20    -103     502   1
  -5 -20   3     643     393  -2
   5  -3  20     643     393   1
   6  -3  20    1186     418   1
   7  -3  20     960     617   1
   0  -2  20    1166     411   1
   1  -2  20     857     514   1
   2  -2  20     494     282   1
   3  -2  20     408     857   1
   4  -2  20    2911     799   1
   5  -2  20     411     412   1
   6  -2  20     850    1046   1
   7  -2  20    -217     446   1
   8  -2  20       0     686   1
   0  -1  20     135     651   1
   1  -1  20    -115     429   1
   2  -1  20    4540     633   1
   3  -1  20    -288     288   1
   4  -1  20    2842     943   1
   5  -1  20     428     618   1
  -6 -20   1     848     366  -2
   6  -1  20     848     366   1
   7  -1  20     592     256   1
   8  -1  20    -549     651   1
   9  -1  20     103     686   1
   0   0  20     -32     404   1
   1   0  20     128     404   1
   2   0  20     343     365   1
   3   0  20    6956     872   1
   4   0  20     444     453   1
   5   0  20    2662     789   1
  -6 -20   0     405    1303  -2
   6   0  20     405    1303   1
   7   0  20     563     312   1
   8   0  20    1148     529   1
   9   0  20    1406     754   1
   0   1  20    -159     337   1
   1   1  20    1000     497   1
   2   1  20    -415     415   1
   3   1  20    1659     442   1
   4   1  20     833     317   1
   5   1  20    1129     483   1
  -6 -20  -1    -135     617  -2
   6   1  20    -135     617   1
   7   1  20     381     459   1
   8   1  20    -234     278   1
   9   1  20     255     420   1
   0   2  20    1624     410   1
   1   2  20    1024     411   1
   2   2  20     206     485   1
   3   2  20    1649     799   1
   4   2  20     266     312   1
   5   2  20    3218     683   1
   6   2  20   10234    1147   1
  -7 -20  -2    2962     594  -2
   7   2  20    2962     594   1
   8   2  20     -65     617   1
   9   2  20     248     480   1
  10   2  20     583     514   1
   1   3  20     180     375   1
   2   3  20     421     507   1
   3   3  20     795     409   1
   4   3  20     -27     575   1
   5   3  20    1117     943   1
   6   3  20    1335     493   1
  -7 -20  -3     247     507  -2
   7   3  20     247     507   1
   8   3  20     -85     600   1
   9   3  20    4122     891   1
  10   3  20     891     583   1
   1   4  20     144     371   1
   2   4  20     909     720   1
   3   4  20     433     332   1
   4   4  20    6292     775   1
   5   4  20     231     272   1
   6   4  20    -320     566   1
  -7 -20  -4    -160     484  -2
   7   4  20    -160     484   1
   8   4  20    1228     472   1
   9   4  20    4004    1388   1
  10   4  20      34     651   1
  11   4  20    -514     514   1
   2   5  20     534     346   1
   3   5  20    1391     634   1
   4   5  20    -331     331   1
   5   5  20     236     583   1
   6   5  20    3468     600   1
   7   5  20    2689    1766   1
  -8 -20  -5     257     461  -2
   8   5  20     257     461   1
   9   5  20    1579     399   1
  10   5  20     686     651   1
   3   6  20     103     549   1
   4   6  20     736     272   1
   5   6  20    1416     300   1
   6   6  20    -105     420   1
   7   6  20    2164     502   1
  -8 -20  -6    1351     418  -2
   8   6  20    1351     418   1
   9   6  20    3141     511   1
  10   6  20    2091     720   1
   4   7  20     -18     242   1
   5   7  20     319     221   1
   6   7  20     154     388   1
   7   7  20     885     531   1
  -8 -20  -7    1269     379  -2
   8   7  20    1269     379   1
   9   7  20      67     269   1
  10   7  20    -240     549   1
   6   8  20     -69     514   1
   7   8  20    1543     514   1
  -8 -20  -8    4449     594  -2
   8   8  20    4449     594   1
  -9 -20  -8     960     480  -2
   9   8  20     960     480   1
   5   0  21    2880     754   1
   6   0  21     891     343   1
   5   1  21    1543     686   1
   6   1  21    1126     329   1
  -7 -21  -1    1303     377  -2
   7   1  21    1303     377   1
   5   2  21    -121     337   1
   6   2  21     135     312   1
  -7 -21  -2     103     274  -2
   7   2  21     103     274   1
   5   3  21     323     411   1
   6   3  21     142     480   1
  -7 -21  -3     734     361  -2
   7   3  21     734     361   1
   6   4  21    2537     720   1
;
_shelx_hkl_checksum   43484

