data_k15136s 
 
_audit_creation_method            'SHELXL-2014/7 and CIFFIX' 
# CIF edited on-the-fly by script CIFFIX (S. Parkin, 2000-2014). 
# CIFFIX: http://xray.uky.edu/people/parkin/programs/ciffix 
_audit_update_record              ? 
 
_shelx_SHELXL_version_number      '2014/7' 
 
_publ_section_exptl_refinement 
; 
H atoms were found in difference Fourier maps, but subsequently included 
in the refinement using riding models, with constrained distances set to 
0.95 %A (C~sp2~H), 0.98 %A (RCH~3~) and 0.99 %A (R~2~CH~2~).  U~iso~(H) 
parameters were set to values of either 1.2U~eq~ or 1.5U~eq~ (RCH~3~ only) 
of the attached atom. 
 
To ensure satisfactory refinement for disordered groups in the structure, 
a combination of constraints and restraints were employed. The constraints 
(SHELXL commands EXYZ and EADP) were used to fix overlapping fragments. 
Restraints were used to ensure the integrity of ill-defined or disordered 
groups (SHELXL commands SAME and RIGU). 
; 
 
_publ_section_references 
; 
Hope, H. (1994). 
  <i>Prog. Inorg. Chem.</i> <b>41</b>, 1--19. 
 
Krause, L., Herbst-Irmer, R., Sheldrick, G.M. & Stalke, D. (2015). 
  <i>J. Appl. Cryst.</i> <b>48</b>, 3--10. 
 
Nonius (1998). 
  <i>Collect</i> Nonius BV, Delft, The Netherlands. 
 
Otwinowski, Z. & Minor, W. (2006). 
  <i>International Tables for Crystallography</i>, Vol. F, ch. 11.4, 226--235. 
 
Parkin, S. & Hope, H. (1998). 
  <i>J. Appl. Cryst.</i> <b>31</b>, 945--953. 
 
Parkin, S. (2000). 
  <i>Acta Cryst.</i> A<b>56</b>, 157--162. 
 
Parkin, S. (2013). 
  <i>CIFFIX</i>, http://xray.uky.edu/people/parkin/programs/ciffix 
 
Sheldrick, G.M. (2008). 
  <i>Acta Cryst.</i> A<b>64</b>, 112--122. 
 
Sheldrick, G.M. (2015a). 
  <i>Acta Cryst.</i> A<b>71</b>, 3--8. 
 
Sheldrick, G.M. (2015b). 
  <i>Acta Cryst.</i> C<b>71</b>, 3--8. 
 
Spek, A.L. (2009). 
  <i>Acta Cryst.</i> D<b>65</b>, 148--155. 
; 
 
_publ_section_acknowledgements 
; 
The kappaCCD diffractometer was funded by the University of Kentucky. 
; 
 
_chemical_name_systematic         ? 
_chemical_name_common             ? 
_chemical_melting_point           ? 
_chemical_formula_moiety          'C32 H46 S2 Si2' 
_chemical_formula_sum             'C32 H46 S2 Si2' 
_chemical_formula_weight          550.99 
 
loop_ 
 _atom_type_symbol 
 _atom_type_description 
 _atom_type_scat_dispersion_real 
 _atom_type_scat_dispersion_imag 
 _atom_type_scat_source 
 'C'  'C'   0.0033   0.0016 
 'International Tables Vol C Tables 4.2.6.8 and 6.1.1.4' 
 'H'  'H'   0.0000   0.0000 
 'International Tables Vol C Tables 4.2.6.8 and 6.1.1.4' 
 'Si'  'Si'   0.0817   0.0704 
 'International Tables Vol C Tables 4.2.6.8 and 6.1.1.4' 
 'S'  'S'   0.1246   0.1234 
 'International Tables Vol C Tables 4.2.6.8 and 6.1.1.4' 
 
_space_group_crystal_system       monoclinic 
_space_group_IT_number            14 
_space_group_name_H-M_alt         'P 21/n' 
_space_group_name_Hall            '-P 2yn' 
 
_shelx_space_group_comment 
; 
The symmetry employed for this shelxl refinement is uniquely defined 
by the following loop, which should always be used as a source of 
symmetry information in preference to the above space-group names. 
They are only intended as comments. 
; 
 
loop_ 
 _space_group_symop_operation_xyz 
 'x, y, z' 
 '-x+1/2, y+1/2, -z+1/2' 
 '-x, -y, -z' 
 'x-1/2, -y-1/2, z-1/2' 
 
_cell_length_a                    9.0677(4) 
_cell_length_b                    12.1740(5) 
_cell_length_c                    15.7028(6) 
_cell_angle_alpha                 90 
_cell_angle_beta                  103.959(2) 
_cell_angle_gamma                 90 
_cell_volume                      1682.24(12) 
_cell_formula_units_Z             2 
_cell_measurement_temperature     150(2) 
_cell_measurement_reflns_used     4013 
_cell_measurement_theta_min       0.41 
_cell_measurement_theta_max       27.48 
 
_exptl_crystal_description        block 
_exptl_crystal_colour             yellow 
_exptl_crystal_density_meas       ? 
_exptl_crystal_density_method     ? 
_exptl_crystal_density_diffrn     1.088 
_exptl_crystal_F_000              596 
_exptl_transmission_factor_min    ? 
_exptl_transmission_factor_max    ? 
_exptl_crystal_size_max           0.480 
_exptl_crystal_size_mid           0.260 
_exptl_crystal_size_min           0.210 
_exptl_absorpt_coefficient_mu     0.247 
_shelx_estimated_absorpt_T_min    0.890 
_shelx_estimated_absorpt_T_max    0.950 
_exptl_absorpt_correction_type    multi-scan 
_exptl_absorpt_correction_T_min   0.514 
_exptl_absorpt_correction_T_max   0.862 
_exptl_absorpt_process_details    '<i>SADABS</i> (Krause et al., 2015)' 
_exptl_absorpt_special_details 
; 
In addition to absorption, multi-scan techniques also correct other slowly 
varying changes in scale factor over reciprocal space, such as those caused 
by x-ray beam inhomogeneity, goniometer imperfection, crystal decomposition, 
crystal longer than the x-ray beam cross section, absorption by the crystal 
mount etc.  These account, by and large, for much of the difference between 
estimated values of Tmin and Tmax and the _exptl_absorpt_correction_ values. 
; 
 
_exptl_special_details 
; 
The crystal was mounted using polyisobutene oil on the tip of a fine glass 
fibre, which was fastened in a copper mounting pin with electrical solder. 
It was placed directly into the cold gas stream of a liquid-nitrogen based 
cryostat (Hope, 1994; Parkin & Hope, 1998). 
 
The crystals underwent a destructive phase transition when cooled to 90K. 
Visual inspection of crystal integrity and diffraction quality vs temperature 
established a safe temperature for data collection of -123\% C. 
; 
 
_diffrn_ambient_temperature       150(2) 
_diffrn_radiation_wavelength      0.71073 
_diffrn_radiation_type            MoK\a 
_diffrn_source                    'fine-focus sealed-tube' 
_diffrn_measurement_device_type   'Nonius KappaCCD diffractometer' 
_diffrn_measurement_method        '\f and \w scans at fixed \c = 55\%' 
_diffrn_detector_area_resol_mean  9.1 
_diffrn_reflns_number             27113 
_diffrn_reflns_av_unetI/netI      0.0475 
_diffrn_reflns_av_R_equivalents   0.0814 
_diffrn_reflns_limit_h_min        -11 
_diffrn_reflns_limit_h_max        11 
_diffrn_reflns_limit_k_min        -15 
_diffrn_reflns_limit_k_max        15 
_diffrn_reflns_limit_l_min        -20 
_diffrn_reflns_limit_l_max        20 
_diffrn_reflns_theta_min          2.141 
_diffrn_reflns_theta_max          27.544 
_diffrn_reflns_theta_full         25.242 
_diffrn_measured_fraction_theta_max                0.996 
_diffrn_measured_fraction_theta_full               1.000 
_diffrn_reflns_Laue_measured_fraction_max          0.996 
_diffrn_reflns_Laue_measured_fraction_full         1.000 
_diffrn_reflns_point_group_measured_fraction_max   0.996 
_diffrn_reflns_point_group_measured_fraction_full  1.000 
 
_reflns_number_total              3867 
_reflns_number_gt                 2494 
_reflns_threshold_expression      'I > 2\s(I)' 
_reflns_Friedel_coverage          0.000 
_reflns_Friedel_fraction_max      . 
_reflns_Friedel_fraction_full     . 
_reflns_special_details 
; 
Reflections were merged by SHELXL according to the crystal 
class for the calculation of statistics and refinement. 
 
_reflns_Friedel_fraction is defined as the number of unique 
Friedel pairs measured divided by the number that would be 
possible theoretically, ignoring centric projections and 
systematic absences. 
; 
 
_computing_data_collection        '<i>COLLECT</i> (Nonius, 1998)' 
_computing_cell_refinement        '<i>SCALEPACK</i> (Otwinowski & Minor, 2006)' 
_computing_data_reduction         '<i>DENZO-SMN</i> (Otwinowski & Minor, 2006)' 
_computing_structure_solution     '<i>SHELXT</i> (Sheldrick, 2015a)' 
_computing_structure_refinement   '<i>SHELXL-2014/7</i> (Sheldrick, 2015b)' 
_computing_molecular_graphics     '<i>XP in SHELXTL</i> (Sheldrick, 2008)' 
_computing_publication_material 
'<i>SHELX</i> (Sheldrick, 2008) and <i>CIFFIX</i> (Parkin, 2013)' 
 
_refine_special_details 
; 
Refinement progress was checked using <i>Platon</i> (Spek, 2009) and by 
an <i>R</i>-tensor (Parkin, 2000). The final model was further checked 
with the IUCr utility <i>checkCIF</i>. 
; 
_refine_ls_structure_factor_coef  Fsqd 
_refine_ls_matrix_type            full 
_refine_ls_weighting_scheme       calc 
_refine_ls_weighting_details 
'w=1/[\s^2^(Fo^2^)+(0.1237P)^2^+0.1195P] where P=(Fo^2^+2Fc^2^)/3' 
_atom_sites_solution_primary      direct 
_atom_sites_solution_secondary    difmap 
_atom_sites_solution_hydrogens    difmap 
_refine_ls_hydrogen_treatment     constr 
_refine_ls_extinction_method      none 
_refine_ls_extinction_coef        . 
_refine_ls_number_reflns          3867 
_refine_ls_number_parameters      203 
_refine_ls_number_restraints      196 
_refine_ls_R_factor_all           0.0997 
_refine_ls_R_factor_gt            0.0636 
_refine_ls_wR_factor_ref          0.2000 
_refine_ls_wR_factor_gt           0.1712 
_refine_ls_goodness_of_fit_ref    1.034 
_refine_ls_restrained_S_all       1.042 
_refine_ls_shift/su_max           0.000 
_refine_ls_shift/su_mean          0.000 
 
loop_ 
 _atom_site_label 
 _atom_site_type_symbol 
 _atom_site_fract_x 
 _atom_site_fract_y 
 _atom_site_fract_z 
 _atom_site_U_iso_or_equiv 
 _atom_site_adp_type 
 _atom_site_occupancy 
 _atom_site_site_symmetry_order 
 _atom_site_calc_flag 
 _atom_site_refinement_flags_posn 
 _atom_site_refinement_flags_adp 
 _atom_site_refinement_flags_occupancy 
 _atom_site_disorder_assembly 
 _atom_site_disorder_group 
C1 C 0.5408(2) 0.59467(15) 0.55515(12) 0.0419(5) Uani 1 1 d . . . . . 
C2 C 0.6314(2) 0.55759(16) 0.50140(13) 0.0421(5) Uani 0.8020(19) 1 d D U P A 1 
S3 S 0.80318(9) 0.61464(9) 0.49488(8) 0.0546(3) Uani 0.8020(19) 1 d D U P A 1 
C4 C 0.8251(6) 0.5157(4) 0.4191(4) 0.0580(9) Uani 0.8020(19) 1 d D U P A 1 
H4 H 0.9095 0.5127 0.3932 0.070 Uiso 0.8020(19) 1 calc R U P A 1 
C5 C 0.7080(12) 0.4432(9) 0.4011(6) 0.0517(11) Uani 0.8020(19) 1 d D U P A 1 
H5 H 0.7032 0.3837 0.3614 0.062 Uiso 0.8020(19) 1 calc R U P A 1 
C6 C 0.5935(2) 0.46380(16) 0.44647(12) 0.0427(5) Uani 0.8020(19) 1 d D U P A 1 
C2' C 0.6314(2) 0.55759(16) 0.50140(13) 0.0421(5) Uani 0.1980(19) 1 d D U P A 2 
C3' C 0.7608(19) 0.6028(16) 0.4877(14) 0.0546(3) Uani 0.1980(19) 1 d D U P A 2 
H3' H 0.8042 0.6684 0.5157 0.065 Uiso 0.1980(19) 1 calc R U P A 2 
C4' C 0.824(3) 0.5447(18) 0.4294(19) 0.0580(9) Uani 0.1980(19) 1 d D U P A 2 
H4' H 0.9167 0.5650 0.4159 0.070 Uiso 0.1980(19) 1 calc R U P A 2 
S5' S 0.7175(13) 0.4312(9) 0.3831(7) 0.0517(11) Uani 0.1980(19) 1 d D U P A 2 
C6' C 0.5935(2) 0.46380(16) 0.44647(12) 0.0427(5) Uani 0.1980(19) 1 d D U P A 2 
C7 C 0.5829(2) 0.68780(16) 0.61118(13) 0.0475(5) Uani 1 1 d . . . . . 
C8 C 0.6200(3) 0.76500(18) 0.65941(14) 0.0534(6) Uani 1 1 d . . . . . 
Si1 Si 0.68447(8) 0.88016(5) 0.73583(4) 0.0555(3) Uani 1 1 d D U . . . 
C9 C 0.7068(4) 0.8223(3) 0.8491(2) 0.0624(9) Uani 0.8020(19) 1 d D U P A 1 
H9A H 0.8059 0.7839 0.8658 0.075 Uiso 0.8020(19) 1 calc R U P A 1 
H9B H 0.7110 0.8843 0.8904 0.075 Uiso 0.8020(19) 1 calc R U P A 1 
C10 C 0.5840(4) 0.7430(3) 0.86190(19) 0.0642(8) Uani 0.8020(19) 1 d D U P A 1 
H10A H 0.4850 0.7816 0.8467 0.077 Uiso 0.8020(19) 1 calc R U P A 1 
H10B H 0.5782 0.6813 0.8201 0.077 Uiso 0.8020(19) 1 calc R U P A 1 
C11 C 0.6069(5) 0.6965(7) 0.9527(4) 0.0743(14) Uani 0.8020(19) 1 d D U P A 1 
H11A H 0.7079 0.6630 0.9704 0.111 Uiso 0.8020(19) 1 calc R U P A 1 
H11B H 0.5292 0.6407 0.9531 0.111 Uiso 0.8020(19) 1 calc R U P A 1 
H11C H 0.5986 0.7555 0.9937 0.111 Uiso 0.8020(19) 1 calc R U P A 1 
C12 C 0.5323(4) 0.9893(2) 0.71228(19) 0.0612(8) Uani 0.8020(19) 1 d D U P A 1 
H12A H 0.4409 0.9615 0.7294 0.073 Uiso 0.8020(19) 1 calc R U P A 1 
H12B H 0.5689 1.0549 0.7485 0.073 Uiso 0.8020(19) 1 calc R U P A 1 
C13 C 0.4883(5) 1.0228(4) 0.6150(3) 0.0767(13) Uani 0.8020(19) 1 d D U P A 1 
H13A H 0.5809 1.0500 0.5990 0.092 Uiso 0.8020(19) 1 calc R U P A 1 
H13B H 0.4550 0.9559 0.5797 0.092 Uiso 0.8020(19) 1 calc R U P A 1 
C14 C 0.3677(8) 1.1073(6) 0.5885(4) 0.0947(19) Uani 0.8020(19) 1 d D U P A 1 
H14A H 0.2710 1.0780 0.5960 0.142 Uiso 0.8020(19) 1 calc R U P A 1 
H14B H 0.3574 1.1269 0.5268 0.142 Uiso 0.8020(19) 1 calc R U P A 1 
H14C H 0.3951 1.1728 0.6252 0.142 Uiso 0.8020(19) 1 calc R U P A 1 
C15 C 0.8647(4) 0.9286(3) 0.7151(3) 0.0659(9) Uani 0.8020(19) 1 d D U P A 1 
H15A H 0.8438 0.9600 0.6552 0.079 Uiso 0.8020(19) 1 calc R U P A 1 
H15B H 0.9046 0.9886 0.7569 0.079 Uiso 0.8020(19) 1 calc R U P A 1 
C16 C 0.9881(5) 0.8408(4) 0.7232(4) 0.1061(15) Uani 0.8020(19) 1 d D U P A 1 
H16A H 1.0225 0.8184 0.7855 0.127 Uiso 0.8020(19) 1 calc R U P A 1 
H16B H 0.9439 0.7754 0.6890 0.127 Uiso 0.8020(19) 1 calc R U P A 1 
C17 C 1.1236(8) 0.8793(16) 0.6914(11) 0.118(4) Uani 0.8020(19) 1 d D U P A 1 
H17A H 1.0924 0.8943 0.6282 0.177 Uiso 0.8020(19) 1 calc R U P A 1 
H17B H 1.2020 0.8222 0.7026 0.177 Uiso 0.8020(19) 1 calc R U P A 1 
H17C H 1.1644 0.9466 0.7226 0.177 Uiso 0.8020(19) 1 calc R U P A 1 
C9' C 0.6369(17) 0.8458(12) 0.8363(8) 0.0624(9) Uani 0.1980(19) 1 d D U P A 2 
H9'1 H 0.6662 0.9077 0.8778 0.075 Uiso 0.1980(19) 1 calc R U P A 2 
H9'2 H 0.5253 0.8369 0.8249 0.075 Uiso 0.1980(19) 1 calc R U P A 2 
C10' C 0.7128(17) 0.741(1) 0.8798(8) 0.0642(8) Uani 0.1980(19) 1 d D U P A 2 
H10C H 0.7000 0.6830 0.8344 0.077 Uiso 0.1980(19) 1 calc R U P A 2 
H10D H 0.8232 0.7553 0.9006 0.077 Uiso 0.1980(19) 1 calc R U P A 2 
C11' C 0.656(3) 0.697(3) 0.9558(18) 0.0743(14) Uani 0.1980(19) 1 d D U P A 2 
H11D H 0.7129 0.6298 0.9782 0.111 Uiso 0.1980(19) 1 calc R U P A 2 
H11E H 0.6715 0.7518 1.0026 0.111 Uiso 0.1980(19) 1 calc R U P A 2 
H11F H 0.5479 0.6792 0.9361 0.111 Uiso 0.1980(19) 1 calc R U P A 2 
C12' C 0.6073(14) 1.0083(9) 0.6739(8) 0.0612(8) Uani 0.1980(19) 1 d D U P A 2 
H12C H 0.6282 1.0711 0.7151 0.073 Uiso 0.1980(19) 1 calc R U P A 2 
H12D H 0.6637 1.0212 0.6281 0.073 Uiso 0.1980(19) 1 calc R U P A 2 
C13' C 0.4403(18) 1.0072(18) 0.6307(15) 0.0767(13) Uani 0.1980(19) 1 d D U P A 
2 
H13C H 0.4314 0.9717 0.5730 0.092 Uiso 0.1980(19) 1 calc R U P A 2 
H13D H 0.3944 0.9554 0.6656 0.092 Uiso 0.1980(19) 1 calc R U P A 2 
C14' C 0.336(4) 1.104(3) 0.613(2) 0.0947(19) Uani 0.1980(19) 1 d D U P A 2 
H14D H 0.2329 1.0788 0.5844 0.142 Uiso 0.1980(19) 1 calc R U P A 2 
H14E H 0.3339 1.1395 0.6690 0.142 Uiso 0.1980(19) 1 calc R U P A 2 
H14F H 0.3712 1.1559 0.5753 0.142 Uiso 0.1980(19) 1 calc R U P A 2 
C15' C 0.9000(14) 0.8861(14) 0.7483(10) 0.0659(9) Uani 0.1980(19) 1 d D U P A 2 
H15C H 0.9362 0.9573 0.7761 0.079 Uiso 0.1980(19) 1 calc R U P A 2 
H15D H 0.9463 0.8278 0.7903 0.079 Uiso 0.1980(19) 1 calc R U P A 2 
C16' C 0.964(2) 0.8739(19) 0.6678(13) 0.1061(15) Uani 0.1980(19) 1 d D U P A 2 
H16C H 0.9429 0.9415 0.6318 0.127 Uiso 0.1980(19) 1 calc R U P A 2 
H16D H 0.9135 0.8117 0.6317 0.127 Uiso 0.1980(19) 1 calc R U P A 2 
C17' C 1.135(3) 0.854(8) 0.694(5) 0.118(4) Uani 0.1980(19) 1 d D U P A 2 
H17D H 1.1734 0.8463 0.6412 0.177 Uiso 0.1980(19) 1 calc R U P A 2 
H17E H 1.1851 0.9160 0.7290 0.177 Uiso 0.1980(19) 1 calc R U P A 2 
H17F H 1.1557 0.7864 0.7288 0.177 Uiso 0.1980(19) 1 calc R U P A 2 
 
loop_ 
 _atom_site_aniso_label 
 _atom_site_aniso_U_11 
 _atom_site_aniso_U_22 
 _atom_site_aniso_U_33 
 _atom_site_aniso_U_23 
 _atom_site_aniso_U_13 
 _atom_site_aniso_U_12 
C1 0.0526(12) 0.0298(10) 0.0364(10) 0.0020(8) -0.0029(9) 0.0003(8) 
C2 0.0484(11) 0.0331(10) 0.0392(10) 0.0056(8) 0.0001(8) -0.0021(8) 
S3 0.0500(6) 0.0467(5) 0.0638(5) 0.0047(3) 0.0076(5) -0.0079(4) 
C4 0.0572(14) 0.059(3) 0.058(2) 0.0023(19) 0.0146(13) 0.0048(18) 
C5 0.0612(14) 0.0484(19) 0.045(3) 0.0026(17) 0.0122(15) 0.0084(12) 
C6 0.0525(11) 0.0345(10) 0.0369(10) 0.0025(8) 0.0023(9) 0.0029(8) 
C2' 0.0484(11) 0.0331(10) 0.0392(10) 0.0056(8) 0.0001(8) -0.0021(8) 
C3' 0.0500(6) 0.0467(5) 0.0638(5) 0.0047(3) 0.0076(5) -0.0079(4) 
C4' 0.0572(14) 0.059(3) 0.058(2) 0.0023(19) 0.0146(13) 0.0048(18) 
S5' 0.0612(14) 0.0484(19) 0.045(3) 0.0026(17) 0.0122(15) 0.0084(12) 
C6' 0.0525(11) 0.0345(10) 0.0369(10) 0.0025(8) 0.0023(9) 0.0029(8) 
C7 0.0573(12) 0.0359(11) 0.0430(11) 0.0012(9) -0.0001(10) 0.0010(9) 
C8 0.0677(14) 0.0394(12) 0.0472(12) -0.0026(10) 0.0024(11) -0.0018(10) 
Si1 0.0708(5) 0.0373(4) 0.0500(4) -0.0099(3) -0.0016(3) -0.0038(3) 
C9 0.073(2) 0.056(2) 0.0503(16) -0.0109(13) 0.0001(17) -0.0040(17) 
C10 0.087(2) 0.0495(16) 0.0546(16) -0.0040(13) 0.0132(16) 0.0018(16) 
C11 0.086(4) 0.076(2) 0.0622(17) -0.0022(14) 0.020(3) 0.005(3) 
C12 0.083(2) 0.0452(15) 0.0527(17) -0.0075(13) 0.0103(14) 0.0027(14) 
C13 0.097(3) 0.059(2) 0.069(2) 0.0087(16) 0.011(2) 0.013(2) 
C14 0.118(4) 0.068(2) 0.092(5) 0.017(3) 0.013(3) 0.027(2) 
C15 0.0747(19) 0.054(2) 0.064(2) -0.0104(15) 0.0076(17) -0.0136(15) 
C16 0.073(2) 0.102(3) 0.138(4) 0.002(3) 0.013(3) 0.002(2) 
C17 0.096(3) 0.157(11) 0.106(3) -0.053(5) 0.030(2) -0.017(3) 
C9' 0.073(2) 0.056(2) 0.0503(16) -0.0109(13) 0.0001(17) -0.0040(17) 
C10' 0.087(2) 0.0495(16) 0.0546(16) -0.0040(13) 0.0132(16) 0.0018(16) 
C11' 0.086(4) 0.076(2) 0.0622(17) -0.0022(14) 0.020(3) 0.005(3) 
C12' 0.083(2) 0.0452(15) 0.0527(17) -0.0075(13) 0.0103(14) 0.0027(14) 
C13' 0.097(3) 0.059(2) 0.069(2) 0.0087(16) 0.011(2) 0.013(2) 
C14' 0.118(4) 0.068(2) 0.092(5) 0.017(3) 0.013(3) 0.027(2) 
C15' 0.0747(19) 0.054(2) 0.064(2) -0.0104(15) 0.0076(17) -0.0136(15) 
C16' 0.073(2) 0.102(3) 0.138(4) 0.002(3) 0.013(3) 0.002(2) 
C17' 0.096(3) 0.157(11) 0.106(3) -0.053(5) 0.030(2) -0.017(3) 
 
_geom_special_details 
; 
 All esds (except the esd in the dihedral angle between two l.s. planes) 
 are estimated using the full covariance matrix.  The cell esds are taken 
 into account individually in the estimation of esds in distances, angles 
 and torsion angles; correlations between esds in cell parameters are only 
 used when they are defined by crystal symmetry.  An approximate (isotropic) 
 treatment of cell esds is used for estimating esds involving l.s. planes. 
; 
 
loop_ 
 _geom_bond_atom_site_label_1 
 _geom_bond_atom_site_label_2 
 _geom_bond_distance 
 _geom_bond_site_symmetry_2 
 _geom_bond_publ_flag 
C1 C2' 1.388(3) . ? 
C1 C2 1.388(3) . ? 
C1 C6' 1.405(3) 3_666 ? 
C1 C6 1.405(3) 3_666 ? 
C1 C7 1.429(3) . ? 
C2 C6 1.422(3) . ? 
C2 S3 1.731(2) . ? 
S3 C4 1.738(4) . ? 
C4 C5 1.356(10) . ? 
C4 H4 0.9500 . ? 
C5 C6 1.416(8) . ? 
C5 H5 0.9500 . ? 
C6 C1 1.405(3) 3_666 ? 
C2' C3' 1.359(14) . ? 
C2' C6' 1.422(3) . ? 
C3' C4' 1.383(18) . ? 
C3' H3' 0.9500 . ? 
C4' S5' 1.740(17) . ? 
C4' H4' 0.9500 . ? 
S5' C6' 1.719(8) . ? 
C6' C1 1.405(3) 3_666 ? 
C7 C8 1.203(3) . ? 
C8 Si1 1.846(2) . ? 
Si1 C9' 1.783(12) . ? 
Si1 C15 1.839(3) . ? 
Si1 C9 1.878(3) . ? 
Si1 C12' 1.881(10) . ? 
Si1 C12 1.887(3) . ? 
Si1 C15' 1.918(12) . ? 
C9 C10 1.523(4) . ? 
C9 H9A 0.9900 . ? 
C9 H9B 0.9900 . ? 
C10 C11 1.500(5) . ? 
C10 H10A 0.9900 . ? 
C10 H10B 0.9900 . ? 
C11 H11A 0.9800 . ? 
C11 H11B 0.9800 . ? 
C11 H11C 0.9800 . ? 
C12 C13 1.538(5) . ? 
C12 H12A 0.9900 . ? 
C12 H12B 0.9900 . ? 
C13 C14 1.486(5) . ? 
C13 H13A 0.9900 . ? 
C13 H13B 0.9900 . ? 
C14 H14A 0.9800 . ? 
C14 H14B 0.9800 . ? 
C14 H14C 0.9800 . ? 
C15 C16 1.531(5) . ? 
C15 H15A 0.9900 . ? 
C15 H15B 0.9900 . ? 
C16 C17 1.509(13) . ? 
C16 H16A 0.9900 . ? 
C16 H16B 0.9900 . ? 
C17 H17A 0.9800 . ? 
C17 H17B 0.9800 . ? 
C17 H17C 0.9800 . ? 
C9' C10' 1.530(13) . ? 
C9' H9'1 0.9900 . ? 
C9' H9'2 0.9900 . ? 
C10' C11' 1.509(16) . ? 
C10' H10C 0.9900 . ? 
C10' H10D 0.9900 . ? 
C11' H11D 0.9800 . ? 
C11' H11E 0.9800 . ? 
C11' H11F 0.9800 . ? 
C12' C13' 1.503(15) . ? 
C12' H12C 0.9900 . ? 
C12' H12D 0.9900 . ? 
C13' C14' 1.494(16) . ? 
C13' H13C 0.9900 . ? 
C13' H13D 0.9900 . ? 
C14' H14D 0.9800 . ? 
C14' H14E 0.9800 . ? 
C14' H14F 0.9800 . ? 
C15' C16' 1.521(16) . ? 
C15' H15C 0.9900 . ? 
C15' H15D 0.9900 . ? 
C16' C17' 1.52(2) . ? 
C16' H16C 0.9900 . ? 
C16' H16D 0.9900 . ? 
C17' H17D 0.9800 . ? 
C17' H17E 0.9800 . ? 
C17' H17F 0.9800 . ? 
 
loop_ 
 _geom_angle_atom_site_label_1 
 _geom_angle_atom_site_label_2 
 _geom_angle_atom_site_label_3 
 _geom_angle 
 _geom_angle_site_symmetry_1 
 _geom_angle_site_symmetry_3 
 _geom_angle_publ_flag 
C2' C1 C6' 117.51(18) . 3_666 ? 
C2 C1 C6 117.51(18) . 3_666 ? 
C2' C1 C7 121.50(19) . . ? 
C2 C1 C7 121.50(19) . . ? 
C6' C1 C7 120.98(19) 3_666 . ? 
C6 C1 C7 120.98(19) 3_666 . ? 
C1 C2 C6 122.52(18) . . ? 
C1 C2 S3 125.37(16) . . ? 
C6 C2 S3 112.08(15) . . ? 
C2 S3 C4 90.88(16) . . ? 
C5 C4 S3 112.4(4) . . ? 
C5 C4 H4 123.8 . . ? 
S3 C4 H4 123.8 . . ? 
C4 C5 C6 114.3(6) . . ? 
C4 C5 H5 122.8 . . ? 
C6 C5 H5 122.8 . . ? 
C1 C6 C5 129.7(4) 3_666 . ? 
C1 C6 C2 119.98(18) 3_666 . ? 
C5 C6 C2 110.3(4) . . ? 
C3' C2' C1 128.7(8) . . ? 
C3' C2' C6' 108.7(8) . . ? 
C1 C2' C6' 122.52(18) . . ? 
C2' C3' C4' 114.0(14) . . ? 
C2' C3' H3' 123.0 . . ? 
C4' C3' H3' 123.0 . . ? 
C3' C4' S5' 114.0(12) . . ? 
C3' C4' H4' 123.0 . . ? 
S5' C4' H4' 123.0 . . ? 
C6' S5' C4' 87.0(7) . . ? 
C1 C6' C2' 119.98(18) 3_666 . ? 
C1 C6' S5' 123.9(4) 3_666 . ? 
C2' C6' S5' 116.1(4) . . ? 
C8 C7 C1 178.8(2) . . ? 
C7 C8 Si1 177.5(2) . . ? 
C9' Si1 C8 106.9(5) . . ? 
C15 Si1 C8 106.50(14) . . ? 
C15 Si1 C9 112.98(16) . . ? 
C8 Si1 C9 106.00(13) . . ? 
C9' Si1 C12' 120.8(6) . . ? 
C8 Si1 C12' 105.9(4) . . ? 
C15 Si1 C12 112.25(16) . . ? 
C8 Si1 C12 107.78(12) . . ? 
C9 Si1 C12 110.89(16) . . ? 
C9' Si1 C15' 112.1(7) . . ? 
C8 Si1 C15' 104.5(5) . . ? 
C12' Si1 C15' 105.3(6) . . ? 
C10 C9 Si1 116.6(2) . . ? 
C10 C9 H9A 108.2 . . ? 
Si1 C9 H9A 108.2 . . ? 
C10 C9 H9B 108.2 . . ? 
Si1 C9 H9B 108.2 . . ? 
H9A C9 H9B 107.3 . . ? 
C11 C10 C9 115.2(3) . . ? 
C11 C10 H10A 108.5 . . ? 
C9 C10 H10A 108.5 . . ? 
C11 C10 H10B 108.5 . . ? 
C9 C10 H10B 108.5 . . ? 
H10A C10 H10B 107.5 . . ? 
C10 C11 H11A 109.5 . . ? 
C10 C11 H11B 109.5 . . ? 
H11A C11 H11B 109.5 . . ? 
C10 C11 H11C 109.5 . . ? 
H11A C11 H11C 109.5 . . ? 
H11B C11 H11C 109.5 . . ? 
C13 C12 Si1 112.5(2) . . ? 
C13 C12 H12A 109.1 . . ? 
Si1 C12 H12A 109.1 . . ? 
C13 C12 H12B 109.1 . . ? 
Si1 C12 H12B 109.1 . . ? 
H12A C12 H12B 107.8 . . ? 
C14 C13 C12 117.3(4) . . ? 
C14 C13 H13A 108.0 . . ? 
C12 C13 H13A 108.0 . . ? 
C14 C13 H13B 108.0 . . ? 
C12 C13 H13B 108.0 . . ? 
H13A C13 H13B 107.2 . . ? 
C13 C14 H14A 109.5 . . ? 
C13 C14 H14B 109.5 . . ? 
H14A C14 H14B 109.5 . . ? 
C13 C14 H14C 109.5 . . ? 
H14A C14 H14C 109.5 . . ? 
H14B C14 H14C 109.5 . . ? 
C16 C15 Si1 115.1(3) . . ? 
C16 C15 H15A 108.5 . . ? 
Si1 C15 H15A 108.5 . . ? 
C16 C15 H15B 108.5 . . ? 
Si1 C15 H15B 108.5 . . ? 
H15A C15 H15B 107.5 . . ? 
C17 C16 C15 113.1(8) . . ? 
C17 C16 H16A 109.0 . . ? 
C15 C16 H16A 109.0 . . ? 
C17 C16 H16B 109.0 . . ? 
C15 C16 H16B 109.0 . . ? 
H16A C16 H16B 107.8 . . ? 
C16 C17 H17A 109.5 . . ? 
C16 C17 H17B 109.5 . . ? 
H17A C17 H17B 109.5 . . ? 
C16 C17 H17C 109.5 . . ? 
H17A C17 H17C 109.5 . . ? 
H17B C17 H17C 109.5 . . ? 
C10' C9' Si1 114.3(10) . . ? 
C10' C9' H9'1 108.7 . . ? 
Si1 C9' H9'1 108.7 . . ? 
C10' C9' H9'2 108.7 . . ? 
Si1 C9' H9'2 108.7 . . ? 
H9'1 C9' H9'2 107.6 . . ? 
C11' C10' C9' 116.8(15) . . ? 
C11' C10' H10C 108.1 . . ? 
C9' C10' H10C 108.1 . . ? 
C11' C10' H10D 108.1 . . ? 
C9' C10' H10D 108.1 . . ? 
H10C C10' H10D 107.3 . . ? 
C10' C11' H11D 109.5 . . ? 
C10' C11' H11E 109.5 . . ? 
H11D C11' H11E 109.5 . . ? 
C10' C11' H11F 109.5 . . ? 
H11D C11' H11F 109.5 . . ? 
H11E C11' H11F 109.5 . . ? 
C13' C12' Si1 115.7(11) . . ? 
C13' C12' H12C 108.3 . . ? 
Si1 C12' H12C 108.3 . . ? 
C13' C12' H12D 108.3 . . ? 
Si1 C12' H12D 108.3 . . ? 
H12C C12' H12D 107.4 . . ? 
C14' C13' C12' 127(2) . . ? 
C14' C13' H13C 105.5 . . ? 
C12' C13' H13C 105.5 . . ? 
C14' C13' H13D 105.5 . . ? 
C12' C13' H13D 105.5 . . ? 
H13C C13' H13D 106.1 . . ? 
C13' C14' H14D 109.5 . . ? 
C13' C14' H14E 109.5 . . ? 
H14D C14' H14E 109.5 . . ? 
C13' C14' H14F 109.5 . . ? 
H14D C14' H14F 109.5 . . ? 
H14E C14' H14F 109.5 . . ? 
C16' C15' Si1 119.7(11) . . ? 
C16' C15' H15C 107.4 . . ? 
Si1 C15' H15C 107.4 . . ? 
C16' C15' H15D 107.4 . . ? 
Si1 C15' H15D 107.4 . . ? 
H15C C15' H15D 106.9 . . ? 
C15' C16' C17' 111(3) . . ? 
C15' C16' H16C 109.4 . . ? 
C17' C16' H16C 109.4 . . ? 
C15' C16' H16D 109.4 . . ? 
C17' C16' H16D 109.4 . . ? 
H16C C16' H16D 108.0 . . ? 
C16' C17' H17D 109.5 . . ? 
C16' C17' H17E 109.5 . . ? 
H17D C17' H17E 109.5 . . ? 
C16' C17' H17F 109.5 . . ? 
H17D C17' H17F 109.5 . . ? 
H17E C17' H17F 109.5 . . ? 
 
loop_ 
 _geom_torsion_atom_site_label_1 
 _geom_torsion_atom_site_label_2 
 _geom_torsion_atom_site_label_3 
 _geom_torsion_atom_site_label_4 
 _geom_torsion 
 _geom_torsion_site_symmetry_1 
 _geom_torsion_site_symmetry_2 
 _geom_torsion_site_symmetry_3 
 _geom_torsion_site_symmetry_4 
 _geom_torsion_publ_flag 
C6 C1 C2 C6 -0.4(3) 3_666 . . . ? 
C7 C1 C2 C6 178.67(18) . . . . ? 
C6 C1 C2 S3 -178.33(15) 3_666 . . . ? 
C7 C1 C2 S3 0.8(3) . . . . ? 
C1 C2 S3 C4 178.5(3) . . . . ? 
C6 C2 S3 C4 0.4(3) . . . . ? 
C2 S3 C4 C5 -0.6(7) . . . . ? 
S3 C4 C5 C6 0.6(11) . . . . ? 
C4 C5 C6 C1 -178.9(5) . . . 3_666 ? 
C4 C5 C6 C2 -0.3(10) . . . . ? 
C1 C2 C6 C1 0.4(3) . . . 3_666 ? 
S3 C2 C6 C1 178.59(15) . . . 3_666 ? 
C1 C2 C6 C5 -178.3(5) . . . . ? 
S3 C2 C6 C5 -0.1(6) . . . . ? 
C6' C1 C2' C3' 176.1(13) 3_666 . . . ? 
C7 C1 C2' C3' -4.8(13) . . . . ? 
C6' C1 C2' C6' -0.4(3) 3_666 . . . ? 
C7 C1 C2' C6' 178.67(18) . . . . ? 
C1 C2' C3' C4' -179.9(17) . . . . ? 
C6' C2' C3' C4' -3(2) . . . . ? 
C2' C3' C4' S5' 3(3) . . . . ? 
C3' C4' S5' C6' -2(2) . . . . ? 
C3' C2' C6' C1 -176.7(11) . . . 3_666 ? 
C1 C2' C6' C1 0.4(3) . . . 3_666 ? 
C3' C2' C6' S5' 1.9(12) . . . . ? 
C1 C2' C6' S5' 179.0(5) . . . . ? 
C4' S5' C6' C1 178.3(11) . . . 3_666 ? 
C4' S5' C6' C2' -0.2(13) . . . . ? 
C15 Si1 C9 C10 -157.6(3) . . . . ? 
C8 Si1 C9 C10 -41.3(3) . . . . ? 
C12 Si1 C9 C10 75.4(3) . . . . ? 
Si1 C9 C10 C11 178.8(4) . . . . ? 
C15 Si1 C12 C13 63.8(3) . . . . ? 
C8 Si1 C12 C13 -53.2(3) . . . . ? 
C9 Si1 C12 C13 -168.8(3) . . . . ? 
Si1 C12 C13 C14 179.2(5) . . . . ? 
C8 Si1 C15 C16 -55.9(4) . . . . ? 
C9 Si1 C15 C16 60.0(4) . . . . ? 
C12 Si1 C15 C16 -173.7(3) . . . . ? 
Si1 C15 C16 C17 170.5(7) . . . . ? 
C8 Si1 C9' C10' 60.8(12) . . . . ? 
C12' Si1 C9' C10' -178.2(10) . . . . ? 
C15' Si1 C9' C10' -53.1(14) . . . . ? 
Si1 C9' C10' C11' -169.5(19) . . . . ? 
C9' Si1 C12' C13' -70.5(15) . . . . ? 
C8 Si1 C12' C13' 51.0(14) . . . . ? 
C15' Si1 C12' C13' 161.3(14) . . . . ? 
Si1 C12' C13' C14' 150(2) . . . . ? 
Si1 C15' C16' C17' -167(4) . . . . ? 
 
_refine_diff_density_max    0.819 
_refine_diff_density_min   -0.288 
_refine_diff_density_rms    0.061 
 
_shelx_res_file 
; 
 
    k15136s.res created by SHELXL-2014/7 
 
 
TITL k15136 : space group P21/n 
CELL  0.71073   9.0677  12.1740  15.7028   90.000  103.959   90.000 
ZERR        2   0.0004   0.0005   0.0006    0.000    0.002    0.000 
LATT  1 
SYMM 1/2-X, 1/2+Y, 1/2-Z 
SFAC C H SI S 
UNIT 64 92 4 4 
TEMP -123 
SIZE 0.48 0.26 0.21 
REM FORM block 
REM COLR yellow 
L.S. 10 
BOND $H 
LIST 4 
CONF 
HTAB 
ACTA 
HTAB 
FMAP 2 
PLAN 5 
REM EXTI    0.000000 not needed - refines to zero. 
WGHT    0.123700    0.119500 
FVAR       0.17996   0.80203 
C1    1    0.540766    0.594672    0.555152    11.00000    0.05261    0.02982 = 
         0.03644    0.00195   -0.00286    0.00030 
EXYZ C2 C2' 
EXYZ C6 C6' 
EADP C2 C2' 
EADP S3 C3' 
EADP C4 C4' 
EADP C5 S5' 
EADP C6 C6' 
SAME 0.020 C6' < C2' 
RIGU C2 > C6' 
PART 1 
C2    1    0.631445    0.557591    0.501399    21.00000    0.04844    0.03313 = 
         0.03924    0.00560    0.00014   -0.00208 
S3    4    0.803179    0.614639    0.494880    21.00000    0.05002    0.04673 = 
         0.06381    0.00472    0.00762   -0.00789 
C4    1    0.825067    0.515687    0.419086    21.00000    0.05722    0.05892 = 
         0.05827    0.00230    0.01462    0.00479 
AFIX  43 
H4    2    0.909466    0.512686    0.393191    21.00000   -1.20000 
AFIX   0 
C5    1    0.708006    0.443234    0.401093    21.00000    0.06121    0.04844 = 
         0.04519    0.00262    0.01220    0.00837 
AFIX  43 
H5    2    0.703240    0.383711    0.361398    21.00000   -1.20000 
AFIX   0 
C6    1    0.593476    0.463802    0.446472    21.00000    0.05247    0.03454 = 
         0.03686    0.00252    0.00231    0.00295 
PART 2 
C2'   1    0.631445    0.557591    0.501399   -21.00000    0.04844    0.03313 = 
         0.03924    0.00560    0.00014   -0.00208 
C3'   1    0.760807    0.602762    0.487709   -21.00000    0.05002    0.04673 = 
         0.06381    0.00472    0.00762   -0.00789 
AFIX  43 
H3'   2    0.804198    0.668385    0.515672   -21.00000   -1.20000 
AFIX   0 
C4'   1    0.823723    0.544728    0.429447   -21.00000    0.05722    0.05892 = 
         0.05827    0.00230    0.01462    0.00479 
AFIX  43 
H4'   2    0.916654    0.565039    0.415937   -21.00000   -1.20000 
AFIX   0 
S5'   4    0.717547    0.431214    0.383095   -21.00000    0.06121    0.04844 = 
         0.04519    0.00262    0.01220    0.00837 
C6'   1    0.593476    0.463802    0.446472   -21.00000    0.05247    0.03454 = 
         0.03686    0.00252    0.00231    0.00295 
PART 0 
C7    1    0.582901    0.687803    0.611179    11.00000    0.05728    0.03587 = 
         0.04305    0.00118   -0.00012    0.00098 
C8    1    0.620044    0.765003    0.659410    11.00000    0.06772    0.03944 = 
         0.04717   -0.00258    0.00236   -0.00184 
SAME 0.020 Si1 C9' C10' C11' C12' C13' C14' C15' C16' C17' 
RIGU Si1 > C17' 
EADP C9 C9' 
EADP C10 C10' 
EADP C11 C11' 
EADP C12 C12' 
EADP C13 C13' 
EADP C14 C14' 
EADP C15 C15' 
EADP C16 C16' 
EADP C17 C17' 
SI1   3    0.684474    0.880158    0.735834    11.00000    0.07083    0.03729 = 
         0.05000   -0.00990   -0.00161   -0.00383 
PART 1 
C9    1    0.706843    0.822266    0.849121    21.00000    0.07315    0.05606 = 
         0.05032   -0.01094    0.00007   -0.00403 
AFIX  23 
H9A   2    0.805892    0.783886    0.865807    21.00000   -1.20000 
H9B   2    0.711047    0.884338    0.890369    21.00000   -1.20000 
AFIX   0 
C10   1    0.584002    0.742966    0.861896    21.00000    0.08651    0.04949 = 
         0.05458   -0.00396    0.01321    0.00182 
AFIX  23 
H10A  2    0.485015    0.781570    0.846749    21.00000   -1.20000 
H10B  2    0.578207    0.681302    0.820116    21.00000   -1.20000 
AFIX   0 
C11   1    0.606920    0.696534    0.952658    21.00000    0.08610    0.07565 = 
         0.06225   -0.00216    0.02015    0.00479 
AFIX 137 
H11A  2    0.707941    0.662992    0.970436    21.00000   -1.50000 
H11B  2    0.529222    0.640737    0.953137    21.00000   -1.50000 
H11C  2    0.598567    0.755543    0.993686    21.00000   -1.50000 
AFIX   0 
C12   1    0.532260    0.989257    0.712278    21.00000    0.08265    0.04520 = 
         0.05267   -0.00747    0.01033    0.00270 
AFIX  23 
H12A  2    0.440908    0.961507    0.729406    21.00000   -1.20000 
H12B  2    0.568902    1.054859    0.748470    21.00000   -1.20000 
AFIX   0 
C13   1    0.488293    1.022762    0.614967    21.00000    0.09728    0.05890 = 
         0.06917    0.00867    0.01061    0.01271 
AFIX  23 
H13A  2    0.580882    1.050037    0.598961    21.00000   -1.20000 
H13B  2    0.455039    0.955881    0.579693    21.00000   -1.20000 
AFIX   0 
C14   1    0.367663    1.107300    0.588488    21.00000    0.11765    0.06803 = 
         0.09179    0.01657    0.01261    0.02732 
AFIX 137 
H14A  2    0.270967    1.077957    0.596017    21.00000   -1.50000 
H14B  2    0.357366    1.126901    0.526798    21.00000   -1.50000 
H14C  2    0.395119    1.172783    0.625188    21.00000   -1.50000 
AFIX   0 
C15   1    0.864697    0.928634    0.715110    21.00000    0.07470    0.05420 = 
         0.06411   -0.01043    0.00759   -0.01355 
AFIX  23 
H15A  2    0.843806    0.960003    0.655224    21.00000   -1.20000 
H15B  2    0.904563    0.988608    0.756910    21.00000   -1.20000 
AFIX   0 
C16   1    0.988098    0.840770    0.723247    21.00000    0.07254    0.10162 = 
         0.13811    0.00210    0.01350    0.00195 
AFIX  23 
H16A  2    1.022542    0.818380    0.785499    21.00000   -1.20000 
H16B  2    0.943929    0.775358    0.688980    21.00000   -1.20000 
AFIX   0 
C17   1    1.123617    0.879331    0.691371    21.00000    0.09552    0.15670 = 
         0.10557   -0.05285    0.03009   -0.01683 
AFIX 137 
H17A  2    1.092379    0.894250    0.628243    21.00000   -1.50000 
H17B  2    1.202049    0.822183    0.702575    21.00000   -1.50000 
H17C  2    1.164423    0.946597    0.722596    21.00000   -1.50000 
AFIX   0 
PART 2 
C9'   1    0.636909    0.845799    0.836292   -21.00000    0.07315    0.05606 = 
         0.05032   -0.01094    0.00007   -0.00403 
AFIX  23 
H9'1  2    0.666232    0.907705    0.877810   -21.00000   -1.20000 
H9'2  2    0.525319    0.836947    0.824878   -21.00000   -1.20000 
AFIX   0 
C10'  1    0.712833    0.741015    0.879791   -21.00000    0.08651    0.04949 = 
         0.05458   -0.00396    0.01321    0.00182 
AFIX  23 
H10C  2    0.699954    0.683032    0.834385   -21.00000   -1.20000 
H10D  2    0.823154    0.755318    0.900600   -21.00000   -1.20000 
AFIX   0 
C11'  1    0.656352    0.696567    0.955840   -21.00000    0.08610    0.07565 = 
         0.06225   -0.00216    0.02015    0.00479 
AFIX  33 
H11D  2    0.712917    0.629801    0.978239   -21.00000   -1.50000 
H11E  2    0.671543    0.751784    1.002565   -21.00000   -1.50000 
H11F  2    0.547909    0.679244    0.936116   -21.00000   -1.50000 
AFIX   0 
C12'  1    0.607316    1.008270    0.673904   -21.00000    0.08265    0.04520 = 
         0.05267   -0.00747    0.01033    0.00270 
AFIX  23 
H12C  2    0.628197    1.071134    0.715056   -21.00000   -1.20000 
H12D  2    0.663703    1.021248    0.628139   -21.00000   -1.20000 
AFIX   0 
C13'  1    0.440286    1.007151    0.630727   -21.00000    0.09728    0.05890 = 
         0.06917    0.00867    0.01061    0.01271 
AFIX  23 
H13C  2    0.431355    0.971670    0.572976   -21.00000   -1.20000 
H13D  2    0.394444    0.955400    0.665634   -21.00000   -1.20000 
AFIX   0 
C14'  1    0.335547    1.103642    0.613371   -21.00000    0.11765    0.06803 = 
         0.09179    0.01657    0.01261    0.02732 
AFIX  33 
H14D  2    0.232878    1.078834    0.584420   -21.00000   -1.50000 
H14E  2    0.333856    1.139470    0.669015   -21.00000   -1.50000 
H14F  2    0.371191    1.155927    0.575292   -21.00000   -1.50000 
AFIX   0 
C15'  1    0.900020    0.886065    0.748329   -21.00000    0.07470    0.05420 = 
         0.06411   -0.01043    0.00759   -0.01355 
AFIX  23 
H15C  2    0.936185    0.957265    0.776103   -21.00000   -1.20000 
H15D  2    0.946294    0.827833    0.790330   -21.00000   -1.20000 
AFIX   0 
C16'  1    0.964092    0.873934    0.667764   -21.00000    0.07254    0.10162 = 
         0.13811    0.00210    0.01350    0.00195 
AFIX  23 
H16C  2    0.942862    0.941500    0.631802   -21.00000   -1.20000 
H16D  2    0.913477    0.811712    0.631675   -21.00000   -1.20000 
AFIX   0 
C17'  1    1.134774    0.853869    0.694026   -21.00000    0.09552    0.15670 = 
         0.10557   -0.05285    0.03009   -0.01683 
AFIX  33 
H17D  2    1.173402    0.846337    0.641164   -21.00000   -1.50000 
H17E  2    1.185076    0.915992    0.728974   -21.00000   -1.50000 
H17F  2    1.155727    0.786361    0.728848   -21.00000   -1.50000 
PART 0 
 
AFIX   0 
HKLF 4 
 
REM  k15136 : space group P21/n 
REM R1 =  0.0636 for    2494 Fo > 4sig(Fo)  and  0.0997 for all    3867 data 
REM    203 parameters refined using    196 restraints 
 
END 
 
WGHT      0.1241      0.1124 
 
REM No hydrogen bonds found for HTAB generation 
 
REM Highest difference peak  0.819,  deepest hole -0.288,  1-sigma level  0.061 
Q1    1   0.9369  0.8974  0.6691  11.00000  0.05    0.29 
Q2    1   1.0318  0.8142  0.6796  11.00000  0.05    0.28 
Q3    1   0.5659  0.6196  0.9754  11.00000  0.05    0.28 
Q4    1   0.4946  1.0172  0.6786  11.00000  0.05    0.26 
Q5    1   0.6996  0.6426  1.0016  11.00000  0.05    0.26 
; 
_shelx_res_checksum   70934 
 
_shelx_hkl_file
;
   1   0   0   -0.02    0.02
  -1   0   0   -0.02    0.01
   1   0   0    0.00    0.01
  -1   0   0   -0.04    0.02
  -1   0   0   -0.02    0.02
   1   0   0    0.04    0.03
  -1   0   0   -0.04    0.02
   1   0   0   -0.02    0.02
   2   0   0   15.40    1.47
   2   0   0   16.47    1.49
  -2   0   0   16.08    1.43
   2   0   0   16.06    1.50
  -2   0   0   18.60    1.51
  -2   0   0   14.91    1.46
   2   0   0   14.73    1.55
  -2   0   0   17.35    1.47
   3   0   0    0.16    0.09
  -3   0   0   -0.04    0.06
   3   0   0   -0.12    0.06
  -3   0   0    0.16    0.06
   3   0   0   -0.02    0.04
   3   0   0    0.06    0.05
  -3   0   0    0.11    0.04
  -3   0   0    0.07    0.09
   4   0   0   32.55    3.13
   4   0   0   33.53    3.06
  -4   0   0   30.51    2.95
  -4   0   0   35.15    3.09
   4   0   0   32.97    3.58
   4   0   0   32.41    3.01
  -4   0   0   35.24    2.90
  -4   0   0   32.85    3.19
   5   0   0   -0.10    0.08
   5   0   0    0.08    0.12
  -5   0   0   -0.03    0.05
  -5   0   0   -0.01    0.09
   5   0   0    0.17    0.07
  -5   0   0   -0.04    0.08
  -5   0   0   -0.01    0.14
   5   0   0   -0.01    0.10
   6   0   0    8.19    0.92
  -6   0   0    9.09    0.92
   6   0   0    8.68    0.84
  -6   0   0    8.99    0.91
  -6   0   0    9.95    0.84
   6   0   0    8.93    0.80
   7   0   0   -0.06    0.09
  -7   0   0    0.08    0.14
   7   0   0    0.07    0.19
  -7   0   0    0.05    0.05
   7   0   0   -0.01    0.14
  -7   0   0   -0.32    0.16
   8   0   0    6.79    0.86
  -8   0   0    7.82    0.76
   8   0   0    8.66    0.77
   9   0   0   -0.39    0.35
   9   0   0   -0.16    0.19
  -9   0   0   -0.42    0.25
  -9   0   0    0.17    0.29
  10   0   0    5.82    0.53
 -10   0   0    4.32    0.55
 -10   0   0    5.30    0.57
  10   0   0    3.38    0.59
 -11   0   0    0.34    0.31
  11   0   0   -0.22    0.51
 -11   0   0    0.76    0.44
   0  -1   0   -0.17    0.01
   0  -1   0   -0.15    0.01
   0  -1   0   -0.14    0.02
   0   1   0   -0.18    0.02
   0   1   0   -0.15    0.02
   0   1   0   -0.16    0.01
  -1  -1   0    1.44    0.12
   1  -1   0    1.27    0.13
  -1  -1   0    1.13    0.11
  -1  -1   0    1.35    0.12
   1  -1   0    1.19    0.11
   1  -1   0    1.26    0.11
  -1  -1   0    1.21    0.12
   1  -1   0    1.25    0.11
  -1  -1   0    1.35    0.11
   1  -1   0    1.19    0.12
  -1   1   0    1.12    0.12
  -1   1   0    1.22    0.11
   1   1   0    1.50    0.14
   1   1   0    1.14    0.11
   1   1   0    1.12    0.12
  -1   1   0    1.03    0.11
   1   1   0    1.10    0.12
  -1   1   0    1.51    0.12
   1   1   0    1.48    0.14
  -2  -1   0  324.23   27.69
  -2  -1   0  306.76   25.71
   2  -1   0  288.52   26.79
  -2  -1   0  339.57   31.89
   2  -1   0  281.29   26.99
  -2  -1   0  299.34   28.64
  -2  -1   0  261.45   25.17
   2  -1   0  305.10   26.25
   2  -1   0  260.89   24.99
  -2   1   0  245.24   25.27
  -2   1   0  292.93   25.49
   2   1   0  312.62   29.68
   2   1   0  309.62   26.34
   2   1   0  294.22   26.78
  -2   1   0  331.53   29.29
   2   1   0  260.26   29.06
  -2   1   0  307.08   25.72
  -3  -1   0   18.54    1.64
   3  -1   0   19.36    1.83
  -3  -1   0   18.84    1.77
   3  -1   0   16.45    1.64
  -3  -1   0   21.45    1.76
   3  -1   0   19.15    1.69
  -3  -1   0   24.07    2.00
   3  -1   0   19.29    1.75
  -3   1   0   17.51    1.67
  -3   1   0   16.73    1.64
   3   1   0   18.52    1.74
  -3   1   0   21.30    1.68
   3   1   0   18.99    1.88
   3   1   0   19.50    1.77
   3   1   0   21.96    2.09
  -4  -1   0    4.22    0.37
  -4  -1   0    4.31    0.35
   4  -1   0    3.83    0.35
  -4  -1   0    4.36    0.41
   4  -1   0    3.66    0.36
  -4  -1   0    3.46    0.37
   4  -1   0    3.85    0.38
  -4   1   0    4.36    0.39
   4   1   0    3.70    0.36
   4   1   0    3.85    0.38
  -4   1   0    4.13    0.36
  -4   1   0    3.33    0.36
   4   1   0    3.67    0.37
   4   1   0    4.48    0.44
  -5  -1   0   81.32    8.74
  -5  -1   0   86.43    8.16
   5  -1   0   69.29    7.29
   5  -1   0   65.81    6.67
  -5  -1   0   74.74    6.51
   5  -1   0   69.18    6.45
   5  -1   0   75.90    7.02
  -5  -1   0   79.53    7.08
  -5   1   0   72.12    6.76
   5   1   0   71.48    7.53
   5   1   0   77.55    7.23
  -5   1   0   78.91    6.49
   5   1   0   75.10    6.82
   5   1   0   79.43    7.98
  -5   1   0   73.37    7.44
  -6  -1   0    6.02    0.54
   6  -1   0    5.45    0.48
   6  -1   0    4.92    0.57
   6  -1   0    5.20    0.51
  -6  -1   0    5.51    0.60
  -6  -1   0    6.34    0.53
   6   1   0    5.50    0.54
   6   1   0    5.48    0.57
  -6   1   0    5.81    0.56
  -6   1   0    5.05    0.54
   6   1   0    5.48    0.56
  -6   1   0    6.04    0.52
  -7  -1   0    0.68    0.16
   7  -1   0    0.55    0.24
  -7  -1   0    0.70    0.12
   7  -1   0    0.93    0.16
  -7  -1   0    0.82    0.18
  -7   1   0    0.91    0.20
   7   1   0    0.93    0.15
   7   1   0    0.94    0.26
   7   1   0    1.19    0.18
  -7   1   0    0.89    0.19
  -7   1   0    1.05    0.18
  -8  -1   0   -0.13    0.20
   8  -1   0   -0.04    0.23
   8  -1   0   -0.03    0.15
  -8  -1   0    0.06    0.09
   8   1   0    0.01    0.18
  -8   1   0   -0.14    0.18
   8   1   0    0.02    0.17
   8   1   0   -0.03    0.31
  -8   1   0    0.17    0.20
  -9  -1   0    1.36    0.28
   9  -1   0    1.56    0.35
   9  -1   0    1.80    0.24
  -9   1   0    1.19    0.30
   9   1   0    2.71    0.45
  -9   1   0    1.70    0.35
   9   1   0    1.93    0.26
  10  -1   0   -0.37    0.43
 -10  -1   0    0.26    0.36
 -10  -1   0   -0.15    0.30
  10  -1   0   -0.16    0.25
 -10   1   0    0.51    0.36
 -10   1   0    0.32    0.24
  10   1   0   -0.63    0.42
  11  -1   0    0.15    0.50
 -11  -1   0    0.62    0.40
 -11  -1   0    1.01    0.46
 -11   1   0    0.62    0.37
  11   1   0    0.85    0.45
 -11   1   0    2.20    0.53
   0  -2   0  129.35   12.07
   0  -2   0  124.79   11.65
   0  -2   0  126.26   12.53
   0   2   0  134.15   11.45
   0   2   0  131.12   11.73
   0   2   0  126.83   12.45
   1  -2   0   14.48    1.35
   1  -2   0   13.52    1.22
   1  -2   0   13.33    1.24
  -1  -2   0   13.32    1.21
  -1  -2   0   13.94    1.28
   1  -2   0   13.08    1.19
  -1  -2   0   12.69    1.17
  -1  -2   0   12.56    1.18
   1   2   0   12.70    1.19
  -1   2   0   13.95    1.23
  -1   2   0   13.75    1.20
   1   2   0   14.20    1.34
  -1   2   0   14.52    1.23
   1   2   0   12.58    1.21
  -1   2   0   13.47    1.17
   1   2   0   11.79    1.26
  -1   2   0   12.58    1.20
  -2  -2   0    0.17    0.07
  -2  -2   0    0.21    0.06
   2  -2   0    0.44    0.07
  -2  -2   0    0.18    0.06
   2  -2   0    0.30    0.05
   2  -2   0    0.36    0.04
   2  -2   0    0.31    0.06
  -2  -2   0    0.38    0.06
  -2  -2   0    0.25    0.05
   2  -2   0    0.31    0.08
   2   2   0    0.30    0.07
  -2   2   0    0.52    0.06
   2   2   0    0.29    0.10
   2   2   0    0.24    0.06
  -2   2   0    0.34    0.06
  -2   2   0    0.36    0.08
  -2   2   0    0.38    0.05
   2   2   0    0.23    0.07
   2   2   0    0.14    0.07
   3  -2   0   16.20    1.48
   3  -2   0   17.79    1.52
   3  -2   0   16.73    1.60
  -3  -2   0   20.33    1.73
  -3  -2   0   18.31    1.63
   3  -2   0   14.89    1.47
  -3  -2   0   15.78    1.48
  -3  -2   0   16.37    1.58
  -3  -2   0   17.66    1.50
   3  -2   0   18.36    1.70
  -3   2   0   15.39    1.48
  -3   2   0   15.94    1.48
   3   2   0   17.27    1.58
   3   2   0   16.52    1.60
  -3   2   0   18.61    1.49
   3   2   0   20.90    1.98
   3   2   0   16.56    1.80
  -3   2   0   19.72    1.68
  -4  -2   0    2.12    0.22
  -4  -2   0    1.91    0.19
   4  -2   0    1.87    0.19
  -4  -2   0    1.75    0.20
  -4  -2   0    2.49    0.35
   4  -2   0    1.78    0.19
   4  -2   0    2.18    0.22
  -4  -2   0    1.63    0.23
  -4  -2   0    1.58    0.20
   4   2   0    1.75    0.21
  -4   2   0    1.57    0.20
   4   2   0    1.99    0.20
  -4   2   0    1.80    0.20
   4   2   0    1.78    0.22
   4   2   0    2.10    0.25
  -4   2   0    2.25    0.21
  -4   2   0    1.83    0.19
   5  -2   0    3.43    0.36
  -5  -2   0    3.52    0.35
  -5  -2   0    2.72    0.47
  -5  -2   0    3.69    0.34
   5  -2   0    3.46    0.33
  -5  -2   0    3.50    0.35
   5  -2   0    3.63    0.34
  -5  -2   0    3.41    0.37
  -5  -2   0    4.09    0.37
  -5   2   0    3.29    0.37
  -5   2   0    3.90    0.34
  -5   2   0    3.28    0.34
   5   2   0    3.18    0.36
   5   2   0    3.47    0.37
  -5   2   0    3.88    0.37
   5   2   0    3.59    0.36
   5   2   0    3.59    0.37
  -6  -2   0    3.82    0.39
   6  -2   0    3.51    0.46
  -6  -2   0    3.91    0.40
   6  -2   0    3.68    0.37
   6  -2   0    4.10    0.42
  -6  -2   0    3.95    0.43
  -6  -2   0    3.81    0.46
  -6  -2   0    4.43    0.42
  -6   2   0    4.70    0.39
  -6   2   0    4.70    0.41
  -6   2   0    3.28    0.38
   6   2   0    4.40    0.38
   6   2   0    3.53    0.45
   6   2   0    3.58    0.40
  -7  -2   0    0.20    0.14
   7  -2   0    0.09    0.13
   7  -2   0    0.10    0.23
  -7  -2   0   -0.04    0.15
  -7  -2   0    0.12    0.10
   7   2   0    0.03    0.15
  -7   2   0    0.36    0.16
   7   2   0    0.18    0.14
  -7   2   0    0.11    0.15
   7   2   0   -0.12    0.22
  -8  -2   0    0.23    0.22
   8  -2   0    0.40    0.16
  -8  -2   0    0.15    0.12
   8  -2   0    0.45    0.28
   8   2   0    0.21    0.18
   8   2   0   -0.06    0.15
   8   2   0    0.11    0.27
  -8   2   0    0.25    0.24
  -8   2   0    0.00    0.19
   9  -2   0   -0.09    0.18
  -9  -2   0   -0.14    0.21
   9  -2   0   -0.12    0.32
  -9   2   0    0.15    0.29
   9   2   0   -0.42    0.21
  -9   2   0   -0.17    0.23
   9   2   0    0.21    0.41
 -10  -2   0    0.21    0.33
  10  -2   0    0.54    0.43
  10  -2   0    0.10    0.21
 -10   2   0   -0.28    0.36
 -10   2   0   -0.16    0.22
  10   2   0    0.68    0.48
 -11  -2   0    0.14    0.40
  11  -2   0   -0.02    0.39
 -11  -2   0   -0.27    0.43
 -11   2   0    0.42    0.37
 -11   2   0   -0.26    0.34
  11   2   0    0.40    0.47
   0  -3   0   -0.01    0.03
   0  -3   0   -0.04    0.06
   0  -3   0   -0.04    0.05
   0   3   0   -0.03    0.04
   0   3   0    0.03    0.05
   1  -3   0   79.35    6.76
  -1  -3   0   66.17    6.81
   1  -3   0   82.84    8.72
   1  -3   0   79.82    6.98
  -1  -3   0   75.28    6.62
  -1  -3   0   68.38    6.62
  -1   3   0   79.38    7.31
   1   3   0   71.96    6.76
  -1   3   0   80.23    6.76
   1   3   0   76.95    6.84
  -1   3   0   81.01    6.74
   1   3   0   84.57    7.49
   1   3   0   73.31    7.34
  -1   3   0   72.06    6.65
  -2  -3   0   35.55    3.44
   2  -3   0   36.24    3.45
  -2  -3   0   40.75    4.23
   2  -3   0   38.29    3.64
   2  -3   0   35.27    3.36
   2  -3   0   39.62    4.41
  -2  -3   0   40.18    3.46
   2  -3   0   40.21    3.59
  -2  -3   0   36.93    3.35
  -2   3   0   37.26    3.32
   2   3   0   38.23    3.48
  -2   3   0   42.78    3.48
   2   3   0   33.73    3.65
  -2   3   0   38.07    3.36
  -2   3   0   40.94    3.37
  -2   3   0   44.25    3.55
   2   3   0   44.31    4.25
   2   3   0   37.51    3.59
   3  -3   0  170.28   17.15
   3  -3   0  162.41   14.46
   3  -3   0  169.26   16.49
   3  -3   0  147.90   14.48
  -3  -3   0  156.37   14.85
  -3  -3   0  151.49   13.78
  -3  -3   0  168.86   14.06
  -3  -3   0  177.43   19.04
   3  -3   0  135.91   13.84
  -3  -3   0  161.13   15.91
   3   3   0  180.08   18.88
  -3   3   0  148.72   13.66
   3   3   0  185.53   18.61
  -3   3   0  168.59   13.77
  -3   3   0  173.52   14.84
   3   3   0  158.11   18.27
   3   3   0  149.88   14.63
  -3   3   0  169.89   13.93
   3   3   0  149.21   14.54
   4  -3   0    0.35    0.09
  -4  -3   0    0.41    0.09
  -4  -3   0    0.42    0.09
  -4  -3   0    0.40    0.10
   4  -3   0    0.72    0.14
  -4  -3   0    0.49    0.11
   4  -3   0    0.59    0.10
  -4  -3   0    0.31    0.10
   4   3   0    0.36    0.12
   4   3   0    0.54    0.10
  -4   3   0    0.40    0.09
   4   3   0    0.65    0.16
  -4   3   0    0.42    0.14
  -4   3   0    0.38    0.13
  -4   3   0    0.19    0.10
   4   3   0    0.42    0.13
   5  -3   0    8.14    0.76
  -5  -3   0    8.39    0.77
   5  -3   0    8.45    0.81
  -5  -3   0    8.66    0.79
  -5  -3   0    8.32    0.90
  -5  -3   0    8.20    0.86
  -5  -3   0    8.39    0.77
   5  -3   0    8.14    0.78
  -5   3   0   10.01    0.95
  -5   3   0    9.38    0.76
   5   3   0    9.51    0.92
  -5   3   0    8.18    0.78
   5   3   0    8.87    0.81
   5   3   0    7.76    0.89
  -6  -3   0    1.01    0.18
  -6  -3   0    0.64    0.16
  -6  -3   0    1.07    0.17
   6  -3   0    0.88    0.21
  -6  -3   0    1.05    0.16
  -6  -3   0    0.98    0.17
   6  -3   0    1.27    0.17
   6  -3   0    1.05    0.22
   6   3   0    1.44    0.26
  -6   3   0    0.68    0.17
  -6   3   0    0.99    0.16
   6   3   0    0.85    0.16
   6   3   0    1.37    0.17
  -6   3   0    1.29    0.21
   7  -3   0    3.44    0.35
  -7  -3   0    2.84    0.30
  -7  -3   0    2.06    0.30
   7  -3   0    2.92    0.30
  -7  -3   0    2.89    0.34
   7   3   0    2.96    0.41
  -7   3   0    2.99    0.31
   7   3   0    2.81    0.32
  -7   3   0    2.99    0.34
   7   3   0    2.60    0.31
  -8  -3   0    9.53    0.89
   8  -3   0    8.80    0.91
  -8  -3   0    9.28    0.91
   8  -3   0    9.66    0.88
   8   3   0    9.36    0.95
  -8   3   0   10.06    1.01
   8   3   0    8.79    0.93
  -8   3   0    9.81    0.88
   9  -3   0    0.25    0.34
  -9  -3   0    0.28    0.23
   9  -3   0    0.34    0.21
   9   3   0   -0.17    0.41
  -9   3   0    0.37    0.25
   9   3   0    0.61    0.24
  -9   3   0    0.12    0.22
 -10  -3   0    0.07    0.51
  10  -3   0   -0.42    0.40
  10  -3   0   -0.13    0.27
 -10   3   0   -0.25    0.27
 -10   3   0    0.04    0.36
  10   3   0   -0.24    0.40
  11  -3   0   -0.16    0.38
 -11  -3   0   -0.16    0.42
 -11   3   0    0.23    0.46
 -11   3   0    0.06    0.33
  11   3   0   -0.40    0.49
   0  -4   0   65.58    6.08
   0  -4   0   70.40    5.95
   0  -4   0   63.96    6.78
   0   4   0   74.26    6.39
   0   4   0   59.51    6.33
   0   4   0   74.52    6.46
  -1  -4   0    9.58    0.91
   1  -4   0    9.30    1.07
   1  -4   0   10.45    0.91
  -1  -4   0   10.25    0.91
  -1   4   0   10.41    0.94
  -1   4   0   11.38    0.98
  -1   4   0   10.88    0.92
  -1   4   0   10.87    0.99
   1   4   0   10.33    0.95
   1   4   0    9.93    0.93
   1   4   0   10.35    1.00
   1   4   0   10.18    1.02
   2  -4   0  136.20   13.11
  -2  -4   0  133.28   11.63
   2  -4   0  113.66   11.11
   2  -4   0  136.29   12.04
  -2  -4   0  118.31   11.22
  -2  -4   0  121.36   11.71
   2  -4   0  119.84   11.38
  -2  -4   0  133.52   11.71
   2   4   0  147.10   12.61
   2   4   0  127.97   12.41
   2   4   0  122.79   12.23
  -2   4   0  141.63   11.36
   2   4   0  119.21   13.01
  -2   4   0  153.12   11.45
  -2   4   0  119.61   11.49
   2   4   0  120.40   11.80
  -2   4   0  135.55   12.42
  -2   4   0  133.92   11.83
  -3  -4   0    2.22    0.22
  -3  -4   0    1.99    0.23
   3  -4   0    2.39    0.22
   3  -4   0    2.04    0.25
   3  -4   0    1.97    0.19
   3  -4   0    2.13    0.22
   3  -4   0    1.98    0.20
  -3  -4   0    1.73    0.23
  -3  -4   0    2.09    0.22
   3   4   0    1.92    0.23
   3   4   0    2.01    0.22
  -3   4   0    2.31    0.22
  -3   4   0    2.37    0.24
   3   4   0    2.25    0.22
   3   4   0    1.77    0.22
  -3   4   0    1.70    0.21
  -3   4   0    2.32    0.19
   4  -4   0    3.96    0.42
   4  -4   0    3.50    0.38
  -4  -4   0    4.21    0.42
  -4  -4   0    3.83    0.40
  -4  -4   0    4.42    0.40
   4  -4   0    4.16    0.39
  -4  -4   0    4.40    0.40
   4  -4   0    4.17    0.41
   4  -4   0    4.70    0.40
   4   4   0    4.34    0.41
   4   4   0    3.98    0.42
  -4   4   0    4.72    0.38
  -4   4   0    4.16    0.41
  -4   4   0    4.91    0.45
  -4   4   0    4.19    0.40
   4   4   0    4.12    0.46
   4   4   0    4.06    0.49
   4   4   0    4.45    0.47
  -5  -4   0    0.64    0.13
   5  -4   0    0.69    0.12
  -5  -4   0    0.39    0.14
  -5  -4   0    0.44    0.12
   5  -4   0    0.61    0.13
   5  -4   0    0.64    0.17
  -5  -4   0    0.72    0.15
  -5  -4   0    0.61    0.16
   5   4   0    0.83    0.16
   5   4   0    0.50    0.15
  -5   4   0    0.69    0.14
   5   4   0    0.58    0.23
  -5   4   0    0.72    0.15
  -5   4   0    0.54    0.11
   6  -4   0   14.58    1.33
   6  -4   0   12.99    1.31
  -6  -4   0   13.03    1.43
   6  -4   0   14.94    1.31
  -6  -4   0   14.18    1.45
  -6  -4   0   14.06    1.29
  -6  -4   0   13.81    1.25
   6   4   0   14.15    1.34
   6   4   0   13.69    1.32
  -6   4   0   15.08    1.27
  -6   4   0   15.57    1.84
   6   4   0   13.09    1.55
  -7  -4   0    2.05    0.27
   7  -4   0    2.10    0.25
   7  -4   0    1.83    0.31
  -7  -4   0    1.79    0.23
   7   4   0    1.82    0.24
  -7   4   0    1.87    0.26
   7   4   0    1.45    0.32
  -7   4   0    1.65    0.23
  -8  -4   0    7.32    0.74
   8  -4   0    7.71    0.75
   8  -4   0    7.44    0.76
  -8  -4   0    8.41    0.75
  -8   4   0    7.88    0.73
  -8   4   0    7.32    0.82
   8   4   0    7.01    0.79
   8   4   0    7.28    0.75
  -9  -4   0    0.17    0.30
   9  -4   0    0.60    0.22
   9  -4   0    0.69    0.29
   9   4   0    0.46    0.37
   9   4   0    0.47    0.25
  -9   4   0    0.29    0.26
  -9   4   0    0.93    0.34
  10  -4   0    0.93    0.42
 -10  -4   0    1.14    0.32
  10  -4   0    1.22    0.28
 -10   4   0    1.17    0.42
  10   4   0    0.57    0.43
 -10   4   0    0.75    0.29
  11  -4   0   -0.14    0.37
 -11  -4   0    0.03    0.45
 -11   4   0   -0.11    0.45
 -11   4   0   -0.09    0.48
  11   4   0    0.44    0.51
   0  -5   0   -0.03    0.04
   0  -5   0   -0.03    0.08
   0  -5   0   -0.07    0.11
   0   5   0    0.03    0.04
   0   5   0   -0.05    0.11
   0   5   0    0.01    0.09
   1  -5   0    0.08    0.09
  -1  -5   0    0.34    0.07
   1  -5   0   -0.04    0.08
  -1  -5   0    0.05    0.09
  -1  -5   0    0.00    0.08
   1   5   0    0.05    0.05
   1   5   0    0.05    0.08
  -1   5   0    0.06    0.08
   1   5   0    0.04    0.11
  -1   5   0   -0.02    0.08
  -1   5   0    0.07    0.11
  -1   5   0    0.02    0.09
   1   5   0    0.02    0.06
  -2  -5   0   19.56    1.82
   2  -5   0   19.67    1.92
   2  -5   0   21.28    1.87
  -2  -5   0   20.31    1.83
   2  -5   0   21.48    1.91
  -2  -5   0   18.22    1.78
  -2   5   0   23.61    1.87
   2   5   0   18.70    1.85
  -2   5   0   20.70    1.78
   2   5   0   19.53    1.98
   2   5   0   19.29    1.97
  -2   5   0   22.06    1.83
  -2   5   0   20.69    1.91
   2   5   0   18.85    2.01
  -3  -5   0   61.41    5.95
   3  -5   0   59.77    5.90
   3  -5   0   72.08    6.55
  -3  -5   0   64.84    6.47
   3  -5   0   67.76    6.35
  -3  -5   0   65.92    5.86
   3  -5   0   72.81    6.00
  -3  -5   0   70.92    6.28
  -3   5   0   63.97    5.85
  -3   5   0   65.70    5.99
   3   5   0   65.23    6.41
   3   5   0   66.61    7.13
  -3   5   0   72.22    6.02
   3   5   0   71.68    6.91
  -3   5   0   71.40    6.56
  -3   5   0   77.95    6.17
   3   5   0   68.82    6.68
  -4  -5   0    9.70    0.93
  -4  -5   0   10.02    0.93
   4  -5   0   10.38    1.11
   4  -5   0   11.23    0.99
   4  -5   0    9.65    0.93
  -4  -5   0   10.43    1.00
  -4  -5   0   10.20    1.00
   4  -5   0    9.55    1.00
  -4   5   0   11.14    0.92
   4   5   0   10.28    0.96
   4   5   0   10.15    0.99
  -4   5   0   11.41    0.94
   4   5   0   10.22    1.11
   4   5   0   10.47    1.07
   4   5   0   10.55    1.12
  -4   5   0   11.49    1.01
  -5  -5   0    3.40    0.38
   5  -5   0    3.50    0.38
   5  -5   0    3.54    0.36
  -5  -5   0    3.56    0.37
   5  -5   0    3.19    0.34
  -5  -5   0    3.31    0.36
   5  -5   0    3.97    0.34
  -5  -5   0    3.70    0.38
  -5   5   0    4.18    0.34
   5   5   0    4.73    0.45
  -5   5   0    3.96    0.40
   5   5   0    2.89    0.36
  -6  -5   0    0.70    0.17
   6  -5   0    0.68    0.17
   6  -5   0    1.04    0.20
   6  -5   0    0.79    0.17
  -6  -5   0    0.90    0.15
  -6  -5   0    1.25    0.23
   6   5   0    1.89    0.29
  -6   5   0    0.89    0.15
   6   5   0    1.08    0.21
  -6   5   0    0.96    0.20
   7  -5   0    4.35    0.40
   7  -5   0    3.60    0.42
  -7  -5   0    3.94    0.40
  -7  -5   0    3.93    0.41
   7   5   0    3.78    0.46
   7   5   0    3.57    0.40
  -7   5   0    3.95    0.38
  -7   5   0    3.59    0.45
   8  -5   0    0.50    0.30
  -8  -5   0    0.29    0.21
  -8  -5   0    0.15    0.18
   8  -5   0    0.18    0.19
   8   5   0    0.57    0.21
  -8   5   0    0.12    0.17
   8   5   0   -0.03    0.31
  -8   5   0    0.50    0.23
   9  -5   0    0.11    0.21
  -9  -5   0    0.13    0.23
   9  -5   0   -0.21    0.34
  -9  -5   0    0.17    0.31
   9   5   0   -0.09    0.39
   9   5   0    0.13    0.38
  -9   5   0    0.07    0.29
  -9   5   0   -0.10    0.35
  10  -5   0    0.73    0.36
  10  -5   0    0.01    0.19
 -10  -5   0    0.63    0.38
  10   5   0   -0.06    0.42
 -10   5   0    0.21    0.44
   0  -6   0   17.45    1.72
   0  -6   0   15.84    1.59
   0  -6   0   18.00    1.60
   0   6   0   18.47    1.72
   0   6   0   18.41    1.96
   0   6   0   19.41    1.75
   1  -6   0    0.61    0.13
  -1  -6   0    0.58    0.13
  -1  -6   0    0.84    0.10
   1  -6   0    0.65    0.14
  -1  -6   0    0.53    0.13
  -1   6   0    0.67    0.12
   1   6   0    0.60    0.16
  -1   6   0    1.09    0.14
  -1   6   0    1.11    0.13
  -1   6   0    0.52    0.14
   1   6   0    0.57    0.14
   1   6   0    0.64    0.09
   1   6   0    0.63    0.10
   2  -6   0   20.97    2.24
  -2  -6   0   18.28    1.79
   2  -6   0   21.24    1.85
  -2  -6   0   19.57    1.92
  -2  -6   0   19.93    1.92
   2   6   0   18.78    1.86
   2   6   0   20.72    1.89
  -2   6   0   20.19    1.79
  -2   6   0   22.72    1.94
  -2   6   0   21.75    1.87
   2   6   0   19.72    1.97
   2   6   0   18.86    2.09
  -2   6   0   21.16    1.89
  -3  -6   0    4.92    0.53
  -3  -6   0    6.41    0.56
   3  -6   0    5.92    0.55
   3  -6   0    6.77    0.56
  -3  -6   0    5.10    0.52
   3  -6   0    5.38    0.49
  -3  -6   0    5.81    0.50
   3  -6   0    4.86    0.87
   3   6   0    5.85    0.56
  -3   6   0    6.47    0.53
  -3   6   0    6.08    0.55
   3   6   0    5.53    0.59
   3   6   0    4.66    0.53
  -3   6   0    6.09    0.54
   3   6   0    6.28    0.58
  -3   6   0    5.54    0.51
  -4  -6   0    3.91    0.39
   4  -6   0    3.70    0.36
   4  -6   0    4.88    0.41
  -4  -6   0    3.74    0.38
   4  -6   0    3.95    0.41
  -4  -6   0    3.89    0.39
  -4  -6   0    3.85    0.45
   4   6   0    3.88    0.43
   4   6   0    5.08    0.44
   4   6   0    3.35    0.41
  -4   6   0    4.12    0.38
  -4   6   0    4.47    0.42
  -5  -6   0    7.10    0.67
  -5  -6   0    7.50    0.70
   5  -6   0    7.94    0.68
   5  -6   0    6.42    0.65
  -5  -6   0    7.30    0.67
   5  -6   0    7.13    0.73
  -5   6   0    8.37    0.74
   5   6   0    7.40    0.75
   5   6   0    6.80    0.70
  -5   6   0    7.40    0.68
   5   6   0    6.99    0.81
  -6  -6   0   -0.15    0.19
  -6  -6   0    0.21    0.13
   6  -6   0   -0.05    0.21
  -6  -6   0    0.23    0.17
   6  -6   0    0.11    0.12
  -6   6   0    0.00    0.10
  -6   6   0    0.37    0.18
   6   6   0   -0.12    0.30
   6   6   0    0.26    0.21
   7  -6   0    0.85    0.27
  -7  -6   0    0.12    0.23
  -7  -6   0    0.19    0.18
   7   6   0    0.23    0.35
   7   6   0   -0.14    0.22
  -7   6   0    0.21    0.14
  -7   6   0    0.07    0.20
   8  -6   0    0.15    0.31
  -8  -6   0    0.23    0.21
  -8  -6   0   -0.08    0.28
  -8   6   0    0.35    0.30
  -8   6   0    0.14    0.18
   8   6   0    0.08    0.32
   8   6   0   -0.07    0.25
   9  -6   0    0.13    0.56
  -9  -6   0    0.05    0.23
  -9  -6   0    0.17    0.32
   9   6   0    0.10    0.39
  -9   6   0    0.06    0.37
  10  -6   0    0.46    0.38
 -10  -6   0    0.10    0.41
 -10   6   0   -0.10    0.47
  10   6   0   -0.75    0.59
   0  -7   0   -0.07    0.05
   0  -7   0    0.07    0.16
   0  -7   0   -0.16    0.11
   0   7   0   -0.09    0.12
   0   7   0    0.09    0.13
   0   7   0    0.16    0.07
   1  -7   0   40.07    3.63
  -1  -7   0   40.96    3.87
   1  -7   0   38.30    3.81
  -1  -7   0   37.74    3.54
  -1  -7   0   38.09    3.54
   1   7   0   35.89    3.98
   1   7   0   37.72    4.04
  -1   7   0   41.08    3.75
  -1   7   0   46.45    4.33
  -1   7   0   39.85    3.85
  -1   7   0   46.45    4.04
   1   7   0   38.00    4.11
   1   7   0   39.14    3.79
  -2  -7   0    8.96    0.99
  -2  -7   0   10.50    0.94
   2  -7   0   11.70    0.98
  -2  -7   0   10.46    0.96
  -2   7   0   11.83    1.02
  -2   7   0   11.72    1.36
   2   7   0    9.35    0.96
   2   7   0   11.15    0.96
  -2   7   0   11.79    1.02
   2   7   0    8.97    1.02
  -3  -7   0   20.03    2.02
  -3  -7   0   18.95    1.86
  -3  -7   0   21.63    1.92
   3  -7   0   22.47    1.95
   3   7   0   21.50    2.18
   3   7   0   18.89    2.02
   3   7   0   21.96    2.18
  -3   7   0   22.96    2.07
  -3   7   0   23.17    1.96
   4  -7   0    0.08    0.17
   4  -7   0   -0.01    0.12
  -4  -7   0    0.45    0.18
  -4  -7   0    0.02    0.14
   4  -7   0    0.13    0.05
  -4  -7   0    0.06    0.07
   4   7   0    0.21    0.22
   4   7   0    0.30    0.17
  -4   7   0    0.14    0.15
   5  -7   0    7.14    0.67
  -5  -7   0    7.45    0.64
   5  -7   0    8.01    0.65
   5  -7   0    5.64    0.60
  -5  -7   0    7.40    0.66
  -5  -7   0    6.73    0.64
   5   7   0    5.83    0.66
   5   7   0    6.78    0.70
  -5   7   0    6.95    0.64
   5   7   0    6.49    0.67
  -5   7   0    7.83    0.75
  -6  -7   0    0.02    0.21
  -6  -7   0    0.55    0.25
   6  -7   0    0.69    0.13
  -6  -7   0    0.64    0.14
   6  -7   0    0.66    0.08
   6  -7   0    0.33    0.19
  -6   7   0    0.50    0.23
   6   7   0    0.75    0.25
  -6   7   0    0.53    0.12
   6   7   0    0.34    0.34
  -7  -7   0    1.39    0.29
   7  -7   0    1.65    0.32
  -7  -7   0    1.49    0.26
   7   7   0    1.19    0.40
  -7   7   0    1.64    0.28
  -7   7   0    1.35    0.21
   7   7   0    1.44    0.30
   8  -7   0    0.78    0.28
  -8  -7   0    0.50    0.30
  -8  -7   0    0.38    0.25
   8   7   0    1.00    0.45
  -8   7   0    0.29    0.31
   8   7   0    1.45    0.32
  -9  -7   0   -0.24    0.26
   9  -7   0   -0.54    0.38
  -9  -7   0    0.28    0.33
   9   7   0   -0.13    0.50
  -9   7   0   -0.16    0.37
  10  -7   0   -0.16    0.47
 -10  -7   0   -0.56    0.43
 -10   7   0    0.33    0.38
  10   7   0    0.41    0.50
   0  -8   0   23.36    2.31
   0  -8   0   27.50    2.47
   0   8   0   26.22    2.50
   0   8   0   27.27    2.74
  -1  -8   0    0.11    0.14
   1  -8   0    0.02    0.13
  -1  -8   0    0.13    0.09
   1   8   0   -0.02    0.18
  -1   8   0   -0.06    0.15
   1   8   0   -0.09    0.10
   1   8   0    0.02    0.09
  -1   8   0    0.03    0.15
  -2  -8   0    5.59    0.54
  -2  -8   0    5.54    0.52
   2  -8   0    6.01    0.53
   2   8   0    4.31    0.55
   2   8   0    6.09    0.51
   2   8   0    5.94    0.61
  -2   8   0    5.37    0.57
  -2   8   0    5.95    0.57
  -3  -8   0    0.24    0.19
  -3  -8   0    0.37    0.13
   3  -8   0    0.63    0.13
   3   8   0    0.13    0.22
   3   8   0    0.37    0.24
  -3   8   0    0.47    0.20
  -3   8   0    0.07    0.13
   3   8   0    0.23    0.14
   4  -8   0    0.71    0.15
  -4  -8   0    0.68    0.17
  -4  -8   0    0.40    0.18
   4  -8   0    0.02    0.13
   4   8   0    0.45    0.22
   4   8   0    0.26    0.20
  -4   8   0    0.76    0.19
  -5  -8   0    5.66    0.57
  -5  -8   0    5.81    0.60
  -5  -8   0    6.48    0.62
   5  -8   0    5.89    0.55
   5  -8   0    6.98    0.57
   5  -8   0    6.70    0.62
   5   8   0    6.49    0.69
   5   8   0    5.81    0.64
  -5   8   0    6.51    0.68
   5   8   0    6.49    0.64
  -6  -8   0    6.44    0.66
  -6  -8   0    6.70    0.62
   6  -8   0    5.37    0.64
   6  -8   0    7.15    0.57
  -6   8   0    5.70    0.72
   6   8   0    5.71    0.66
   6   8   0    6.33    0.71
   6   8   0    5.94    0.66
  -7  -8   0    0.31    0.26
  -7  -8   0    0.11    0.23
   7  -8   0    0.63    0.29
   7   8   0    0.41    0.40
   7   8   0    0.43    0.24
  -7   8   0    0.10    0.28
  -8  -8   0    3.34    0.41
  -8  -8   0    3.37    0.42
   8  -8   0    3.54    0.44
   8   8   0    3.12    0.52
   8   8   0    2.52    0.42
  -8   8   0    2.76    0.50
  -9  -8   0   -0.04    0.30
  -9  -8   0    0.37    0.32
   9  -8   0    0.07    0.31
  -9   8   0    0.11    0.41
   9   8   0    0.71    0.46
   0  -9   0    0.04    0.16
   0   9   0    0.05    0.09
   0   9   0    0.05    0.22
   1  -9   0   28.70    2.58
  -1  -9   0   26.66    2.50
  -1  -9   0   27.89    2.50
   1   9   0   29.24    2.72
  -1   9   0   30.72    2.73
   1   9   0   25.43    2.72
   1   9   0   28.52    2.90
  -2  -9   0    0.05    0.13
   2  -9   0    0.17    0.15
  -2  -9   0   -0.18    0.17
   2   9   0    0.08    0.15
  -2   9   0    0.09    0.22
   2   9   0    0.33    0.24
   2   9   0    0.11    0.08
   3  -9   0   46.32    4.05
  -3  -9   0   42.03    4.11
  -3  -9   0   42.10    4.00
  -3   9   0   49.16    4.39
   3   9   0   46.05    4.89
   3   9   0   47.93    4.31
  -3   9   0   45.71    4.23
  -4  -9   0    2.92    0.35
   4  -9   0    3.51    0.33
  -4  -9   0    4.21    2.61
  -4   9   0    2.89    0.36
   4   9   0    2.75    0.38
   4   9   0    2.36    0.37
   5  -9   0   12.30    1.07
  -5  -9   0   11.61    1.07
  -5  -9   0   11.67    1.04
   5   9   0   10.05    1.13
   5   9   0   10.91    1.12
  -5   9   0   11.61    1.18
   5   9   0   10.87    1.09
   6  -9   0    0.01    0.22
  -6  -9   0   -0.10    0.24
  -6  -9   0    0.06    0.23
  -6   9   0    0.00    0.26
   6   9   0   -0.34    0.28
   6   9   0    0.33    0.40
   6   9   0    0.16    0.27
   7  -9   0    0.26    0.25
  -7  -9   0    0.70    0.29
  -7  -9   0    0.42    0.26
   7   9   0    0.04    0.45
  -7   9   0    0.55    0.26
   7   9   0    0.41    0.33
  -8  -9   0   -0.22    0.28
   8  -9   0   -0.17    0.37
  -8  -9   0   -0.06    0.27
   8   9   0    0.10    0.41
  -8   9   0    0.52    0.34
   9  -9   0   -0.49    0.35
  -9  -9   0   -0.01    0.40
  -9  -9   0    0.06    0.35
  -9   9   0    0.56    0.39
   9   9   0    0.01    0.61
   0 -10   0    5.03    0.49
   0  10   0    4.14    0.47
   0  10   0    5.93    0.57
  -1 -10   0    0.03    0.11
  -1 -10   0   -0.01    0.18
   1 -10   0    0.08    0.17
   1  10   0    0.14    0.12
   1  10   0    0.02    0.13
  -1  10   0    0.01    0.20
   1  10   0   -0.14    0.26
  -2 -10   0    0.01    0.14
   2 -10   0    0.08    0.17
  -2 -10   0    0.07    0.20
   2  10   0    0.26    0.18
   2  10   0    1.57    0.51
  -2  10   0    0.44    0.26
   2  10   0    0.22    0.32
   3 -10   0    8.68    0.78
  -3 -10   0    7.59    0.82
  -3 -10   0    8.42    0.78
  -3  10   0    8.44    0.88
   3  10   0    8.79    0.83
   3  10   0    9.02    0.84
   4 -10   0    0.49    0.19
  -4 -10   0    0.34    0.19
  -4 -10   0    0.09    0.23
   4  10   0    0.53    0.29
   4  10   0    0.44    0.28
  -4  10   0    0.17    0.26
  -5 -10   0    0.10    0.25
  -5 -10   0   -0.10    0.22
   5 -10   0   -0.04    0.19
   5  10   0    0.12    0.29
  -5  10   0   -0.06    0.28
  -6 -10   0    0.57    0.27
  -6 -10   0    0.84    0.27
   6  10   0    0.73    0.43
   6  10   0    0.44    0.33
  -6  10   0    0.82    0.46
   6  10   0    0.34    0.31
   7 -10   0   -0.33    0.35
  -7 -10   0    0.09    0.30
  -7 -10   0    0.10    0.34
   7  10   0    0.19    0.47
   7  10   0   -0.04    0.30
  -7  10   0    0.39    0.33
  -8 -10   0    1.91    0.40
  -8 -10   0    1.89    0.35
   8 -10   0    1.56    0.45
  -8  10   0    1.51    0.42
   8  10   0    1.84    0.61
   0 -11   0    0.15    0.25
   0  11   0   -0.37    0.31
  -1 -11   0    0.25    0.22
   1 -11   0    0.32    0.20
  -1 -11   0    0.25    0.10
  -1  11   0    0.35    0.29
   1  11   0    0.45    0.27
  -2 -11   0    0.01    0.14
   2 -11   0   -0.06    0.19
  -2 -11   0    0.05    0.23
  -2  11   0    0.08    0.23
   2  11   0   -0.02    0.29
  -3 -11   0    0.07    0.24
   3 -11   0    0.07    0.19
  -3 -11   0   -0.16    0.16
  -3  11   0    0.04    0.28
   3  11   0   -0.27    0.38
   3  11   0    0.56    0.33
  -4 -11   0   -0.09    0.19
  -4 -11   0    0.25    0.26
   4 -11   0    0.02    0.22
   4  11   0    0.23    0.37
   4  11   0    0.32    0.23
  -4  11   0    0.16    0.24
   5 -11   0    0.13    0.20
  -5 -11   0   -0.18    0.23
  -5 -11   0    0.01    0.27
  -5  11   0    0.01    0.25
   5  11   0    0.02    0.34
   5  11   0   -0.08    0.34
  -6 -11   0    0.40    0.39
  -6 -11   0    0.27    0.30
  -6  11   0    0.10    0.34
   6  11   0    0.56    0.35
   6  11   0    0.13    0.47
   6  11   0    0.19    0.36
  -7 -11   0   -0.14    0.33
  -7 -11   0   -0.11    0.31
   7  11   0    0.07    0.29
   7  11   0    0.04    0.56
   7  11   0    0.19    0.34
  -7  11   0    0.38    0.31
  -8 -11   0    0.18    0.38
   8 -11   0    0.14    0.29
  -8 -11   0    0.19    0.30
   8  11   0   -1.04    0.63
  -8  11   0    0.13    0.41
   0 -12   0    5.54    0.59
   0  12   0    5.24    0.64
  -1 -12   0    1.30    0.30
   1 -12   0    1.46    0.28
  -1  12   0    1.33    0.37
   1  12   0    1.42    0.35
   2 -12   0    7.80    0.71
  -2 -12   0    6.98    0.68
  -2 -12   0    6.69    0.75
   2  12   0    7.32    0.82
  -2  12   0    8.03    0.77
  -3 -12   0    0.03    0.27
   3 -12   0    0.07    0.22
  -3 -12   0    0.01    0.19
  -3  12   0    0.42    0.32
   3  12   0    0.39    0.35
   3  12   0   -0.08    0.38
  -4 -12   0    0.09    0.21
   4 -12   0   -0.05    0.21
  -4 -12   0   -0.28    0.36
  -4  12   0   -0.02    0.26
   4  12   0   -0.36    0.36
   4  12   0    0.60    0.53
  -5 -12   0    1.17    0.56
  -5 -12   0    0.38    0.25
   5  12   0    0.00    0.39
  -5  12   0    0.22    0.29
   5  12   0   -0.11    0.47
  -6 -12   0    0.49    0.29
  -6 -12   0   -0.03    0.34
   6  12   0    1.09    0.41
   6  12   0    0.58    0.46
  -6  12   0    0.17    0.32
   6  12   0    0.23    0.41
  -7 -12   0    0.20    0.33
  -7 -12   0   -0.29    0.39
   7  12   0   -0.40    0.62
   7  12   0   -0.17    0.46
  -7  12   0   -0.36    0.46
   0 -13   0   -0.25    0.27
   0  13   0   -0.13    0.33
   1 -13   0    0.18    0.27
  -1 -13   0    0.10    0.34
  -1  13   0    0.33    0.36
   1  13   0   -0.38    0.40
  -2 -13   0   -0.04    0.30
   2 -13   0    0.45    0.42
   2  13   0   -0.49    0.43
  -2  13   0    0.50    0.36
   3 -13   0    6.99    0.63
  -3 -13   0    5.20    0.65
   3  13   0    5.76    0.73
   3  13   0    5.94    0.73
  -3  13   0    5.97    0.70
  -4 -13   0    0.67    0.25
  -4 -13   0    0.59    0.35
   4 -13   0    1.57    0.28
  -4  13   0    0.70    0.33
   4  13   0    1.08    0.45
   4  13   0    0.54    0.43
  -5 -13   0    7.93    0.90
  -5 -13   0    8.78    0.87
  -5  13   0    9.36    0.97
   5  13   0    8.35    0.96
   5  13   0    8.91    1.03
  -6 -13   0    0.95    0.41
  -6 -13   0    1.57    0.34
   6  13   0    1.09    0.60
  -6  13   0    0.85    0.40
   6  13   0    0.83    0.65
   6  13   0    1.46    0.48
   0 -14   0    6.10    0.67
   0  14   0    6.37    0.77
  -1 -14   0    0.18    0.32
   1 -14   0    0.04    0.30
   1  14   0   -0.13    0.38
  -1  14   0   -0.13    0.39
  -2 -14   0   -0.17    0.33
   2 -14   0    0.30    0.30
  -2  14   0    0.36    0.42
   2  14   0   -0.31    0.38
  -3 -14   0    0.35    0.36
   3 -14   0    0.66    0.29
  -3  14   0    0.84    0.57
   3  14   0    0.38    0.45
   3  14   0   -0.14    0.49
  -4 -14   0    0.05    0.36
   4  14   0   -0.01    0.49
  -4  14   0   -0.03    0.34
   4  14   0    0.16    0.55
  -5 -14   0   -0.33    0.40
   5  14   0   -1.50    0.51
   5  14   0    0.25    0.48
  -5  14   0    0.10    0.45
   0 -15   0   -0.09    0.35
   0  15   0    0.37    0.51
   1 -15   0    0.39    0.34
  -1 -15   0   -0.12    0.37
  -1  15   0   -0.32    0.42
   1  15   0    0.11    0.57
   2 -15   0    1.28    0.36
  -2 -15   0    0.65    0.41
  -2  15   0    1.15    0.42
   2  15   0    0.75    0.61
   2  15   0    0.73    0.47
  -3 -15   0    0.50    0.41
   3 -15   0    1.18    0.35
   3  15   0    1.55    0.61
   3  15   0    1.11    0.54
  -3  15   0    0.17    0.49
 -11   0   1    0.84    0.58
  11   0  -1    0.17    0.51
 -11   0   1   -0.18    0.36
 -10   0   1    1.62    0.52
 -10   0   1    0.18    0.30
  10   0  -1   -0.64    0.34
   9   0  -1    0.18    0.35
   9   0  -1    0.04    0.17
  -9   0   1   -0.12    0.24
   8   0  -1    0.03    0.14
  -8   0   1    0.07    0.16
   8   0  -1   -0.19    0.27
  -7   0   1   11.39    1.09
   7   0  -1   12.28    1.05
  -7   0   1   10.52    1.16
   7   0  -1   10.90    1.27
  -7   0   1   12.08    1.14
   6   0  -1   -0.02    0.06
  -6   0   1   -0.01    0.05
   6   0  -1   -0.02    0.09
  -6   0   1   -0.16    0.13
  -6   0   1    0.12    0.11
   6   0  -1    0.06    0.15
  -5   0   1   35.43    2.85
  -5   0   1   31.26    3.02
  -5   0   1   37.67    2.96
   5   0  -1   33.13    3.08
   5   0  -1   31.70    3.45
  -5   0   1   30.96    3.02
   5   0  -1   30.29    2.94
   5   0  -1   30.67    2.86
  -4   0   1   -0.03    0.05
  -4   0   1    0.01    0.08
  -4   0   1    0.17    0.11
   4   0  -1   -0.02    0.06
   4   0  -1    0.06    0.08
   4   0  -1   -0.04    0.09
   4   0  -1   -0.06    0.04
  -4   0   1    0.04    0.07
   3   0  -1  152.58   12.95
   3   0  -1  138.69   12.26
  -3   0   1  138.60   12.50
  -3   0   1  149.30   12.25
  -3   0   1  134.40   12.43
   3   0  -1  133.68   13.45
   3   0  -1  127.87   12.36
  -3   0   1  147.77   12.28
  -2   0   1    0.02    0.05
  -2   0   1    0.05    0.04
   2   0  -1    0.02    0.05
  -2   0   1   -0.05    0.04
   2   0  -1   -0.09    0.04
  -2   0   1    0.01    0.03
   2   0  -1    0.06    0.02
  -2   0   1   -0.01    0.02
  -1   0   1  314.00   28.80
   1   0  -1  323.29   27.98
  -1   0   1  323.21   27.73
   1   0  -1  337.31   28.81
   1   0  -1  287.16   29.06
  -1   0   1  272.82   27.00
  -1   0   1  391.15   30.97
   0   0   1   -0.02    0.01
   0   0   1    0.02    0.01
   0   0  -1    0.02    0.01
   0   0   1    0.00    0.01
   0   0  -1    0.01    0.01
   0   0  -1    0.00    0.01
  -1   0  -1   15.27    1.40
   1   0   1   15.91    1.53
   1   0   1   14.92    1.41
  -1   0  -1   16.56    1.47
   1   0   1   14.25    1.41
  -1   0  -1   15.08    1.39
   1   0   1   16.93    1.59
  -1   0  -1   17.39    1.53
  -2   0  -1    0.02    0.03
  -2   0  -1    0.01    0.05
   2   0   1    0.03    0.05
   2   0   1   -0.06    0.05
   2   0   1    0.07    0.03
  -2   0  -1   -0.07    0.05
   2   0   1    0.01    0.07
  -2   0  -1   -0.06    0.05
   3   0   1    1.29    0.13
  -3   0  -1    1.29    0.14
  -3   0  -1    1.11    0.14
  -3   0  -1    1.28    0.13
   3   0   1    1.14    0.16
  -3   0  -1    1.06    0.15
   3   0   1    1.39    0.14
   3   0   1    1.12    0.12
   4   0   1   -0.07    0.08
  -4   0  -1    0.17    0.09
  -4   0  -1    0.07    0.10
   4   0   1   -0.17    0.10
   4   0   1    0.07    0.06
   4   0   1    0.02    0.12
  -4   0  -1   -0.03    0.09
  -4   0  -1    0.04    0.04
   5   0   1   21.90    2.23
   5   0   1   23.46    2.11
  -5   0  -1   19.83    2.15
   5   0   1   21.94    2.10
  -5   0  -1   23.85    2.26
  -5   0  -1   20.62    2.02
   5   0   1   22.75    2.14
  -5   0  -1   22.51    1.94
  -6   0  -1   -0.02    0.14
   6   0   1   -0.10    0.12
   6   0   1   -0.11    0.16
  -6   0  -1    0.00    0.03
  -6   0  -1    0.02    0.14
   6   0   1   -0.03    0.09
  -7   0  -1    0.46    0.18
   7   0   1    0.27    0.21
   7   0   1    0.50    0.15
   7   0   1    0.27    0.10
  -8   0  -1   -0.25    0.21
   8   0   1    0.12    0.17
   8   0   1    0.17    0.31
  -8   0  -1   -0.11    0.17
   9   0   1    0.82    0.31
  -9   0  -1    0.92    0.25
  -9   0  -1    0.70    0.28
   9   0   1    0.75    0.22
  10   0   1    0.46    0.28
 -10   0  -1   -0.22    0.28
  10   0   1    0.32    0.46
 -10   0  -1    0.15    0.26
 -11   0  -1    0.91    0.40
 -11   0  -1    1.29    0.43
  11   0   1    0.26    0.88
  11  -1  -1    0.11    0.40
 -11  -1   1    0.03    0.31
 -11  -1   1    0.20    0.45
 -11   1   1   -0.17    0.46
 -11   1   1    0.19    0.31
  11   1  -1    0.05    0.42
  10  -1  -1    1.33    0.25
  10  -1  -1    1.34    0.38
 -10  -1   1    1.43    0.30
 -10   1   1    1.55    0.40
 -10   1   1    0.68    0.27
  10   1  -1    0.78    0.36
  -9  -1   1    0.01    0.20
   9  -1  -1    0.03    0.18
   9  -1  -1    0.00    0.27
   9   1  -1    0.04    0.19
   9   1  -1    0.02    0.36
  -9   1   1    0.30    0.23
  -9   1   1   -0.07    0.23
  -8  -1   1    1.06    0.22
   8  -1  -1    1.49    0.20
  -8  -1   1    0.86    0.15
   8  -1  -1    1.38    0.31
   8   1  -1    1.47    0.19
  -8   1   1    1.51    0.24
   8   1  -1    1.44    0.34
  -8   1   1    1.19    0.24
   7  -1  -1   13.42    1.32
  -7  -1   1   12.86    1.33
  -7  -1   1   13.49    1.33
  -7  -1   1   13.64    1.30
   7  -1  -1   13.83    1.23
   7   1  -1   13.51    1.21
  -7   1   1   12.20    1.30
   7   1  -1   14.23    1.27
   7   1  -1   13.07    1.39
  -7   1   1   14.84    1.23
  -6  -1   1    3.65    0.34
   6  -1  -1    3.30    0.38
  -6  -1   1    3.38    0.38
   6  -1  -1    3.65    0.35
  -6  -1   1    3.72    0.37
   6   1  -1    3.68    0.33
  -6   1   1    2.96    0.35
   6   1  -1    3.75    0.35
   6   1  -1    4.12    0.40
  -6   1   1    3.79    0.37
  -5  -1   1    2.22    0.25
   5  -1  -1    2.13    0.27
   5  -1  -1    2.94    0.24
  -5  -1   1    2.15    0.28
   5  -1  -1    2.70    0.26
  -5  -1   1    2.73    0.26
  -5  -1   1    2.83    0.24
  -5  -1   1    2.55    0.26
   5   1  -1    2.77    0.24
   5   1  -1    2.23    0.28
  -5   1   1    2.08    0.24
   5   1  -1    2.75    0.24
  -5   1   1    2.30    0.26
  -5   1   1    2.26    0.25
   5   1  -1    2.34    0.27
   4  -1  -1   22.53    2.14
  -4  -1   1   25.90    2.40
   4  -1  -1   20.51    2.06
  -4  -1   1   22.79    2.09
  -4  -1   1   24.60    2.16
   4  -1  -1   23.17    2.27
  -4  -1   1   24.07    2.07
  -4  -1   1   29.77    2.70
  -4   1   1   25.37    2.10
   4   1  -1   24.17    2.19
  -4   1   1   26.94    2.33
   4   1  -1   23.20    2.45
   4   1  -1   20.99    2.22
   4   1  -1   23.43    2.12
  -4   1   1   22.49    2.07
  -4   1   1   25.23    2.06
  -3  -1   1   49.97    4.64
  -3  -1   1   52.90    4.85
   3  -1  -1   45.89    4.61
   3  -1  -1   50.37    4.86
  -3  -1   1   54.61    4.65
   3  -1  -1   51.72    5.00
  -3  -1   1   57.49    5.01
  -3  -1   1   67.70    5.62
  -3   1   1   59.86    4.67
  -3   1   1   58.18    4.66
  -3   1   1   52.07    4.64
  -3   1   1   51.87    4.71
   3   1  -1   47.53    5.13
   3   1  -1   60.36    5.42
   3   1  -1   51.14    4.83
   3   1  -1   56.01    4.96
   2  -1  -1  131.15   11.81
  -2  -1   1  136.58   12.19
   2  -1  -1  123.58   12.07
  -2  -1   1  131.83   11.27
  -2  -1   1  128.71   11.99
  -2  -1   1  153.28   13.50
   2  -1  -1  121.20   11.22
  -2  -1   1  146.67   13.53
  -2  -1   1  125.90   11.30
  -2   1   1  141.38   11.47
   2   1  -1  140.61   13.47
   2   1  -1  127.04   11.72
   2   1  -1  124.45   11.50
  -2   1   1  131.96   11.37
  -2   1   1  114.18   11.18
   2   1  -1  121.08   13.06
  -2   1   1  133.36   11.38
   2   1  -1  137.74   13.40
   1  -1  -1    0.78    0.08
   1  -1  -1    0.77    0.08
  -1  -1   1    0.68    0.08
  -1  -1   1    0.97    0.08
  -1  -1   1    0.74    0.08
  -1  -1   1    0.97    0.10
   1  -1  -1    0.79    0.08
   1   1  -1    0.68    0.08
  -1   1   1    0.99    0.10
   1   1  -1    0.82    0.08
   1   1  -1    0.89    0.10
  -1   1   1    1.01    0.09
   1   1  -1    1.05    0.10
   1   1  -1    0.94    0.09
  -1   1   1    0.95    0.08
  -1   1   1    0.75    0.08
   0  -1  -1  207.46   19.92
   0  -1  -1  171.61   18.43
   0  -1   1  211.54   18.37
   0  -1  -1  204.82   18.66
   0  -1   1  215.48   18.17
   0  -1   1  225.85   18.30
   0   1  -1  212.83   18.86
   0   1   1  182.27   18.44
   0   1   1  223.66   20.92
   0   1  -1  221.02   18.12
   0   1   1  191.47   18.42
   0   1   1  202.09   19.34
   1  -1   1   48.81    4.45
  -1  -1  -1   44.04    4.57
   1  -1   1   59.07    5.45
   1  -1   1   51.80    4.76
  -1  -1  -1   57.44    5.31
   1  -1   1   56.64    6.06
  -1  -1  -1   49.68    4.44
  -1  -1  -1   48.46    4.54
   1   1   1   59.34    5.99
  -1   1  -1   56.17    4.89
  -1   1  -1   49.42    4.52
   1   1   1   46.73    4.83
   1   1   1   49.94    4.77
  -1   1  -1   53.25    4.55
   1   1   1   46.78    4.48
  -1   1  -1   53.52    4.59
  -2  -1  -1   47.48    4.21
  -2  -1  -1   42.96    4.18
  -2  -1  -1   40.75    4.03
   2  -1   1   39.95    3.83
   2  -1   1   42.94    4.52
  -2  -1  -1   41.71    3.74
  -2  -1  -1   41.18    3.90
   2  -1   1   39.62    4.00
   2   1   1   47.65    4.69
   2   1   1   39.47    4.04
   2   1   1   41.26    3.96
  -2   1  -1   43.65    3.83
   2   1   1   47.85    5.08
  -2   1  -1   43.02    3.86
  -2   1  -1   44.52    4.08
  -2   1  -1   43.87    3.83
  -3  -1  -1   38.48    3.80
  -3  -1  -1   36.03    3.12
  -3  -1  -1   31.86    3.30
   3  -1   1   38.47    3.96
  -3  -1  -1   36.69    3.27
   3  -1   1   33.67    3.41
   3  -1   1   32.51    3.18
   3  -1   1   34.85    3.40
  -3   1  -1   33.87    3.25
   3   1   1   37.44    3.41
  -3   1  -1   39.70    3.62
   3   1   1   35.28    3.69
  -3   1  -1   38.34    3.35
   3   1   1   35.49    3.30
  -3   1  -1   35.63    3.16
   3   1   1   39.48    3.87
  -4  -1  -1   23.33    2.44
   4  -1   1   19.12    1.98
  -4  -1  -1   22.55    1.92
   4  -1   1   21.52    2.20
   4  -1   1   21.89    2.03
  -4  -1  -1   22.71    2.05
  -4  -1  -1   22.72    2.31
   4  -1   1   21.59    2.11
   4   1   1   21.94    2.39
  -4   1  -1   21.59    2.09
  -4   1  -1   20.24    2.06
  -4   1  -1   23.78    1.93
   4   1   1   23.64    2.12
  -4   1  -1   24.42    2.24
   4   1   1   20.80    2.16
   4   1   1   21.26    2.08
   5  -1   1    0.89    0.16
  -5  -1  -1    1.10    0.17
   5  -1   1    0.91    0.17
   5  -1   1    0.91    0.14
  -5  -1  -1    1.06    0.17
  -5  -1  -1    1.09    0.12
   5  -1   1    1.25    0.11
   5   1   1    1.21    0.19
   5   1   1    1.18    0.13
  -5   1  -1    1.08    0.16
  -5   1  -1    0.81    0.14
   5   1   1    0.82    0.15
  -5   1  -1    0.72    0.18
   5   1   1    0.63    0.18
  -5   1  -1    0.82    0.15
  -6  -1  -1    3.74    0.46
  -6  -1  -1    4.55    0.41
   6  -1   1    4.49    0.44
  -6  -1  -1    3.86    0.39
   6  -1   1    4.39    0.38
   6  -1   1    3.79    0.40
  -6   1  -1    4.43    0.47
  -6   1  -1    3.48    0.42
   6   1   1    4.07    0.44
  -6   1  -1    4.33    0.41
   6   1   1    4.17    0.41
   6   1   1    4.77    0.40
   7  -1   1    0.40    0.11
  -7  -1  -1    0.34    0.11
   7  -1   1    0.18    0.22
  -7  -1  -1    0.15    0.17
  -7  -1  -1    0.28    0.16
   7  -1   1    0.40    0.15
   7   1   1    0.29    0.15
   7   1   1    0.48    0.13
   7   1   1    0.21    0.26
  -7   1  -1    0.02    0.18
  -7   1  -1    0.27    0.17
   8  -1   1    7.45    0.62
   8  -1   1    5.85    0.66
  -8  -1  -1    5.72    0.60
  -8   1  -1    5.97    0.66
   8   1   1    6.49    0.60
   8   1   1    5.69    0.67
  -8   1  -1    5.84    0.60
  -9  -1  -1    0.62    0.24
  -9  -1  -1    0.25    0.22
   9  -1   1    0.25    0.20
   9  -1   1   -0.03    0.37
  -9   1  -1    0.10    0.25
   9   1   1    0.53    0.20
   9   1   1   -0.06    0.40
  -9   1  -1    0.33    0.30
 -10  -1  -1    0.48    0.37
  10  -1   1    0.67    0.28
 -10  -1  -1    0.20    0.33
  10  -1   1    0.77    0.45
 -10   1  -1    0.58    0.31
  10   1   1    0.34    0.24
 -10   1  -1    0.46    0.35
  10   1   1    0.00    0.38
  11  -1   1    0.34    0.42
 -11  -1  -1    0.77    0.44
 -11  -1  -1    0.76    0.34
 -11   1  -1    0.87    0.36
  11   1   1   -0.08    0.47
 -11   1  -1   -0.17    0.36
  11  -2  -1   -0.17    0.38
 -11  -2   1    0.27    0.32
  11   2  -1    0.36    0.54
 -11   2   1    1.14    0.48
 -11   2   1    0.08    0.34
  10  -2  -1    0.86    0.25
 -10  -2   1    0.63    0.28
  10  -2  -1    0.52    0.34
 -10   2   1    0.53    0.31
  10   2  -1    0.40    0.46
 -10   2   1    0.52    0.24
   9  -2  -1    3.08    0.44
   9  -2  -1    3.17    0.33
  -9  -2   1    2.99    0.37
   9   2  -1    2.77    0.32
  -9   2   1    2.32    0.36
   9   2  -1    2.43    0.44
  -9   2   1    2.90    0.42
  -8  -2   1    0.57    0.14
   8  -2  -1    0.96    0.16
  -8  -2   1    0.90    0.21
   8  -2  -1    0.77    0.28
  -8   2   1    0.94    0.21
  -8   2   1    1.56    0.27
   8   2  -1    0.78    0.17
   8   2  -1    0.70    0.27
   8   2  -1    0.63    0.17
  -7  -2   1    0.09    0.14
  -7  -2   1    0.03    0.11
  -7  -2   1    0.14    0.12
   7  -2  -1    0.27    0.12
   7  -2  -1   -0.05    0.22
  -7   2   1    0.20    0.15
  -7   2   1    0.05    0.15
  -7   2   1    0.11    0.15
   7   2  -1    0.56    0.21
   7   2  -1    0.12    0.12
   7   2  -1   -0.02    0.13
  -6  -2   1    0.73    0.21
  -6  -2   1    1.28    0.18
  -6  -2   1    1.02    0.16
  -6  -2   1    1.17    0.19
   6  -2  -1    1.33    0.18
   6  -2  -1    1.28    0.22
  -6  -2   1    1.21    0.14
   6  -2  -1    1.01    0.16
   6   2  -1    1.40    0.16
   6   2  -1    1.10    0.16
  -6   2   1    1.01    0.17
  -6   2   1    0.95    0.16
  -6   2   1    1.67    0.19
   6   2  -1    1.57    0.26
  -5  -2   1    1.20    0.19
   5  -2  -1    0.84    0.16
  -5  -2   1    1.08    0.17
  -5  -2   1    1.32    0.15
   5  -2  -1    1.27    0.15
  -5  -2   1    1.03    0.17
  -5  -2   1    1.20    0.16
   5  -2  -1    1.01    0.16
  -5  -2   1    1.48    0.15
  -5   2   1    0.91    0.15
   5   2  -1    1.10    0.15
  -5   2   1    1.14    0.15
  -5   2   1    1.52    0.18
   5   2  -1    1.18    0.16
  -5   2   1    1.04    0.18
   5   2  -1    1.31    0.15
   5   2  -1    1.24    0.22
   4  -2  -1   46.09    4.52
  -4  -2   1   57.91    5.45
   4  -2  -1   43.14    4.31
   4  -2  -1   45.37    4.13
  -4  -2   1   50.96    5.12
  -4  -2   1   47.22    4.66
  -4  -2   1   47.73    4.16
  -4  -2   1   57.32    4.81
  -4  -2   1   44.02    4.09
  -4   2   1   52.63    4.36
   4   2  -1   50.00    4.93
   4   2  -1   46.52    4.27
  -4   2   1   41.65    4.12
   4   2  -1   46.65    4.41
  -4   2   1   50.53    4.12
  -4   2   1   56.12    5.05
   4   2  -1   47.22    5.07
  -3  -2   1    0.05    0.05
  -3  -2   1    0.07    0.05
  -3  -2   1   -0.05    0.07
  -3  -2   1    0.06    0.08
   3  -2  -1    0.01    0.05
  -3  -2   1   -0.01    0.06
   3  -2  -1    0.05    0.08
  -3  -2   1    0.01    0.06
   3  -2  -1    0.10    0.08
   3   2  -1    0.00    0.06
  -3   2   1   -0.01    0.05
   3   2  -1    0.05    0.06
  -3   2   1   -0.01    0.07
   3   2  -1    0.03    0.07
  -3   2   1    0.13    0.05
   3   2  -1   -0.09    0.11
  -3   2   1    0.04    0.07
  -2  -2   1  132.33   12.14
   2  -2  -1  131.93   12.29
  -2  -2   1  148.25   13.26
  -2  -2   1  129.64   12.09
   2  -2  -1  125.73   12.36
   2  -2  -1  146.06   12.30
  -2  -2   1  161.01   13.95
   2  -2  -1  149.02   17.82
  -2   2   1  140.71   12.20
   2   2  -1  133.07   12.48
   2   2  -1  167.11   15.24
   2   2  -1  151.45   14.66
   2   2  -1  150.68   16.51
   2   2  -1  124.26   12.21
  -2   2   1  141.48   12.16
  -2   2   1  142.60   12.03
   2   2  -1  135.98   14.79
  -2   2   1  134.72   12.11
  -2   2   1  155.43   13.49
   1  -2  -1    2.04    0.19
   1  -2  -1    1.64    0.17
   1  -2  -1    1.98    0.18
  -1  -2   1    2.46    0.21
  -1  -2   1    1.98    0.18
   1  -2  -1    1.88    0.25
  -1  -2   1    2.31    0.19
  -1  -2   1    1.84    0.18
  -1   2   1    1.87    0.17
   1   2  -1    1.80    0.18
   1   2  -1    1.88    0.19
  -1   2   1    1.95    0.18
  -1   2   1    2.38    0.18
  -1   2   1    2.16    0.19
   1   2  -1    2.09    0.19
   1   2  -1    1.99    0.19
   0  -2   1  213.15   18.46
   0  -2   1  204.42   18.27
   0  -2   1  211.23   18.49
   0  -2  -1  186.63   19.15
   0  -2  -1  213.07   21.04
   0   2   1  222.19   19.42
   0   2   1  178.54   19.13
   0   2  -1  221.33   18.14
   0   2   1  202.99   18.89
   0   2  -1  215.76   18.38
   0   2  -1  218.20   21.21
   0   2  -1  234.13   18.25
   0   2   1  193.48   18.37
   1  -2   1  349.05   31.18
  -1  -2  -1  301.16   29.84
   1  -2   1  333.89   30.77
   1  -2   1  359.15   33.19
   1  -2   1  328.64   29.07
  -1  -2  -1  305.53   29.19
   1  -2   1  329.51   28.71
  -1  -2  -1  363.56   33.35
   1   2   1  301.56   30.47
   1   2   1  311.18   29.64
   1   2   1  314.65   29.04
  -1   2  -1  360.35   28.61
  -1   2  -1  339.23   30.58
  -1   2  -1  327.68   28.92
   1   2   1  371.49   33.00
  -2  -2  -1   12.73    1.14
   2  -2   1   12.98    1.52
  -2  -2  -1   14.31    1.33
   2  -2   1   10.95    1.08
   2  -2   1   12.18    1.18
  -2  -2  -1   12.37    1.09
   2  -2   1   12.74    1.29
  -2  -2  -1   11.88    1.13
   2   2   1   12.28    1.27
   2   2   1   13.34    1.35
  -2   2  -1   11.60    1.08
   2   2   1   12.62    1.14
  -2   2  -1   13.55    1.14
   2   2   1   13.08    1.38
  -2   2  -1   13.51    1.14
   2   2   1   11.41    1.11
  -2   2  -1   13.24    1.12
  -3  -2  -1    8.09    0.78
  -3  -2  -1    7.93    0.68
  -3  -2  -1    6.92    0.70
   3  -2   1    6.54    0.67
   3  -2   1    7.34    0.72
  -3  -2  -1    7.65    0.68
   3  -2   1    7.37    0.71
   3   2   1    7.12    0.72
  -3   2  -1    7.99    0.71
  -3   2  -1    8.52    0.72
   3   2   1    7.27    0.76
   3   2   1    7.48    0.71
   3   2   1    8.12    0.83
  -3   2  -1    8.42    0.68
  -4  -2  -1   77.96    6.83
  -4  -2  -1   68.22    7.23
   4  -2   1   77.25    7.62
  -4  -2  -1   83.24    7.25
  -4  -2  -1   77.65    7.51
   4  -2   1   78.74    7.24
  -4  -2  -1   80.01    8.43
   4  -2   1   73.89    6.91
   4  -2   1   77.13    7.30
   4   2   1   75.79    8.09
   4   2   1   79.94    7.65
  -4   2  -1   74.41    7.06
  -4   2  -1   85.61    7.71
   4   2   1   74.99    7.20
   4   2   1   80.14    8.80
  -4   2  -1   86.29    6.87
  -4   2  -1   89.81    8.30
   5  -2   1   -0.15    0.11
  -5  -2  -1    0.01    0.13
  -5  -2  -1    0.12    0.10
  -5  -2  -1    0.10    0.10
   5  -2   1    0.02    0.10
   5  -2   1    0.12    0.04
   5  -2   1   -0.10    0.12
  -5  -2  -1    0.13    0.08
  -5   2  -1    0.12    0.10
   5   2   1   -0.08    0.15
   5   2   1   -0.10    0.10
  -5   2  -1    0.00    0.10
  -5   2  -1    0.04    0.12
   5   2   1   -0.06    0.12
  -6  -2  -1   37.93    4.31
   6  -2   1   40.25    4.16
  -6  -2  -1   41.68    4.39
   6  -2   1   40.53    3.71
  -6  -2  -1   41.67    3.90
  -6  -2  -1   40.97    3.60
   6   2   1   39.78    3.97
  -6   2  -1   39.04    3.87
   6   2   1   37.49    3.98
  -6   2  -1   45.00    4.42
  -6   2  -1   44.46    3.69
   6   2   1   43.16    4.42
  -7  -2  -1    1.16    0.21
  -7  -2  -1    0.55    0.20
   7  -2   1    1.22    0.23
   7  -2   1    0.99    0.19
  -7  -2  -1    1.01    0.16
  -7   2  -1    0.99    0.23
   7   2   1    1.25    0.18
  -7   2  -1    1.00    0.20
   7   2   1    1.62    0.37
   7   2   1    1.35    0.19
  -8  -2  -1    8.00    0.76
   8  -2   1    7.54    0.77
   8  -2   1    8.49    0.75
  -8  -2  -1    7.84    0.74
   8   2   1    7.68    0.82
  -8   2  -1    8.35    0.74
  -8   2  -1    7.04    0.78
   8   2   1    7.14    0.76
  -9  -2  -1   -0.22    0.22
   9  -2   1    0.05    0.19
   9  -2   1   -0.07    0.28
  -9   2  -1    0.03    0.24
   9   2   1    0.06    0.26
  -9   2  -1   -0.20    0.29
   9   2   1    0.06    0.33
  10  -2   1    0.16    0.44
 -10  -2  -1    0.10    0.33
  10  -2   1   -0.15    0.27
 -10   2  -1    0.11    0.23
  10   2   1    0.45    0.41
 -10   2  -1   -0.14    0.35
  11  -2   1   -0.17    0.49
 -11  -2  -1    0.56    0.41
  11   2   1   -0.10    0.60
 -11   2  -1    0.15    0.35
 -11   2  -1   -0.10    0.35
 -11  -3   1   -0.21    0.33
  11  -3  -1    0.13    0.45
 -11   3   1    0.01    0.33
 -11   3   1   -0.07    0.46
  11   3  -1    1.20    0.59
  10  -3  -1    0.69    0.26
 -10  -3   1    0.05    0.27
  10  -3  -1    0.55    0.39
  10   3  -1    0.31    0.40
 -10   3   1    0.86    0.33
 -10   3   1    0.21    0.27
  -9  -3   1    0.03    0.26
   9  -3  -1   -0.02    0.25
   9  -3  -1    0.25    0.19
   9   3  -1    0.05    0.19
  -9   3   1    0.12    0.22
  -9   3   1    0.37    0.26
   9   3  -1    0.03    0.39
  -8  -3   1    2.19    0.27
   8  -3  -1    2.27    0.36
  -8  -3   1    3.00    0.35
   8  -3  -1    2.99    0.30
  -8   3   1    2.05    0.32
  -8   3   1    2.54    0.30
   8   3  -1    2.40    0.28
   8   3  -1    2.35    0.42
  -7  -3   1   14.05    1.67
  -7  -3   1   19.65    1.63
   7  -3  -1   15.64    1.64
   7  -3  -1   17.79    1.57
  -7  -3   1   18.22    1.59
   7   3  -1   16.36    1.63
   7   3  -1   18.35    1.80
  -7   3   1   17.80    1.99
   7   3  -1   16.33    1.69
  -7   3   1   17.70    1.61
   6  -3  -1   -0.07    0.10
  -6  -3   1    0.02    0.12
  -6  -3   1    0.06    0.13
   6  -3  -1    0.13    0.14
  -6  -3   1   -0.05    0.10
  -6  -3   1    0.10    0.12
   6  -3  -1   -0.16    0.12
   6   3  -1    0.08    0.15
   6   3  -1   -0.13    0.23
   6   3  -1   -0.10    0.10
  -6   3   1    0.03    0.16
  -6   3   1   -0.04    0.11
  -6   3   1   -0.02    0.12
   5  -3  -1   56.75    5.28
  -5  -3   1   53.10    4.71
   5  -3  -1   49.61    4.91
  -5  -3   1   55.01    4.67
  -5  -3   1   55.91    5.86
   5  -3  -1   52.51    4.76
  -5  -3   1   56.64    5.37
  -5  -3   1   55.04    5.50
  -5   3   1   50.01    4.75
  -5   3   1   60.89    6.38
   5   3  -1   53.71    6.01
   5   3  -1   56.40    5.75
  -5   3   1   54.96    4.73
   5   3  -1   52.00    4.83
   4  -3  -1  133.59   13.00
   4  -3  -1  128.14   12.38
  -4  -3   1  142.48   12.36
  -4  -3   1  140.76   13.15
   4  -3  -1  138.32   13.09
  -4  -3   1  163.19   17.68
  -4  -3   1  154.31   14.42
  -4  -3   1  144.05   12.66
   4   3  -1  141.76   12.86
   4   3  -1  164.73   18.42
  -4   3   1  160.17   12.49
  -4   3   1  134.89   12.52
  -4   3   1  163.44   14.61
   4   3  -1  146.39   13.62
  -4   3   1  131.19   12.39
   4   3  -1  159.23   15.30
  -3  -3   1    3.33    0.30
  -3  -3   1    3.08    0.30
  -3  -3   1    2.89    0.28
   3  -3  -1    3.41    0.27
   3  -3  -1    2.87    0.28
  -3  -3   1    2.83    0.28
   3  -3  -1    3.02    0.28
  -3   3   1    2.79    0.28
  -3   3   1    2.97    0.27
  -3   3   1    2.70    0.26
   3   3  -1    3.22    0.34
   3   3  -1    2.74    0.29
   3   3  -1    3.41    0.32
   3   3  -1    2.89    0.29
   3   3  -1    3.16    0.32
  -2  -3   1    5.10    0.50
  -2  -3   1    5.37    0.46
  -2  -3   1    4.64    0.42
  -2  -3   1    4.97    0.42
   2  -3  -1    4.37    0.42
   2  -3  -1    5.11    0.43
   2  -3  -1    4.22    0.41
   2  -3  -1    4.38    0.48
  -2   3   1    4.77    0.41
  -2   3   1    4.29    0.42
   2   3  -1    5.20    0.48
  -2   3   1    5.47    0.45
  -2   3   1    4.90    0.42
  -2   3   1    3.95    0.43
   2   3  -1    5.12    0.48
   2   3  -1    4.44    0.42
   2   3  -1    4.28    0.42
   2   3  -1    5.08    0.50
  -1  -3   1  223.71   20.30
  -1  -3   1  186.59   18.41
  -1  -3   1  218.10   19.21
  -1  -3   1  222.12   19.01
   1  -3  -1  229.30   20.78
   1  -3  -1  224.52   24.39
  -1   3   1  190.85   18.54
   1   3  -1  204.20   20.91
   1   3  -1  226.41   19.31
   1   3  -1  226.60   20.40
  -1   3   1  194.96   19.69
  -1   3   1  196.92   18.34
   1   3  -1  222.94   19.78
  -1   3   1  229.94   19.46
   0  -3  -1    6.24    0.61
   0  -3   1    6.59    0.57
   0  -3   1    6.12    0.60
   0  -3   1    6.31    0.58
   0  -3  -1    6.65    0.57
   0  -3  -1    5.84    0.58
   0   3  -1    6.46    0.66
   0   3  -1    7.68    0.58
   0   3   1    6.30    0.58
   0   3  -1    6.95    0.58
   0   3   1    5.64    0.59
   0   3   1    6.52    0.58
   0   3  -1    7.04    0.60
   1  -3   1   17.23    1.55
   1  -3   1   18.12    1.58
  -1  -3  -1   16.79    1.53
   1  -3   1   17.46    1.61
   1  -3   1   18.62    1.52
  -1  -3  -1   14.93    1.55
  -1  -3  -1   17.97    1.62
   1  -3   1   18.14    1.67
   1   3   1   16.86    1.55
  -1   3  -1   17.49    1.63
  -1   3  -1   18.38    1.55
   1   3   1   14.05    1.57
  -1   3  -1   18.61    1.57
   1   3   1   16.21    1.60
   1   3   1   18.94    1.70
  -1   3  -1   18.77    1.52
  -2  -3  -1    8.41    0.78
   2  -3   1    8.60    0.74
   2  -3   1    8.20    0.78
   2  -3   1    7.81    0.74
  -2  -3  -1    7.78    0.76
   2  -3   1    8.43    1.01
   2  -3   1    8.45    0.76
  -2  -3  -1    9.29    0.83
  -2  -3  -1    8.42    0.75
  -2  -3  -1    8.59    0.75
   2   3   1    9.62    0.85
  -2   3  -1    9.10    0.77
  -2   3  -1    9.13    0.78
  -2   3  -1    8.00    0.74
   2   3   1    8.29    0.77
  -2   3  -1    8.09    0.80
   2   3   1    7.83    0.79
   2   3   1    8.10    0.78
   3  -3   1    0.97    0.18
  -3  -3  -1    1.20    0.16
   3  -3   1    1.68    0.17
  -3  -3  -1    1.14    0.16
  -3  -3  -1    1.44    0.16
   3  -3   1    1.48    0.14
  -3  -3  -1    1.36    0.15
   3  -3   1    1.21    0.12
   3  -3   1    1.46    0.15
  -3  -3  -1    1.22    0.13
   3   3   1    0.93    0.15
  -3   3  -1    1.34    0.14
   3   3   1    1.35    0.16
  -3   3  -1    1.23    0.16
   3   3   1    1.48    0.21
  -3   3  -1    1.60    0.17
  -3   3  -1    1.45    0.73
   3   3   1    1.04    0.16
   3   3   1    1.16    0.14
  -4  -3  -1    4.07    0.36
   4  -3   1    3.98    0.35
   4  -3   1    3.64    0.36
  -4  -3  -1    3.85    0.36
  -4  -3  -1    3.70    0.42
   4  -3   1    3.22    0.38
  -4  -3  -1    2.98    0.34
   4  -3   1    3.43    0.32
  -4  -3  -1    4.15    0.35
  -4   3  -1    3.12    0.34
   4   3   1    3.28    0.39
   4   3   1    3.87    0.38
  -4   3  -1    3.81    0.34
  -4   3  -1    3.93    0.36
   4   3   1    3.23    0.36
   4   3   1    4.13    0.36
  -4   3  -1    4.15    0.36
   5  -3   1   18.12    1.72
  -5  -3  -1   19.68    1.75
  -5  -3  -1   19.14    1.70
  -5  -3  -1   18.54    2.24
   5  -3   1   20.29    1.92
  -5  -3  -1   21.73    1.84
   5  -3   1   19.98    1.82
  -5  -3  -1   17.00    1.94
   5  -3   1   17.55    1.71
   5   3   1   19.72    1.81
   5   3   1   20.32    2.05
   5   3   1   18.60    1.92
  -5   3  -1   19.76    2.39
  -5   3  -1   19.11    1.82
  -5   3  -1   21.77    1.71
   6  -3   1    0.37    0.17
  -6  -3  -1    0.60    0.14
   6  -3   1    0.18    0.14
   6  -3   1    0.46    0.13
  -6  -3  -1    0.37    0.15
  -6  -3  -1    0.21    0.11
  -6  -3  -1    0.19    0.17
  -6  -3  -1    0.26    0.13
  -6   3  -1    0.41    0.17
   6   3   1    0.39    0.15
   6   3   1    0.17    0.24
   6   3   1    0.36    0.15
  -6   3  -1    0.25    0.13
   7  -3   1    0.43    0.16
   7  -3   1    0.51    0.21
  -7  -3  -1    0.14    0.18
  -7  -3  -1    0.54    0.18
  -7  -3  -1    0.32    0.13
   7   3   1    0.55    0.17
  -7   3  -1    0.55    0.17
  -7   3  -1    1.23    0.25
   7   3   1    0.42    0.30
   7   3   1    0.16    0.18
   8  -3   1    0.60    0.19
  -8  -3  -1    0.09    0.20
  -8  -3  -1    0.40    0.14
   8  -3   1    0.34    0.29
  -8   3  -1    0.26    0.19
   8   3   1    0.28    0.31
  -8   3  -1    0.61    0.25
   8   3   1    0.31    0.23
   9  -3   1    0.61    0.22
   9  -3   1    0.83    0.36
  -9  -3  -1    0.73    0.26
   9   3   1    0.81    0.29
  -9   3  -1    0.36    0.24
  -9   3  -1    0.73    0.31
   9   3   1    0.98    0.40
 -10  -3  -1   -0.07    0.35
  10  -3   1   -0.08    0.25
  10  -3   1   -0.32    0.33
 -10   3  -1   -0.70    0.36
  10   3   1   -0.19    0.41
 -10   3  -1   -0.12    0.27
 -11  -3  -1    0.35    0.44
  11  -3   1    0.80    0.50
 -11   3  -1    0.27    0.45
 -11   3  -1    0.08    0.82
  11   3   1    1.43    1.38
 -11  -4   1   -0.67    0.43
  11  -4  -1   -0.09    0.72
  11   4  -1   -0.23    0.61
 -11   4   1    0.12    0.38
 -11   4   1   -0.43    0.31
  10  -4  -1    0.13    0.37
 -10  -4   1    0.28    0.35
 -10   4   1    0.34    0.39
 -10   4   1    0.09    0.26
  10   4  -1   -0.24    0.49
  -9  -4   1    4.40    0.46
   9  -4  -1    4.11    0.42
   9  -4  -1    3.11    0.49
  -9   4   1    3.19    0.43
   9   4  -1    3.64    0.57
   9   4  -1    4.53    0.43
  -9   4   1    4.19    0.51
  -8  -4   1    1.00    0.27
  -8  -4   1    0.97    0.22
   8  -4  -1    1.28    0.21
   8  -4  -1    1.13    0.29
  -8   4   1    1.02    0.21
   8   4  -1    1.21    0.21
   8   4  -1    1.14    0.38
  -8   4   1    1.22    0.25
  -7  -4   1   18.57    1.62
   7  -4  -1   16.75    1.76
   7  -4  -1   18.12    1.59
  -7  -4   1   18.48    1.60
  -7   4   1   17.89    1.69
   7   4  -1   14.65    1.71
   7   4  -1   17.19    1.88
  -7   4   1   17.69    1.87
   6  -4  -1    8.02    0.78
  -6  -4   1    6.99    0.87
   6  -4  -1    8.97    0.77
  -6  -4   1    8.61    0.78
  -6  -4   1    7.81    0.77
   6  -4  -1    9.36    1.21
  -6  -4   1    8.67    0.85
  -6   4   1    9.30    0.78
  -6   4   1   10.23    1.04
   6   4  -1    7.92    0.92
   6   4  -1    8.29    0.83
   6   4  -1    8.21    0.81
  -5  -4   1    9.16    0.81
   5  -4  -1    9.34    0.84
   5  -4  -1    8.93    0.80
  -5  -4   1   10.09    0.82
   5  -4  -1    8.47    0.83
  -5  -4   1    8.91    0.87
  -5  -4   1    8.69    0.97
  -5   4   1    9.56    0.81
  -5   4   1    9.33    0.81
   5   4  -1    8.64    0.90
  -5   4   1   10.82    1.05
   5   4  -1    7.99    0.84
   5   4  -1    7.97    0.89
   4  -4  -1    0.28    0.09
  -4  -4   1    0.49    0.13
   4  -4  -1    0.22    0.12
  -4  -4   1    0.28    0.13
   4  -4  -1    0.47    0.06
  -4  -4   1    0.44    0.12
  -4  -4   1    0.59    0.09
   4   4  -1    0.42    0.11
   4   4  -1    0.52    0.11
   4   4  -1    0.34    0.14
   4   4  -1    0.44    0.13
  -4   4   1    0.38    0.12
  -4   4   1    0.59    0.09
  -4   4   1    0.46    0.12
  -4   4   1    0.30    0.11
   4   4  -1    0.46    0.20
  -3  -4   1    4.27    0.38
  -3  -4   1    4.03    0.39
  -3  -4   1    3.88    0.37
   3  -4  -1    3.73    0.39
   3  -4  -1    3.89    0.37
   3  -4  -1    3.29    0.33
  -3  -4   1    3.15    0.34
   3  -4  -1    4.23    0.37
  -3   4   1    3.78    0.33
   3   4  -1    4.24    0.41
  -3   4   1    3.62    0.35
  -3   4   1    3.85    0.36
   3   4  -1    4.11    0.39
  -3   4   1    3.95    0.34
   3   4  -1    3.31    0.35
   3   4  -1    3.62    0.35
   3   4  -1    3.40    0.35
  -3   4   1    4.39    0.38
   3   4  -1    4.00    0.41
   2  -4  -1   -0.03    0.03
  -2  -4   1    0.10    0.05
   2  -4  -1   -0.11    0.06
  -2  -4   1    0.02    0.09
  -2  -4   1    0.01    0.07
   2  -4  -1    0.15    0.09
   2  -4  -1   -0.08    0.07
  -2  -4   1    0.02    0.06
  -2   4   1   -0.07    0.07
   2   4  -1    0.05    0.07
   2   4  -1   -0.05    0.05
  -2   4   1    0.06    0.09
   2   4  -1   -0.03    0.12
  -2   4   1    0.01    0.03
  -2   4   1   -0.01    0.05
  -2   4   1    0.11    0.08
   2   4  -1   -0.04    0.07
  -1  -4   1    0.77    0.11
  -1  -4   1    0.69    0.10
   1  -4  -1    0.46    0.10
   1  -4  -1    0.57    0.08
  -1  -4   1    0.45    0.07
   1   4  -1    0.59    0.08
  -1   4   1    0.51    0.05
  -1   4   1    0.55    0.08
  -1   4   1    0.55    0.11
   1   4  -1    0.65    0.11
  -1   4   1    0.53    0.09
   1   4  -1    0.49    0.08
   1   4  -1    0.53    0.09
   0  -4  -1    4.85    0.46
   0  -4  -1    4.72    0.47
   0  -4   1    4.96    0.48
   0  -4   1    5.12    0.46
   0  -4  -1    4.80    0.50
   0  -4   1    5.25    0.46
   0   4  -1    5.24    0.47
   0   4   1    5.31    0.48
   0   4  -1    4.97    0.53
   0   4   1    5.19    0.45
   0   4   1    5.35    0.51
   0   4  -1    5.76    0.49
   1  -4   1   23.29    2.08
   1  -4   1   24.60    2.64
  -1  -4  -1   21.17    2.13
  -1  -4  -1   23.82    2.24
  -1  -4  -1   20.84    2.10
   1   4   1   21.99    2.21
  -1   4  -1   24.85    2.12
  -1   4  -1   24.92    2.09
   1   4   1   22.91    2.13
  -1   4  -1   26.77    2.07
   1   4   1   22.49    2.14
  -1   4  -1   26.63    2.20
   2  -4   1    3.35    0.38
   2  -4   1    3.53    0.36
   2  -4   1    3.87    0.34
   2  -4   1    3.98    0.35
  -2  -4  -1    3.37    0.34
  -2  -4  -1    3.61    0.34
  -2  -4  -1    3.68    0.35
   2  -4   1    3.86    0.34
  -2  -4  -1    3.88    0.47
   2   4   1    3.80    0.36
  -2   4  -1    3.97    0.34
  -2   4  -1    4.04    0.35
   2   4   1    3.17    0.36
   2   4   1    3.48    0.36
   2   4   1    3.26    0.34
  -2   4  -1    3.65    0.36
  -3  -4  -1   37.64    3.36
  -3  -4  -1   34.11    3.45
  -3  -4  -1   36.17    3.30
   3  -4   1   35.68    3.35
   3  -4   1   39.83    3.69
   3  -4   1   41.52    3.82
   3  -4   1   34.92    3.24
  -3  -4  -1   38.02    3.89
   3  -4   1   36.08    3.41
   3   4   1   36.98    3.48
   3   4   1   35.00    3.92
  -3   4  -1   37.78    3.28
  -3   4  -1   39.22    3.38
  -3   4  -1   40.13    3.35
  -3   4  -1   37.35    3.24
   3   4   1   39.45    3.48
   3   4   1   40.78    3.99
  -4  -4  -1   37.12    4.49
   4  -4   1   36.70    3.45
  -4  -4  -1   37.06    3.37
   4  -4   1   38.75    3.75
   4  -4   1   34.38    3.45
   4  -4   1   40.62    3.62
   4  -4   1   36.97    3.38
  -4  -4  -1   37.57    3.70
  -4  -4  -1   37.70    3.50
   4   4   1   36.54    3.56
  -4   4  -1   42.02    3.44
  -4   4  -1   40.85    3.36
   4   4   1   36.16    3.71
   4   4   1   37.33    3.89
   4   4   1   36.44    3.70
  -4   4  -1   41.41    3.68
  -4   4  -1   42.98    3.65
   5  -4   1    2.28    0.19
   5  -4   1    2.47    0.19
  -5  -4  -1    2.02    0.23
  -5  -4  -1    1.87    0.24
  -5  -4  -1    1.65    0.25
   5  -4   1    1.70    0.22
  -5  -4  -1    1.95    0.24
  -5  -4  -1    1.84    0.23
   5  -4   1    1.97    0.24
   5  -4   1    1.81    0.23
  -5   4  -1    1.84    0.22
   5   4   1    2.03    0.25
   5   4   1    2.00    0.30
   5   4   1    2.06    0.26
  -5   4  -1    2.61    0.27
  -6  -4  -1    3.17    0.42
  -6  -4  -1    4.13    0.42
   6  -4   1    4.04    0.47
  -6  -4  -1    4.77    0.41
  -6  -4  -1    3.82    0.42
   6  -4   1    4.62    0.41
  -6  -4  -1    3.74    0.48
   6  -4   1    4.08    0.41
  -6   4  -1    4.43    0.40
  -6   4  -1    5.16    0.47
   6   4   1    4.19    0.47
   6   4   1    4.15    0.48
  -7  -4  -1    1.91    0.29
   7  -4   1    1.18    0.30
  -7  -4  -1    1.72    0.23
   7  -4   1    1.87    0.24
  -7   4  -1    2.12    0.29
   7   4   1    1.97    0.27
   7   4   1    1.89    0.37
  -7   4  -1    1.56    0.23
  -8  -4  -1    2.73    0.34
   8  -4   1    2.90    0.34
   8  -4   1    2.40    0.40
  -8  -4  -1    3.25    0.39
   8   4   1    2.68    0.44
  -8   4  -1    3.15    0.61
  -8   4  -1    3.03    0.39
   8   4   1    2.78    0.37
   9  -4   1    0.00    0.23
   9  -4   1   -0.16    0.28
  -9  -4  -1   -0.23    0.30
  -9   4  -1    0.11    0.21
   9   4   1   -0.27    0.28
  -9   4  -1   -0.08    0.32
   9   4   1   -0.36    0.47
  10  -4   1    0.85    0.30
  10  -4   1    0.97    0.36
 -10  -4  -1    1.22    0.40
  10   4   1    0.57    0.53
 -10   4  -1    0.28    0.42
 -10   4  -1    0.14    0.28
  10  -5  -1    0.68    0.44
 -10  -5   1    1.67    0.42
 -10   5   1    0.67    0.32
 -10   5   1    2.11    0.47
  10   5  -1    1.57    0.54
   9  -5  -1    0.74    0.34
  -9  -5   1    0.36    0.25
  -9  -5   1    0.89    0.33
  -9   5   1    0.41    0.29
   9   5  -1    1.39    0.47
  -9   5   1    0.44    0.22
  -8  -5   1    0.12    0.21
  -8  -5   1    0.16    0.25
   8  -5  -1    0.70    0.29
   8   5  -1    0.76    0.31
   8   5  -1    0.25    0.21
  -8   5   1    0.19    0.19
  -8   5   1    0.53    0.27
  -7  -5   1    0.24    0.27
   7  -5  -1   -0.16    0.22
  -7  -5   1   -0.10    0.15
  -7   5   1    0.07    0.15
   7   5  -1   -0.14    0.18
  -7   5   1    0.20    0.22
   7   5  -1   -0.07    0.25
  -6  -5   1    0.29    0.12
  -6  -5   1    0.00    0.16
  -6  -5   1    0.05    0.17
   6  -5  -1    0.00    0.16
   6  -5  -1    0.11    0.13
  -6   5   1   -0.03    0.11
   6   5  -1   -0.07    0.20
  -6   5   1    0.16    0.16
   6   5  -1   -0.01    0.15
   5  -5  -1    0.37    0.10
   5  -5  -1    0.09    0.14
  -5  -5   1    0.14    0.12
  -5  -5   1    0.24    0.12
   5  -5  -1    0.38    0.04
  -5  -5   1    0.40    0.12
   5   5  -1    0.43    0.24
   5   5  -1    0.28    0.14
  -5   5   1    0.25    0.15
  -5   5   1    0.11    0.09
  -4  -5   1   40.00    3.72
  -4  -5   1   46.15    4.38
   4  -5  -1   43.17    3.95
  -4  -5   1   37.37    3.52
   4  -5  -1   34.97    3.51
   4  -5  -1   40.42    3.70
  -4  -5   1   39.63    3.56
  -4   5   1   48.29    4.09
   4   5  -1   39.64    3.80
   4   5  -1   43.07    4.24
   4   5  -1   41.98    4.39
   4   5  -1   38.51    3.76
  -4   5   1   42.27    3.64
  -4   5   1   39.74    3.52
   4   5  -1   37.19    3.71
   3  -5  -1    1.83    0.19
  -3  -5   1    1.43    0.19
  -3  -5   1    1.56    0.16
   3  -5  -1    1.40    0.24
  -3  -5   1    1.50    0.21
   3  -5  -1    1.91    0.17
  -3  -5   1    1.67    0.18
   3  -5  -1    1.64    0.15
  -3   5   1    1.73    0.20
  -3   5   1    1.53    0.19
  -3   5   1    1.62    0.18
   3   5  -1    1.25    0.23
   3   5  -1    1.61    0.17
   3   5  -1    1.33    0.19
   3   5  -1    1.65    0.19
  -3   5   1    1.81    0.17
   3   5  -1    1.94    0.19
  -2  -5   1   11.61    1.10
  -2  -5   1   13.06    1.15
   2  -5  -1   12.74    1.13
   2  -5  -1   11.74    1.47
  -2  -5   1   12.46    1.15
   2   5  -1   12.37    1.19
  -2   5   1   11.80    1.13
   2   5  -1   13.03    1.15
  -2   5   1   13.13    1.13
  -2   5   1   13.36    1.10
   2   5  -1   10.44    1.22
   2   5  -1   10.96    1.14
  -2   5   1   15.70    1.42
  -2   5   1   13.71    1.16
   1  -5  -1   23.07    2.14
  -1  -5   1   23.67    2.21
  -1  -5   1   22.64    2.07
   1  -5  -1   21.33    2.23
  -1  -5   1   21.05    2.03
  -1   5   1   23.90    2.19
   1   5  -1   22.75    2.21
   1   5  -1   23.04    2.35
  -1   5   1   25.06    2.08
  -1   5   1   23.80    2.04
  -1   5   1   22.97    2.13
   1   5  -1   24.68    2.27
   1   5  -1   21.83    2.45
   0  -5  -1   30.43    3.48
   0  -5   1   36.81    3.66
   0  -5  -1   32.66    3.30
   0  -5  -1   36.93    3.52
   0  -5   1   36.04    3.42
   0  -5   1   38.32    3.38
   0   5   1   36.36    3.43
   0   5  -1   42.74    3.31
   0   5  -1   40.83    3.90
   0   5   1   37.57    3.79
   0   5   1   39.31    3.41
   0   5  -1   39.94    3.60
  -1  -5  -1    0.33    0.08
  -1  -5  -1    0.02    0.10
   1  -5   1    0.08    0.12
  -1  -5  -1   -0.05    0.09
   1  -5   1    0.02    0.07
   1   5   1    0.07    0.07
   1   5   1   -0.13    0.10
  -1   5  -1    0.09    0.09
   1   5   1    0.10    0.09
  -1   5  -1    0.20    0.09
   1   5   1    0.00    0.03
  -1   5  -1   -0.05    0.08
  -1   5  -1    0.06    0.09
  -2  -5  -1    4.75    0.43
  -2  -5  -1    4.27    0.43
   2  -5   1    4.29    0.44
  -2  -5  -1    4.00    0.42
   2  -5   1    4.85    0.43
   2  -5   1    4.53    0.50
  -2   5  -1    4.73    0.46
  -2   5  -1    4.43    0.42
  -2   5  -1    4.98    0.41
   2   5   1    4.32    0.43
   2   5   1    5.11    0.49
   2   5   1    4.89    0.43
  -2   5  -1    5.20    0.42
   2   5   1    4.01    0.44
   3  -5   1   13.98    1.23
   3  -5   1   12.68    1.21
  -3  -5  -1   12.10    1.23
  -3  -5  -1   12.79    1.28
  -3  -5  -1   13.29    1.26
   3  -5   1   14.08    1.24
  -3  -5  -1   14.37    1.21
   3  -5   1   12.52    1.22
   3  -5   1   14.07    1.33
  -3   5  -1   16.02    1.29
  -3   5  -1   13.76    1.21
   3   5   1   12.14    1.25
   3   5   1   13.93    1.43
   3   5   1   12.79    1.25
  -3   5  -1   15.11    1.22
   3   5   1   13.25    1.37
  -3   5  -1   14.73    1.21
  -4  -5  -1    0.14    0.11
  -4  -5  -1    0.04    0.07
   4  -5   1   -0.08    0.11
  -4  -5  -1    0.13    0.12
   4  -5   1    0.09    0.06
   4  -5   1    0.09    0.19
   4  -5   1    0.03    0.08
  -4  -5  -1    0.07    0.12
   4  -5   1    0.13    0.12
   4   5   1    0.08    0.14
   4   5   1    0.12    0.16
  -4   5  -1   -0.08    0.13
   4   5   1    0.24    0.14
   4   5   1   -0.25    0.15
  -4   5  -1    0.12    0.07
   4   5   1    0.24    0.23
  -5  -5  -1   15.88    1.78
  -5  -5  -1   18.91    1.59
   5  -5   1   18.25    1.81
   5  -5   1   15.74    1.60
  -5  -5  -1   17.52    1.67
   5  -5   1   19.15    1.66
  -5  -5  -1   16.26    1.74
   5  -5   1   17.44    1.62
  -5   5  -1   19.58    1.59
  -5   5  -1   19.73    1.91
   5   5   1   18.16    1.85
   5   5   1   16.64    1.73
   6  -5   1    5.80    0.52
   6  -5   1    5.03    0.52
   6  -5   1    5.58    0.54
  -6  -5  -1    5.31    0.55
  -6  -5  -1    5.12    0.52
  -6  -5  -1    5.60    0.54
   6   5   1    5.58    0.57
  -6   5  -1    5.32    0.60
   6   5   1    4.89    0.58
  -6   5  -1    5.56    0.50
  -7  -5  -1    0.24    0.16
   7  -5   1   -0.01    0.17
   7  -5   1   -0.07    0.20
  -7  -5  -1   -0.01    0.22
   7   5   1    0.20    0.21
   7   5   1   -0.31    0.33
  -7   5  -1    0.00    0.15
  -7   5  -1   -0.10    0.18
   8  -5   1    0.89    0.32
   8  -5   1    1.44    0.24
  -8  -5  -1    0.76    0.24
  -8  -5  -1    0.92    0.21
  -8   5  -1    1.33    0.27
  -8   5  -1    0.85    0.22
   8   5   1    0.88    0.26
   8   5   1    0.81    0.41
  -9  -5  -1    5.65    0.56
  -9  -5  -1    3.96    0.57
   9  -5   1    5.19    0.57
   9  -5   1    5.45    0.54
   9   5   1    4.16    0.70
   9   5   1    4.49    0.54
  -9   5  -1    4.98    0.52
  -9   5  -1    5.08    0.63
  10  -5   1   -0.23    0.33
 -10  -5  -1   -0.04    0.31
  10  -5   1   -0.04    0.45
 -10   5  -1    0.23    0.43
  10   5   1   -0.66    0.55
  10  -6  -1    0.43    0.36
 -10  -6   1    0.23    0.41
  10   6  -1    0.15    0.45
 -10   6   1    0.17    0.38
  -9  -6   1    0.10    0.26
   9  -6  -1    0.30    0.29
  -9  -6   1    0.06    0.26
   9   6  -1    0.39    0.47
  -9   6   1    0.22    0.38
  -8  -6   1    0.64    0.22
   8  -6  -1    0.69    0.30
  -8  -6   1    0.33    0.27
   8   6  -1    1.06    0.24
  -8   6   1    0.56    0.17
   8   6  -1    0.37    0.38
  -8   6   1    0.33    0.25
  -7  -6   1    0.30    0.22
  -7  -6   1    0.27    0.18
   7  -6  -1    0.00    0.20
  -7   6   1    0.05    0.24
  -7   6   1    0.10    0.14
   7   6  -1    0.19    0.19
   7   6  -1    0.13    0.34
   6  -6  -1   -0.07    0.16
  -6  -6   1    0.27    0.12
  -6  -6   1    0.04    0.15
  -6  -6   1   -0.09    0.15
   6  -6  -1    0.13    0.12
   6   6  -1   -0.01    0.14
   6   6  -1    0.06    0.29
  -6   6   1   -0.05    0.17
  -6   6   1   -0.07    0.10
   5  -6  -1    0.82    0.20
  -5  -6   1    0.67    0.15
   5  -6  -1    0.71    0.09
  -5  -6   1    0.66    0.13
  -5  -6   1    0.37    0.15
   5  -6  -1    0.49    0.10
   5   6  -1    0.56    0.17
  -5   6   1    0.51    0.10
   5   6  -1    0.59    0.20
  -5   6   1    0.60    0.18
   5   6  -1    0.80    0.27
   4  -6  -1   12.77    1.24
  -4  -6   1   14.09    1.43
  -4  -6   1   14.57    1.32
  -4  -6   1   13.57    1.32
   4  -6  -1   15.18    1.33
  -4  -6   1   14.31    1.27
   4  -6  -1   15.34    1.35
  -4   6   1   15.22    1.29
   4   6  -1   13.80    1.59
  -4   6   1   13.32    1.25
  -4   6   1   16.08    1.35
   4   6  -1   14.87    1.64
   4   6  -1   15.70    1.52
   4   6  -1   13.09    1.38
  -3  -6   1    0.11    0.10
   3  -6  -1    0.07    0.11
  -3  -6   1    0.04    0.12
  -3  -6   1   -0.24    0.14
  -3  -6   1    0.01    0.07
   3  -6  -1    0.01    0.09
   3   6  -1   -0.01    0.07
   3   6  -1    0.18    0.15
   3   6  -1    1.31    0.55
  -3   6   1   -0.12    0.09
  -3   6   1   -0.10    0.14
  -3   6   1    0.00    0.04
   3   6  -1    0.01    0.11
  -3   6   1    0.00    0.12
  -3   6   1    0.03    0.13
   3   6  -1   -0.01    0.12
   2  -6  -1   17.15    1.47
  -2  -6   1   17.41    1.56
  -2  -6   1   14.57    1.43
   2  -6  -1   14.63    1.72
  -2  -6   1   17.02    1.52
   2   6  -1   14.96    1.55
  -2   6   1   16.00    1.44
  -2   6   1   17.10    1.51
   2   6  -1   17.48    1.57
  -2   6   1   18.08    1.54
   2   6  -1   16.39    1.61
   2   6  -1   14.03    1.67
  -2   6   1   17.02    1.51
   1  -6  -1    2.61    0.25
  -1  -6   1    2.31    0.23
  -1  -6   1    2.19    0.25
   1  -6  -1    2.21    0.26
  -1  -6   1    2.40    0.25
  -1   6   1    2.70    0.26
   1   6  -1    2.08    0.28
   1   6  -1    2.29    0.23
  -1   6   1    2.38    0.26
   1   6  -1    2.50    0.25
   1   6  -1    2.08    0.24
  -1   6   1    2.72    0.24
  -1   6   1    2.96    0.27
   0  -6  -1   48.27    4.50
   0  -6   1   49.63    4.45
   0  -6   1   50.86    4.71
   0  -6  -1   40.41    4.77
   0  -6   1   47.73    4.53
   0   6   1   49.79    4.65
   0   6  -1   53.30    4.88
   0   6   1   52.43    4.68
   0   6  -1   56.02    4.73
   0   6   1   50.95    4.82
   0   6  -1   52.96    5.15
  -1  -6  -1    0.00    0.08
   1  -6   1    0.30    0.09
   1  -6   1    0.32    0.13
  -1  -6  -1    0.21    0.11
  -1  -6  -1    0.11    0.12
  -1   6  -1    0.11    0.12
   1   6   1    0.16    0.13
  -1   6  -1    0.16    0.09
  -1   6  -1    0.20    0.10
   1   6   1    0.09    0.08
  -1   6  -1    0.22    0.11
   1   6   1    0.22    0.10
   1   6   1    0.05    0.04
  -2  -6  -1    0.92    0.13
  -2  -6  -1    0.80    0.15
  -2  -6  -1    0.94    0.15
   2  -6   1    0.99    0.11
   2  -6   1    0.89    0.18
  -2   6  -1    0.81    0.23
  -2   6  -1    0.93    0.13
   2   6   1    0.53    0.12
   2   6   1    0.75    0.16
   2   6   1    0.64    0.16
  -2   6  -1    0.69    0.11
  -2   6  -1    0.86    0.16
   2   6   1    0.32    0.14
  -3  -6  -1   10.90    0.97
   3  -6   1   10.18    0.93
  -3  -6  -1   10.31    0.93
   3  -6   1   10.93    0.98
  -3  -6  -1   10.02    0.96
  -3  -6  -1   11.08    0.99
   3  -6   1   10.91    0.97
   3   6   1    9.86    1.01
   3   6   1   10.03    1.05
  -3   6  -1   12.05    1.01
  -3   6  -1   11.35    1.01
   3   6   1   10.99    1.11
   4  -6   1   12.05    1.06
  -4  -6  -1   11.76    1.01
  -4  -6  -1   10.68    1.04
  -4  -6  -1   11.26    1.05
  -4  -6  -1   10.78    1.08
   4  -6   1   10.03    1.00
   4  -6   1   11.56    1.05
  -4   6  -1   12.74    1.05
   4   6   1   10.22    1.24
  -4   6  -1   11.31    0.99
   4   6   1   11.46    1.10
  -5  -6  -1    3.77    0.37
  -5  -6  -1    4.17    0.42
   5  -6   1    4.27    0.40
  -5  -6  -1    4.01    0.42
   5  -6   1    4.56    0.40
  -5  -6  -1    2.95    0.59
   5  -6   1    3.85    0.37
   5  -6   1    3.96    0.42
  -5   6  -1    3.87    0.37
  -5   6  -1    4.53    0.43
   5   6   1    4.13    0.43
   5   6   1    3.66    0.43
   5   6   1    3.76    0.48
  -6  -6  -1    2.67    0.30
   6  -6   1    3.17    0.37
  -6  -6  -1    2.53    0.32
   6  -6   1    3.21    0.25
   6  -6   1    2.73    0.30
  -6  -6  -1    3.12    0.35
   6  -6   1    2.33    0.29
   6   6   1    2.67    0.36
  -6   6  -1    3.25    0.34
   6   6   1    2.79    0.43
  -6   6  -1    2.35    0.29
  -7  -6  -1    0.26    0.24
   7  -6   1    0.67    0.28
  -7  -6  -1    0.54    0.24
   7  -6   1    0.66    0.17
   7   6   1    0.74    0.21
  -7   6  -1    0.41    0.13
   7   6   1    0.10    0.36
  -7   6  -1    0.33    0.23
  -8  -6  -1    2.25    0.31
  -8  -6  -1    2.09    0.32
   8  -6   1    2.01    0.39
   8  -6   1    2.64    0.32
   8   6   1    2.40    0.33
  -8   6  -1    1.45    0.27
  -8   6  -1    2.02    0.33
   8   6   1    1.84    0.47
   9  -6   1    0.15    0.28
   9  -6   1   -0.32    0.39
  -9  -6  -1    0.13    0.24
  -9  -6  -1    0.06    0.27
   9   6   1    0.40    0.52
  -9   6  -1    0.28    0.35
 -10  -6  -1    0.79    0.44
  10  -6   1    0.20    0.49
 -10   6  -1    0.36    0.35
  10   6   1    0.95    0.50
 -10  -7   1    0.44    0.43
  10  -7  -1    0.97    0.45
  10   7  -1    0.38    0.59
 -10   7   1    0.17    0.40
  -9  -7   1    0.07    0.27
   9  -7  -1    0.36    0.31
  -9  -7   1   -0.04    0.27
  -9   7   1    0.53    0.41
   9   7  -1    0.03    0.40
  -8  -7   1    0.34    0.23
  -8  -7   1    0.23    0.28
   8  -7  -1    0.43    0.26
  -8   7   1    0.31    0.27
   8   7  -1    0.99    0.36
   8   7  -1    0.97    0.27
  -7  -7   1    0.26    0.20
   7  -7  -1    0.57    0.22
  -7  -7   1    0.33    0.21
  -7   7   1    0.01    0.14
   7   7  -1    0.51    0.23
  -7   7   1    0.39    0.22
   7   7  -1    0.07    0.34
   6  -7  -1   -0.01    0.05
   6  -7  -1    0.00    0.13
  -6  -7   1    0.04    0.12
  -6  -7   1    0.15    0.17
   6  -7  -1   -0.12    0.17
  -6  -7   1    0.21    0.22
  -6   7   1    0.00    0.10
   6   7  -1    0.33    0.34
   6   7  -1   -0.35    0.22
  -6   7   1   -0.12    0.17
  -5  -7   1    2.92    0.29
  -5  -7   1    3.20    0.35
  -5  -7   1    3.65    0.34
   5  -7  -1    2.63    0.27
   5  -7  -1    2.56    0.33
  -5   7   1    3.74    0.41
   5   7  -1    3.58    0.34
  -5   7   1    2.52    0.28
   5   7  -1    3.25    0.40
   5   7  -1    3.09    0.38
  -4  -7   1    0.07    0.09
  -4  -7   1   -0.03    0.14
  -4  -7   1   -0.13    0.13
   4  -7  -1   -0.03    0.10
   4  -7  -1   -0.08    0.14
  -4   7   1    0.02    0.09
   4   7  -1   -0.11    0.23
  -4   7   1    0.01    0.05
  -4   7   1    0.05    0.19
   4   7  -1   -0.05    0.16
  -3  -7   1   -0.04    0.10
   3  -7  -1   -0.02    0.11
  -3  -7   1   -0.06    0.13
   3   7  -1   -0.07    0.08
   3   7  -1   -0.07    0.12
  -3   7   1    0.07    0.11
   3   7  -1   -0.24    0.14
   3   7  -1   -0.16    0.17
   2  -7  -1   19.52    1.64
  -2  -7   1   17.98    1.67
  -2  -7   1   18.69    1.87
  -2  -7   1   16.65    1.62
  -2   7   1   17.95    1.72
  -2   7   1   17.51    1.65
   2   7  -1   18.17    1.89
   2   7  -1   18.71    1.80
   2   7  -1   17.02    1.79
   1  -7  -1   17.35    1.78
  -1  -7   1   16.71    1.63
  -1  -7   1   19.76    1.90
   1  -7  -1   19.14    1.61
  -1  -7   1   17.11    1.72
  -1   7   1   17.85    1.74
   1   7  -1   18.36    1.77
   1   7  -1   17.15    1.69
   1   7  -1   16.87    1.74
   1   7  -1   16.51    1.91
  -1   7   1   20.54    1.73
  -1   7   1   19.03    1.87
  -1   7   1   20.10    1.77
   0  -7   1    2.77    0.31
   0  -7   1    2.71    0.27
   0  -7  -1    2.53    0.30
   0  -7  -1    2.29    0.27
   0  -7   1    2.58    0.24
   0   7   1    2.56    0.25
   0   7   1    2.06    0.27
   0   7  -1    2.74    0.31
   0   7  -1    2.29    0.25
   0   7  -1    2.75    0.28
   0   7  -1    3.22    0.29
   0   7   1    2.64    0.29
   1  -7   1   46.71    5.89
  -1  -7  -1   42.03    4.23
  -1  -7  -1   44.49    4.26
   1  -7   1   47.59    4.26
  -1  -7  -1   44.53    4.85
   1   7   1   46.45    4.28
   1   7   1   46.93    4.70
  -1   7  -1   54.80    4.57
  -1   7  -1   46.88    4.40
   1   7   1   43.17    4.67
   1   7   1   44.90    5.09
  -1   7  -1   54.55    4.92
  -1   7  -1   51.86    4.84
  -2  -7  -1    0.76    0.17
  -2  -7  -1    0.81    0.16
  -2  -7  -1    0.78    0.14
   2   7   1    0.91    0.16
   2   7   1    0.80    0.18
   2   7   1    0.75    0.20
  -2   7  -1    0.63    0.13
  -2   7  -1    1.51    0.21
  -2   7  -1    1.12    0.17
  -3  -7  -1    7.74    0.78
  -3  -7  -1    8.50    0.74
  -3  -7  -1    8.26    0.75
   3  -7   1    8.79    0.74
   3   7   1    7.09    0.82
   3   7   1    7.92    0.77
  -3   7  -1    8.47    0.77
   3   7   1    7.56    0.78
  -4  -7  -1    1.89    0.26
  -4  -7  -1    1.77    0.27
   4  -7   1    2.60    0.24
   4  -7   1    2.10    0.27
  -4  -7  -1    2.27    0.24
   4  -7   1    2.29    0.23
   4   7   1    1.95    0.28
  -4   7  -1    2.68    0.28
   4   7   1    2.47    0.30
  -5  -7  -1    7.22    0.69
   5  -7   1    6.92    0.65
  -5  -7  -1    8.02    0.70
   5  -7   1    7.42    0.73
  -5  -7  -1    6.46    0.66
   5  -7   1    8.45    0.73
   5   7   1    7.39    0.75
   5   7   1    6.96    0.75
   5   7   1    6.74    0.72
  -5   7  -1    8.98    0.81
   6  -7   1    0.08    0.19
  -6  -7  -1   -0.16    0.23
  -6  -7  -1    0.09    0.17
  -6  -7  -1   -0.10    0.11
   6  -7   1    0.16    0.12
   6  -7   1    0.07    0.09
  -6   7  -1    0.30    0.11
   6   7   1    0.20    0.21
   6   7   1    0.17    0.36
  -6   7  -1   -0.05    0.22
  -7  -7  -1    1.45    0.27
   7  -7   1    1.77    0.29
  -7  -7  -1    1.44    0.27
  -7   7  -1    1.51    0.28
   7   7   1    1.95    0.42
   7   7   1    1.33    0.27
  -8  -7  -1   -0.33    0.29
   8  -7   1   -0.22    0.32
  -8  -7  -1    0.19    0.30
  -8   7  -1   -0.11    0.32
   8   7   1    0.10    0.33
   8   7   1   -0.15    0.37
  -9  -7  -1    1.46    0.32
  -9  -7  -1    1.90    0.35
   9  -7   1    1.73    0.38
   9   7   1    1.92    0.49
  -9   7  -1    1.87    0.44
  10  -7   1   -0.16    0.40
 -10  -7  -1   -0.12    0.43
  10   7   1   -0.30    0.62
 -10   7  -1    0.14    0.47
   9  -8  -1    1.15    0.40
  -9  -8   1    1.79    0.40
  -9  -8   1    0.53    0.31
  -9   8   1    1.21    0.38
   9   8  -1    1.25    0.54
  -8  -8   1    0.21    0.31
  -8  -8   1   -0.01    0.25
   8  -8  -1    0.31    0.32
   8   8  -1    0.29    0.46
  -8   8   1    0.37    0.29
  -7  -8   1   10.46    0.92
   7  -8  -1   10.22    0.94
  -7  -8   1    9.42    0.92
   7   8  -1    8.85    1.07
  -7   8   1    9.33    1.03
   7   8  -1    8.50    0.91
  -6  -8   1    0.05    0.21
   6  -8  -1    0.15    0.19
  -6  -8   1    0.04    0.20
   6  -8  -1    0.02    0.09
  -6   8   1    0.00    0.25
   6   8  -1    0.09    0.36
   6   8  -1    0.19    0.21
   6   8  -1   -0.13    0.26
   5  -8  -1    3.97    0.32
   5  -8  -1    3.20    0.37
  -5  -8   1    3.14    0.37
  -5  -8   1    3.25    0.35
  -5  -8   1    3.30    0.34
   5   8  -1    3.15    0.46
   5   8  -1    3.19    0.39
  -5   8   1    2.85    0.29
  -5   8   1    3.67    0.41
   5   8  -1    3.41    0.41
  -4  -8   1    2.58    0.27
   4  -8  -1    2.31    0.26
  -4  -8   1    2.30    0.29
   4   8  -1    2.50    0.29
  -4   8   1    1.66    0.25
  -4   8   1    2.55    0.30
   3  -8  -1    1.95    0.23
  -3  -8   1    1.89    0.21
  -3  -8   1    1.56    0.23
   3   8  -1    1.73    0.27
   3   8  -1    1.66    0.18
  -3   8   1    1.81    0.25
   3   8  -1    1.41    0.22
  -3   8   1    1.42    0.21
   3   8  -1    1.97    0.25
  -2  -8   1    2.15    0.22
  -2  -8   1    1.76    0.25
   2  -8  -1    2.54    0.26
   2   8  -1    1.92    0.24
  -2   8   1    2.53    0.30
  -2   8   1    1.87    0.24
   2   8  -1    2.19    0.30
   2   8  -1    2.29    0.23
  -1  -8   1    2.75    0.25
  -1  -8   1    2.68    0.28
   1  -8  -1    2.56    0.28
   1   8  -1    2.55    0.26
   1   8  -1    2.48    0.32
  -1   8   1    2.44    0.31
   1   8  -1    2.46    0.26
  -1   8   1    2.30    0.28
   0  -8   1    0.04    0.12
   0  -8  -1   -0.15    0.14
   0  -8   1    0.02    0.06
   0   8   1    0.01    0.16
   0   8  -1   -0.01    0.08
   0   8  -1    0.01    0.16
   0   8   1   -0.06    0.07
   1  -8   1   28.52    2.55
  -1  -8  -1   26.81    2.54
  -1  -8  -1   26.75    2.52
  -1   8  -1   30.76    2.78
   1   8   1   28.69    2.85
   1   8   1   26.12    2.77
   1   8   1   28.20    2.61
  -1   8  -1   32.13    2.96
  -2  -8  -1    0.18    0.11
   2  -8   1   -0.08    0.11
  -2  -8  -1   -0.01    0.15
   2   8   1    0.04    0.19
  -2   8  -1    0.32    0.20
   2   8   1    0.09    0.13
   2   8   1    0.04    0.18
  -2   8  -1   -0.03    0.13
  -3  -8  -1   17.87    1.74
  -3  -8  -1   18.98    1.77
   3  -8   1   20.03    1.80
   3   8   1   17.17    1.87
   3   8   1   19.27    1.96
  -3   8  -1   19.67    1.76
   3   8   1   19.48    1.84
  -4  -8  -1   14.52    1.42
   4  -8   1   16.06    1.40
  -4  -8  -1   15.04    1.37
   4  -8   1   16.01    1.46
   4   8   1   14.63    1.48
  -4   8  -1   17.05    1.50
   4   8   1   12.41    1.55
   5  -8   1    2.19    0.21
   5  -8   1    2.33    0.30
  -5  -8  -1    2.26    0.28
  -5  -8  -1    1.76    0.27
   5  -8   1    1.83    0.18
  -5  -8  -1    1.75    0.18
   5   8   1    1.66    0.34
   5   8   1    1.49    0.30
  -5   8  -1    1.56    0.29
   5   8   1    1.50    0.30
   6  -8   1    0.19    0.13
  -6  -8  -1    0.06    0.21
   6  -8   1    0.12    0.21
  -6  -8  -1    0.11    0.23
  -6   8  -1    0.16    0.35
   6   8   1    0.35    0.46
   6   8   1    0.09    0.32
   6   8   1    0.00    0.18
   7  -8   1   -0.30    0.29
  -7  -8  -1    0.23    0.27
  -7  -8  -1    0.34    0.30
   7   8   1   -0.05    0.33
  -7   8  -1    0.09    0.27
   7   8   1    0.02    0.31
  -8  -8  -1   -0.26    0.33
  -8  -8  -1   -0.21    0.31
   8  -8   1    0.25    0.29
   8   8   1    0.00    0.32
   8   8   1    0.55    0.50
  -8   8  -1   -0.01    0.25
  -9  -8  -1    0.11    0.31
  -9  -8  -1   -0.01    0.38
   9  -8   1    0.46    0.41
  -9   8  -1   -0.06    0.39
   9   8   1    0.70    0.59
  -9  -9   1    0.50    0.41
  -9  -9   1   -0.72    0.38
   9  -9  -1    0.59    0.42
   9   9  -1    0.66    0.58
  -9   9   1   -0.20    0.43
  -8  -9   1    2.83    0.43
   8  -9  -1    3.44    0.62
  -8  -9   1    3.38    0.47
  -8   9   1    3.28    0.45
   8   9  -1    3.32    0.60
  -7  -9   1   -0.30    0.22
  -7  -9   1    0.20    0.26
   7  -9  -1   -0.07    0.24
   7   9  -1    0.13    0.43
   7   9  -1   -0.17    0.29
  -7   9   1    0.14    0.24
  -6  -9   1    0.92    0.31
  -6  -9   1    0.96    0.26
   6  -9  -1    0.91    0.24
   6   9  -1    0.55    0.30
   6   9  -1    0.69    0.27
   6   9  -1    1.18    0.41
  -6   9   1    0.84    0.30
  -5  -9   1    1.13    0.24
   5  -9  -1    0.95    0.17
  -5  -9   1    0.67    0.21
  -5   9   1    0.78    0.27
   5   9  -1    0.95    0.27
   5   9  -1    0.29    0.27
   5   9  -1    0.80    0.31
   4  -9  -1   12.24    1.08
  -4  -9   1   10.79    1.06
  -4   9   1   11.20    1.10
   4   9  -1   11.49    1.22
  -4   9   1   12.35    1.18
   4   9  -1   11.73    1.11
  -3  -9   1   -0.19    0.17
   3  -9  -1    0.20    0.18
  -3  -9   1    0.08    0.15
   3   9  -1    0.37    0.19
  -3   9   1    0.29    0.15
  -3   9   1   -0.12    0.17
   3   9  -1   -0.09    0.23
   3   9  -1    0.11    0.09
  -2  -9   1    9.79    0.94
  -2  -9   1   10.16    0.88
   2  -9  -1   10.59    0.93
   2   9  -1    8.91    1.03
  -2   9   1    9.65    0.98
   2   9  -1    8.79    0.98
   2   9  -1   10.03    0.91
  -1  -9   1   -0.12    0.10
  -1  -9   1    0.08    0.16
   1  -9  -1   -0.05    0.18
   1   9  -1    0.27    0.13
  -1   9   1    0.22    0.21
   1   9  -1    0.06    0.12
   1   9  -1    0.14    0.18
   0  -9   1    1.01    0.11
   0  -9   1    0.67    0.21
   0  -9  -1    0.92    0.19
   0   9  -1    1.17    0.25
   0   9   1    0.81    0.13
   0   9   1    0.68    0.21
   0   9  -1    0.78    0.12
  -1  -9  -1    1.48    0.21
   1  -9   1    1.20    0.18
  -1  -9  -1    0.91    0.14
   1   9   1    0.83    0.14
   1   9   1    0.73    0.23
   1   9   1    0.94    0.12
   2  -9   1    0.97    0.16
  -2  -9  -1    0.53    0.14
  -2  -9  -1    0.30    0.19
   2   9   1    0.31    0.23
   2   9   1    0.35    0.15
  -2   9  -1    0.55    0.23
  -3  -9  -1   18.60    1.85
  -3  -9  -1   19.89    1.85
   3  -9   1   22.49    1.91
   3   9   1   19.08    2.11
  -3   9  -1   24.54    1.98
   3   9   1   19.91    2.08
  -4  -9  -1    0.62    0.19
  -4  -9  -1    0.02    0.25
   4  -9   1    0.63    0.17
   4   9   1    0.69    0.28
   4   9   1   -0.06    0.26
  -4   9  -1    0.29    0.23
  -5  -9  -1    0.25    0.22
   5  -9   1    0.21    0.14
   5  -9   1    0.05    0.22
  -5  -9  -1    0.23    0.21
  -5   9  -1    0.02    0.26
   5   9   1    0.43    0.26
   5   9   1    0.61    0.28
   5   9   1    0.47    0.39
  -6  -9  -1    0.94    0.26
   6  -9   1    0.57    0.25
  -6  -9  -1    0.73    0.26
   6   9   1    0.23    0.35
   6   9   1    0.50    0.28
  -6   9  -1    0.83    0.25
   6   9   1    0.75    0.31
   7  -9   1   -0.25    0.32
  -7  -9  -1    0.08    0.27
  -7  -9  -1   -0.09    0.29
   7   9   1    0.60    0.39
  -7   9  -1    0.52    0.43
   7   9   1    0.54    0.39
  -8  -9  -1    0.71    0.35
  -8  -9  -1    0.90    0.33
   8  -9   1    0.32    0.39
  -8   9  -1    0.32    0.33
   8   9   1    0.38    0.53
  -9  -9  -1    0.02    0.36
  -9  -9  -1    0.22    0.40
   9  -9   1    0.08    0.44
   9   9   1   -0.45    0.52
  -9   9  -1   -0.26    0.44
   8 -10  -1    0.54    0.39
  -8 -10   1    0.60    0.35
  -8 -10   1    0.32    0.32
  -8  10   1    0.23    0.37
   8  10  -1    0.35    0.45
  -7 -10   1    0.86    0.31
  -7 -10   1    0.19    0.29
   7 -10  -1    1.14    0.32
   7  10  -1    0.30    0.35
  -7  10   1    0.54    0.33
   7  10  -1   -0.27    0.48
  -6 -10   1    0.28    0.27
  -6 -10   1    0.13    0.25
  -6  10   1   -0.05    0.29
   6  10  -1   -0.11    0.34
   6  10  -1   -0.13    0.34
   6  10  -1   -0.29    0.29
  -5 -10   1    0.11    0.21
  -5 -10   1    0.58    0.31
   5 -10  -1   -0.02    0.17
  -5  10   1   -0.06    0.27
   5  10  -1   -0.01    0.30
   5  10  -1    0.12    0.28
  -4 -10   1    0.28    0.22
  -4 -10   1    0.22    0.18
   4 -10  -1    0.44    0.19
   4  10  -1    0.18    0.28
   4  10  -1    0.02    0.27
  -4  10   1    0.06    0.26
  -3 -10   1    7.04    0.64
   3 -10  -1    7.84    0.67
  -3 -10   1    6.70    0.69
  -3  10   1    6.13    0.69
   3  10  -1    6.60    0.75
  -2 -10   1   34.56    3.16
   2 -10  -1   35.36    3.14
  -2 -10   1   34.16    3.32
  -2  10   1   39.20    3.60
   2  10  -1   38.50    3.77
   2  10  -1   37.58    3.44
   2  10  -1   28.82    3.60
  -1 -10   1    0.78    0.12
   1 -10  -1    0.76    0.20
  -1 -10   1    0.26    0.23
  -1  10   1    0.71    0.26
   1  10  -1    0.27    0.14
   1  10  -1    0.38    0.23
   1  10  -1    0.44    0.15
   0 -10   1   12.19    1.19
   0 -10  -1   12.76    1.10
   0  10  -1   12.90    1.31
   0  10   1   11.55    1.18
   0  10  -1   12.14    1.14
   0  10   1   10.80    1.11
  -1 -10  -1    0.62    0.11
   1 -10   1    0.87    0.19
  -1 -10  -1    1.31    0.23
   1  10   1    0.68    0.11
   1  10   1    0.42    0.15
   1  10   1    0.73    0.28
   2 -10   1    3.01    0.33
  -2 -10  -1    2.57    0.27
  -2 -10  -1    2.72    0.33
  -2  10  -1    1.98    0.34
   2  10   1    2.59    0.41
  -3 -10  -1    6.56    0.75
   3 -10   1    8.33    0.74
  -3 -10  -1    7.80    0.74
  -3  10  -1    9.50    0.92
   3  10   1    7.54    0.84
   3  10   1    8.64    0.82
   4 -10   1    0.76    0.19
  -4 -10  -1    0.42    0.20
  -4 -10  -1    0.07    0.25
  -4  10  -1    0.96    0.29
   4  10   1    0.62    0.28
   4  10   1    0.80    0.33
  -5 -10  -1    1.30    0.29
   5 -10   1    1.34    0.21
  -5 -10  -1    0.86    0.26
   5  10   1    1.10    0.38
  -5  10  -1    1.12    0.31
   5  10   1    1.14    0.36
  -6 -10  -1    1.43    0.32
  -6 -10  -1    2.02    0.32
   6  10   1    2.19    0.54
  -6  10  -1    1.06    0.36
   6  10   1    0.94    0.35
   6  10   1    1.62    0.38
   7 -10   1    0.03    0.29
  -7 -10  -1    0.48    0.31
  -7 -10  -1   -0.19    0.30
   7  10   1    1.00    0.51
  -7  10  -1   -0.05    0.27
   7  10   1    0.13    0.40
   8 -10   1    1.40    0.39
  -8 -10  -1    1.91    0.42
  -8 -10  -1    2.05    0.42
  -8  10  -1    1.86    0.41
   8  10   1    2.68    0.67
  -8 -11   1    0.57    0.38
  -8 -11   1    0.22    0.37
   8  11  -1    0.66    0.61
  -8  11   1    0.55    0.48
  -7 -11   1    2.47    0.37
  -7 -11   1    1.39    0.43
   7  11  -1    2.09    0.48
  -7  11   1    1.33    0.43
   7  11  -1    1.24    0.47
  -6 -11   1   -0.01    0.29
  -6 -11   1    0.23    0.36
   6  11  -1   -0.33    0.35
  -6  11   1    0.03    0.28
   6  11  -1   -0.19    0.32
   6  11  -1   -0.11    0.35
   5 -11  -1    0.55    0.22
  -5 -11   1    0.13    0.28
  -5 -11   1    0.18    0.23
   5  11  -1    0.03    0.34
  -5  11   1   -0.02    0.24
   5  11  -1    0.43    0.36
  -4 -11   1   -0.05    0.25
   4 -11  -1    0.07    0.21
  -4 -11   1    0.10    0.19
  -4  11   1   -0.23    0.24
   4  11  -1   -0.18    0.39
   4  11  -1   -0.36    0.33
  -3 -11   1    0.41    0.17
   3 -11  -1   -0.19    0.19
  -3 -11   1    0.29    0.24
   3  11  -1    0.47    0.31
  -3  11   1   -0.02    0.24
   3  11  -1    0.12    0.32
  -2 -11   1    6.81    0.63
  -2 -11   1    6.02    0.67
   2 -11  -1    7.19    0.67
   2  11  -1    6.10    0.73
  -2  11   1    8.14    0.73
   1 -11  -1    2.74    0.32
  -1 -11   1    2.52    0.24
  -1 -11   1    1.92    0.32
   1  11  -1    1.94    0.36
   1  11  -1    2.24    0.27
  -1  11   1    2.44    0.39
   0 -11  -1    0.20    0.22
   0 -11   1    0.04    0.21
   0  11   1    0.05    0.23
   0  11  -1    0.31    0.32
   0  11  -1    0.03    0.18
  -1 -11  -1   15.12    1.38
   1 -11   1   15.09    1.35
  -1  11  -1   15.84    1.51
   1  11   1   13.99    1.48
   2 -11   1    0.68    0.23
  -2 -11  -1    1.14    0.27
  -2 -11  -1    0.96    0.18
  -2  11  -1    1.38    0.32
   2  11   1    1.26    0.34
   2  11   1    0.98    0.38
  -3 -11  -1   11.12    1.07
   3 -11   1   11.52    1.05
  -3 -11  -1   10.56    1.07
   3  11   1   12.88    1.18
  -3  11  -1   12.98    1.18
   3  11   1   11.57    1.19
  -4 -11  -1    0.60    0.21
  -4 -11  -1    0.60    0.28
   4 -11   1    0.88    0.24
   4  11   1    0.56    0.27
   4  11   1    0.65    0.38
  -4  11  -1    0.75    0.27
  -5 -11  -1    2.59    0.42
  -5 -11  -1    2.96    0.39
   5 -11   1    3.17    0.36
   5  11   1    2.81    0.52
  -5  11  -1    3.03    0.43
   5  11   1    3.67    0.54
  -6 -11  -1    0.20    0.31
  -6 -11  -1    0.14    0.30
   6  11   1    0.30    0.37
   6  11   1    0.13    0.44
   6  11   1    0.27    0.49
  -6  11  -1    0.05    0.33
  -7 -11  -1    2.49    0.43
  -7 -11  -1    2.35    0.40
  -7  11  -1    1.65    0.39
   7  11   1    2.15    0.51
   7  11   1    2.25    0.64
  -8 -11  -1   -0.31    0.40
   8 -11   1   -0.28    0.31
  -8 -11  -1   -0.45    0.38
  -8  11  -1    0.17    0.42
  -7 -12   1    0.89    0.47
  -7 -12   1    1.05    0.35
  -7  12   1    1.62    0.47
   7  12  -1    0.87    0.51
   7  12  -1    0.48    0.48
  -6 -12   1    0.15    0.34
  -6 -12   1    0.52    0.29
   6  12  -1    0.46    0.42
  -6  12   1   -0.11    0.37
   6  12  -1    0.51    0.51
   6  12  -1    0.84    0.38
  -5 -12   1    3.83    0.42
  -5 -12   1    3.64    0.66
   5  12  -1    2.87    0.53
  -5  12   1    3.21    0.53
   5  12  -1    3.25    0.54
  -4 -12   1    4.77    0.49
   4 -12  -1    4.87    0.52
  -4 -12   1    4.65    0.55
   4  12  -1    5.04    0.65
   4  12  -1    4.52    0.61
  -4  12   1    4.79    0.60
   3 -12  -1    1.70    0.31
  -3 -12   1    1.25    0.31
  -3 -12   1    1.66    0.24
  -3  12   1    1.07    0.31
   3  12  -1    1.62    0.41
   3  12  -1    0.99    0.39
  -2 -12   1    6.51    0.69
  -2 -12   1    7.30    0.65
   2 -12  -1    7.32    0.68
   2  12  -1    6.40    0.77
  -2  12   1    6.70    0.74
   1 -12  -1    1.06    0.27
  -1 -12   1    0.77    0.26
   1  12  -1    0.99    0.39
  -1  12   1    0.48    0.33
   0 -12  -1   -0.44    0.29
   0 -12   1    0.26    0.29
   0  12   1   -0.10    0.30
   0  12  -1   -0.18    0.35
   1 -12   1    1.22    0.26
  -1 -12  -1    0.81    0.28
  -1  12  -1    1.23    0.31
   1  12   1    0.97    0.39
   2 -12   1   -0.03    0.27
  -2 -12  -1    0.01    0.12
  -2 -12  -1    0.39    0.27
   2  12   1    0.25    0.38
   2  12   1   -0.06    0.40
  -2  12  -1    0.30    0.32
   3 -12   1    2.44    0.36
  -3 -12  -1    2.37    0.29
  -3 -12  -1    2.28    0.43
  -3  12  -1    2.35    0.39
   3  12   1    2.24    0.48
   3  12   1    1.98    0.50
  -4 -12  -1    0.15    0.30
   4 -12   1    0.73    0.27
  -4 -12  -1    1.73    0.33
   4  12   1   -0.10    0.42
  -4  12  -1    0.52    0.34
   4  12   1    1.49    1.72
  -5 -12  -1   -0.27    0.31
  -5 -12  -1   -0.09    0.25
  -5  12  -1    0.31    0.30
   5  12   1    0.51    0.46
   5  12   1    0.19    0.30
  -6 -12  -1   -0.08    0.35
  -6 -12  -1    0.41    0.30
   6  12   1   -0.69    0.49
   6  12   1    0.32    0.58
  -6  12  -1   -0.10    0.31
   6  12   1   -0.03    0.41
  -7 -12  -1   -0.05    0.36
  -7 -12  -1   -0.03    0.39
  -7  12  -1   -0.31    0.50
   7  12   1    0.26    0.66
  -6 -13   1    0.83    0.31
  -6 -13   1    0.59    0.40
   6  13  -1    0.67    0.61
   6  13  -1   -0.13    0.47
  -6  13   1    0.53    0.46
  -5 -13   1    0.41    0.36
  -5 -13   1    0.91    0.31
  -5  13   1    1.12    0.43
   5  13  -1    0.67    0.47
   5  13  -1    0.72    0.46
   4 -13  -1    1.43    0.34
  -4 -13   1    1.95    0.42
  -4 -13   1    1.25    0.36
  -4  13   1    0.81    0.40
   4  13  -1    1.35    0.46
   4  13  -1    0.97    0.45
   3 -13  -1    0.05    0.25
  -3 -13   1    0.18    0.30
   3  13  -1   -0.06    0.40
   3  13  -1    0.50    0.44
  -3  13   1    0.36    0.30
  -2 -13   1    1.06    0.32
   2 -13  -1    2.32    0.47
  -2  13   1    1.05    0.34
   2  13  -1    1.04    0.45
  -1 -13   1    0.25    0.27
   1 -13  -1    0.15    0.27
  -1  13   1    0.19    0.36
   1  13  -1   -0.14    0.40
   0 -13   1    4.51    0.50
   0 -13  -1    4.63    0.52
   0  13  -1    4.59    0.57
   0  13   1    3.89    0.56
   1 -13   1    0.36    0.26
  -1 -13  -1    0.39    0.30
   1  13   1    0.52    0.42
  -1  13  -1    0.55    0.33
   2 -13   1   -0.02    0.34
  -2 -13  -1   -0.27    0.30
  -2  13  -1   -0.03    0.35
   2  13   1   -0.41    0.44
   2  13   1   -0.02    0.45
   3 -13   1    0.47    0.26
  -3 -13  -1    0.01    0.30
   3  13   1    1.04    0.47
   3  13   1   -0.08    0.40
  -3  13  -1    0.06    0.30
  -4 -13  -1    2.43    0.34
   4 -13   1    2.87    0.36
  -4 -13  -1    1.98    0.42
   4  13   1    2.10    0.50
  -4  13  -1    2.28    0.48
   4  13   1    2.68    0.55
  -5 -13  -1    0.49    0.36
  -5 -13  -1   -0.02    0.28
  -5  13  -1    0.02    0.32
   5  13   1    0.33    0.48
   5  13   1    0.88    0.53
  -6 -13  -1    0.06    0.40
  -6 -13  -1    0.21    0.33
   6  13   1    0.81    0.67
   6  13   1    0.26    0.48
  -6  13  -1    0.33    0.34
   6  13   1   -0.49    0.45
  -5 -14   1    0.28    0.42
   5  14  -1    0.94    0.51
  -5  14   1    5.45    1.48
   5  14  -1    1.33    0.56
  -4 -14   1    0.22    0.36
   4  14  -1    1.33    0.46
  -4  14   1    0.08    0.43
   4  14  -1   -0.17    0.56
  -3 -14   1    0.28    0.35
   3 -14  -1    0.34    0.30
   3  14  -1    0.75    0.49
  -3  14   1    0.24    0.40
   3  14  -1   -0.42    0.55
  -2 -14   1    0.16    0.33
   2 -14  -1    0.76    0.31
   2  14  -1    0.80    0.50
  -2  14   1    0.38    0.42
  -1 -14   1    0.90    0.34
   1 -14  -1    1.45    0.40
   1  14  -1    1.36    0.44
  -1  14   1    1.01    0.40
   0 -14   1    0.28    0.30
   0 -14  -1    0.11    0.30
   0  14  -1    0.03    0.37
   0  14   1    0.28    0.39
   1 -14   1    0.75    0.37
  -1 -14  -1    0.08    0.31
   1  14   1    0.13    0.47
  -1  14  -1   -0.04    0.37
   2 -14   1    1.18    0.38
  -2 -14  -1    0.45    0.35
   2  14   1    0.74    0.50
   2  14   1    1.80    0.55
  -2  14  -1    1.41    0.39
  -3 -14  -1    0.87    0.38
   3 -14   1    1.76    0.39
   3  14   1    0.85    0.49
  -3  14  -1    1.52    0.46
   3  14   1    1.40    0.57
  -4 -14  -1    0.37    0.37
  -4  14  -1    0.53    0.41
   4  14   1   -0.21    0.54
   4  14   1   -0.41    0.37
  -5 -14  -1    0.87    0.44
   5  14   1    0.33    0.62
   5  14   1    0.46    0.56
  -5  14  -1    1.46    0.42
   3 -15  -1    0.03    0.41
  -3 -15   1    0.55    0.42
   3  15  -1    0.10    0.50
  -3  15   1    1.47    0.65
   3  15  -1    1.00    0.60
  -2 -15   1   -0.13    0.38
   2 -15  -1    0.66    0.42
  -2  15   1   -0.49    0.39
   2  15  -1   -0.65    0.54
  -1 -15   1   -0.50    0.36
   1 -15  -1    0.24    0.33
  -1  15   1    0.29    0.52
   1  15  -1    0.39    0.56
   0 -15   1   -0.26    0.34
   0 -15  -1   -0.68    0.35
   0  15  -1    0.38    0.51
   0  15   1   -0.09    0.43
   1 -15   1    2.59    0.43
  -1 -15  -1    2.37    0.46
  -1  15  -1    2.98    0.60
   1  15   1    1.25    0.53
   2 -15   1    0.29    0.34
  -2 -15  -1    0.25    0.40
  -2  15  -1    0.54    0.51
   2  15   1    0.84    0.61
   2  15   1    0.76    0.57
   3 -15   1    1.98    0.38
  -3 -15  -1    1.47    0.44
  -3  15  -1    1.25    0.44
   3  15   1    0.81    0.63
   3  15   1    0.73    0.54
  11   0  -2    0.10    0.49
 -11   0   2    0.12    0.30
 -11   0   2   -0.31    0.39
 -10   0   2   -0.18    0.28
  10   0  -2   -0.34    0.33
 -10   0   2   -0.08    0.31
   9   0  -2    0.40    0.18
   9   0  -2   -0.06    0.33
  -9   0   2   -0.14    0.20
   8   0  -2    0.60    0.14
  -8   0   2    0.65    0.21
   8   0  -2    1.01    0.37
  -7   0   2    0.13    0.16
  -7   0   2    0.08    0.13
   7   0  -2   -0.06    0.21
  -7   0   2   -0.02    0.06
   7   0  -2    0.23    0.12
   6   0  -2   10.66    0.91
  -6   0   2   10.04    0.91
   6   0  -2    9.99    0.99
  -6   0   2   10.69    0.92
  -6   0   2    9.07    1.00
  -5   0   2    0.10    0.11
  -5   0   2    0.02    0.05
   5   0  -2    0.04    0.06
   5   0  -2    0.02    0.14
  -5   0   2    0.02    0.11
  -5   0   2   -0.13    0.08
   5   0  -2    0.07    0.11
  -5   0   2   -0.03    0.08
  -4   0   2    1.27    0.14
  -4   0   2    1.36    0.15
  -4   0   2    1.04    0.11
   4   0  -2    0.99    0.11
   4   0  -2    1.07    0.14
  -4   0   2    0.98    0.12
   4   0  -2    1.42    0.16
  -4   0   2    1.17    0.16
   3   0  -2   -0.05    0.08
   3   0  -2   -0.15    0.03
  -3   0   2   -0.12    0.08
  -3   0   2   -0.10    0.04
  -3   0   2   -0.12    0.04
  -3   0   2   -0.16    0.07
  -3   0   2   -0.04    0.05
   3   0  -2   -0.03    0.07
  -2   0   2   57.41    4.94
  -2   0   2   49.80    4.56
   2   0  -2   56.31    4.78
   2   0  -2   60.82    6.42
   2   0  -2   53.99    4.85
  -2   0   2   56.16    4.72
  -2   0   2   45.69    4.52
  -1   0   2   -0.15    0.04
   1   0  -2   -0.14    0.03
   1   0  -2   -0.22    0.04
  -1   0   2   -0.19    0.02
  -1   0   2   -0.16    0.03
   1   0  -2   -0.16    0.02
   1   0  -2   -0.13    0.03
  -1   0   2   -0.13    0.02
   0   0  -2    1.49    0.15
   0   0  -2    1.46    0.15
   0   0   2    1.68    0.16
   0   0   2    1.37    0.14
   0   0   2    1.65    0.14
   0   0  -2    1.38    0.14
   1   0   2   -0.02    0.04
  -1   0  -2    0.00    0.03
  -1   0  -2   -0.05    0.05
   1   0   2   -0.03    0.04
  -1   0  -2    0.06    0.04
  -1   0  -2    0.06    0.02
   1   0   2   -0.01    0.02
   1   0   2    0.04    0.04
   1   0   2   -0.02    0.02
  -2   0  -2    6.40    0.61
   2   0   2    5.78    0.57
  -2   0  -2    6.41    0.59
   2   0   2    6.10    0.62
   2   0   2    6.17    0.62
  -2   0  -2    6.32    0.62
   2   0   2    6.40    0.65
  -2   0  -2    6.08    0.55
  -3   0  -2    0.04    0.10
  -3   0  -2   -0.08    0.07
   3   0   2   -0.07    0.10
   3   0   2    0.02    0.07
  -3   0  -2    0.04    0.08
   3   0   2   -0.06    0.08
   3   0   2    0.07    0.06
  -4   0  -2    4.49    0.49
  -4   0  -2    5.18    0.45
   4   0   2    4.14    0.48
   4   0   2    5.02    0.47
  -4   0  -2    4.94    0.47
   4   0   2    4.72    0.49
   4   0   2    5.08    0.48
   5   0   2    0.23    0.12
  -5   0  -2   -0.01    0.12
   5   0   2    0.17    0.09
  -5   0  -2    0.06    0.11
   5   0   2   -0.17    0.18
   5   0   2   -0.01    0.12
  -6   0  -2    0.90    0.17
  -6   0  -2    1.07    0.19
  -6   0  -2    0.89    0.16
   6   0   2    0.96    0.14
   6   0   2    0.79    0.20
   6   0   2    0.95    0.17
   7   0   2    0.22    0.23
  -7   0  -2   -0.06    0.14
   7   0   2   -0.22    0.16
   7   0   2    0.26    0.15
  -7   0  -2    0.08    0.18
   8   0   2    3.77    0.36
  -8   0  -2    2.47    0.34
  -8   0  -2    3.23    0.46
   8   0   2    2.57    0.44
   9   0   2    0.21    0.37
  -9   0  -2   -0.05    0.26
   9   0   2   -0.04    0.21
  -9   0  -2   -0.09    0.26
 -10   0  -2    0.28    0.34
  10   0   2    1.32    0.33
 -10   0  -2    0.69    0.36
  10   0   2    1.13    0.41
  11   0   2    0.28    0.47
 -11   0  -2   -0.40    0.32
 -11  -1   2   -0.35    0.38
  11  -1  -2    0.23    0.40
 -11   1   2    0.17    0.36
  11   1  -2    0.56    0.50
 -11   1   2   -0.15    0.36
 -10  -1   2    0.19    0.30
  10  -1  -2    0.34    0.33
  10   1  -2    0.58    0.34
 -10   1   2    0.65    0.32
 -10   1   2    0.46    0.24
  -9  -1   2    0.35    0.22
   9  -1  -2    0.14    0.25
   9  -1  -2    0.43    0.19
  -9   1   2   -0.05    0.28
  -9   1   2    0.14    0.23
   9   1  -2    0.26    0.35
   9   1  -2    0.18    0.16
  -8  -1   2    0.47    0.12
  -8  -1   2    0.54    0.21
   8  -1  -2    0.60    0.27
   8  -1  -2    0.95    0.15
   8   1  -2    0.71    0.14
  -8   1   2    0.43    0.19
   8   1  -2    0.41    0.29
   7  -1  -2   -0.18    0.21
  -7  -1   2   -0.09    0.16
  -7  -1   2    0.06    0.08
  -7  -1   2   -0.04    0.12
   7  -1  -2    0.12    0.11
  -7   1   2    0.23    0.14
   7   1  -2    0.13    0.11
   7   1  -2   -0.18    0.19
  -7   1   2   -0.01    0.15
   6  -1  -2    7.64    0.67
  -6  -1   2    8.11    0.71
  -6  -1   2    7.85    0.68
   6  -1  -2    7.29    0.71
  -6  -1   2    7.78    0.79
  -6   1   2    7.53    0.72
  -6   1   2    7.34    0.68
   6   1  -2    7.29    0.76
   6   1  -2    6.99    0.68
  -6   1   2    7.63    0.68
  -5  -1   2    1.46    0.15
  -5  -1   2    1.49    0.15
   5  -1  -2    1.28    0.15
  -5  -1   2    1.50    0.24
  -5  -1   2    1.14    0.20
  -5  -1   2    1.22    0.17
   5  -1  -2    1.30    0.17
   5  -1  -2    1.54    0.19
  -5   1   2    1.52    0.19
   5   1  -2    1.39    0.14
   5   1  -2    1.42    0.15
  -5   1   2    1.03    0.18
  -5   1   2    1.30    0.17
  -5   1   2    1.14    0.15
  -5   1   2    1.54    0.13
   5   1  -2    1.44    0.18
   5   1  -2    1.45    0.21
   4  -1  -2   84.04    7.76
   4  -1  -2   89.86    8.42
  -4  -1   2  102.65    8.41
  -4  -1   2   92.77    7.77
   4  -1  -2   87.74    8.11
  -4  -1   2   83.68    7.74
  -4  -1   2  108.88   10.02
  -4  -1   2  108.80    9.74
  -4   1   2  102.43    7.96
  -4   1   2   90.68    7.72
  -4   1   2   82.32    7.78
  -4   1   2   92.13    7.70
   4   1  -2   75.95    7.97
  -4   1   2  103.28    8.42
   4   1  -2   86.14    9.11
   4   1  -2   79.60    7.79
   4   1  -2   95.60    8.88
  -3  -1   2   33.69    2.88
  -3  -1   2   30.20    2.35
   3  -1  -2   24.33    2.43
  -3  -1   2   29.26    2.55
   3  -1  -2   24.55    2.37
  -3  -1   2   26.92    2.32
   3  -1  -2   27.40    2.52
   3   1  -2   24.09    2.37
   3   1  -2   28.93    2.53
  -3   1   2   27.40    2.34
   3   1  -2   29.36    2.77
  -3   1   2   24.59    2.33
   3   1  -2   27.10    2.68
  -3   1   2   27.70    2.34
   2  -1  -2   39.82    3.88
  -2  -1   2   41.06    3.72
  -2  -1   2   44.59    3.74
  -2  -1   2   48.20    4.19
   2  -1  -2   39.59    3.79
  -2  -1   2   52.69    4.41
   2   1  -2   36.82    3.80
  -2   1   2   53.24    4.06
  -2   1   2   40.17    3.78
   2   1  -2   53.40    5.29
   2   1  -2   42.67    4.27
  -2   1   2   42.96    3.75
  -2   1   2   42.60    3.81
   2   1  -2   45.85    3.94
   1  -1  -2    1.63    0.16
   1  -1  -2    1.78    0.17
  -1  -1   2    2.11    0.17
  -1  -1   2    2.08    0.16
  -1  -1   2    2.19    0.18
   1  -1  -2    1.45    0.16
  -1  -1   2    1.75    0.16
  -1   1   2    1.54    0.16
   1   1  -2    1.60    0.16
   1   1  -2    1.94    0.18
   1   1  -2    1.65    0.16
  -1   1   2    1.86    0.17
   1   1  -2    2.08    0.18
  -1   1   2    1.65    0.16
  -1   1   2    1.83    0.16
   1   1  -2    2.04    0.19
   0  -1  -2    1.14    0.11
   0  -1  -2    1.05    0.11
   0  -1   2    1.19    0.12
   0  -1   2    1.14    0.11
   0  -1  -2    1.22    0.14
   0  -1   2    1.35    0.11
   0  -1  -2    1.04    0.11
   0   1   2    1.32    0.12
   0   1   2    1.16    0.11
   0   1  -2    1.18    0.11
   0   1  -2    1.17    0.13
   0   1   2    1.21    0.11
   0   1   2    1.00    0.11
   0   1  -2    1.13    0.11
  -1  -1  -2   91.63    8.62
   1  -1   2  106.11    8.61
  -1  -1  -2  106.73   10.92
   1  -1   2   94.47    9.16
  -1  -1  -2   83.37    8.23
   1  -1   2  104.91    8.83
   1  -1   2  107.67   10.26
  -1  -1  -2   93.64    8.29
  -1   1  -2   97.56    8.85
   1   1   2   89.43    8.49
   1   1   2   92.08    9.29
  -1   1  -2   95.75    8.94
  -1   1  -2  100.46    8.80
   1   1   2  111.23   10.81
   1   1   2   79.74    8.62
  -2  -1  -2    0.38    0.08
   2  -1   2    0.52    0.08
   2  -1   2    0.54    0.08
   2  -1   2    0.36    0.07
  -2  -1  -2    0.52    0.07
   2  -1   2    0.40    0.07
  -2  -1  -2    0.34    0.08
  -2  -1  -2    0.35    0.07
  -2  -1  -2    0.32    0.05
   2   1   2    0.42    0.07
   2   1   2    0.43    0.07
  -2   1  -2    0.39    0.08
  -2   1  -2    0.43    0.07
   2   1   2    0.29    0.09
   2   1   2    0.35    0.08
  -2   1  -2    0.44    0.07
  -2   1  -2    0.44    0.07
   3  -1   2    0.47    0.10
   3  -1   2    0.61    0.12
  -3  -1  -2    0.63    0.10
   3  -1   2    0.63    0.07
  -3  -1  -2    0.39    0.10
  -3  -1  -2    0.60    0.10
   3  -1   2    0.57    0.10
  -3  -1  -2    0.66    0.08
  -3   1  -2    0.69    0.09
   3   1   2    0.43    0.11
  -3   1  -2    0.52    0.10
   3   1   2    0.53    0.09
   3   1   2    0.23    0.12
  -3   1  -2    0.70    0.11
  -3   1  -2    0.60    0.10
   3   1   2    0.63    0.12
   4  -1   2   49.81    5.11
  -4  -1  -2   57.50    5.82
   4  -1   2   54.45    5.03
  -4  -1  -2   52.17    5.72
   4  -1   2   51.21    5.62
   4  -1   2   53.13    5.38
  -4  -1  -2   56.26    4.65
  -4  -1  -2   52.55    5.19
  -4   1  -2   53.08    6.05
  -4   1  -2   52.23    4.68
  -4   1  -2   53.55    5.62
  -4   1  -2   55.32    5.83
   4   1   2   54.49    5.69
   4   1   2   50.25    5.33
   4   1   2   53.54    4.97
   4   1   2   52.18    5.12
   5  -1   2    4.34    0.42
   5  -1   2    4.45    0.44
  -5  -1  -2    4.15    0.42
   5  -1   2    4.62    0.43
   5  -1   2    3.67    0.46
  -5  -1  -2    4.33    0.45
  -5  -1  -2    4.04    0.45
   5   1   2    4.52    0.49
  -5   1  -2    4.85    0.42
   5   1   2    4.35    0.42
  -5   1  -2    5.06    0.49
   5   1   2    4.91    0.45
  -5   1  -2    4.20    0.47
  -6  -1  -2   11.34    1.18
  -6  -1  -2   11.54    1.26
   6  -1   2   12.83    1.22
   6  -1   2   12.21    1.11
   6  -1   2   11.22    1.10
  -6  -1  -2   12.00    1.08
  -6   1  -2   11.91    1.26
   6   1   2   11.41    1.19
   6   1   2   11.21    1.12
   6   1   2   11.12    1.30
  -6   1  -2   13.57    1.07
   7  -1   2    0.36    0.16
   7  -1   2    0.24    0.24
   7  -1   2    0.14    0.09
  -7  -1  -2    0.34    0.20
  -7  -1  -2    0.04    0.06
  -7   1  -2    0.08    0.18
   7   1   2    0.12    0.18
   7   1   2    0.56    0.27
  -7   1  -2   -0.15    0.17
   7   1   2    0.18    0.15
   8  -1   2    1.24    0.25
  -8  -1  -2    0.95    0.26
  -8  -1  -2    1.23    0.22
   8  -1   2    1.12    0.34
  -8   1  -2    0.83    0.21
   8   1   2    0.45    0.29
   8   1   2    1.24    0.25
  -8   1  -2    0.42    0.19
  -9  -1  -2    1.11    0.31
   9  -1   2    0.90    0.26
   9  -1   2    1.85    0.36
  -9  -1  -2    0.72    0.26
   9   1   2    1.73    0.31
  -9   1  -2    1.06    0.29
   9   1   2    0.67    0.43
  -9   1  -2    0.76    0.31
 -10  -1  -2    0.23    0.27
  10  -1   2    0.48    0.27
  10  -1   2    0.43    0.46
 -10  -1  -2   -0.07    0.33
  10   1   2    0.01    0.48
  10   1   2    0.18    0.30
 -10   1  -2    0.50    0.36
 -10   1  -2    0.59    0.91
  11  -1   2   -0.01    0.53
 -11  -1  -2   -0.01    0.40
  11   1   2   -0.31    0.58
 -11   1  -2   -0.05    0.31
 -11  -2   2    0.73    0.42
  11  -2  -2    1.60    0.50
  11   2  -2    1.63    0.54
 -11   2   2    1.66    0.42
 -11   2   2    0.99    0.38
  10  -2  -2    0.03    0.20
 -10  -2   2    0.07    0.31
  10  -2  -2   -0.32    0.31
  10   2  -2   -0.37    0.42
 -10   2   2   -0.14    0.37
 -10   2   2   -0.15    0.27
  -9  -2   2    4.70    0.53
   9  -2  -2    5.48    0.49
   9  -2  -2    4.53    0.57
  -9   2   2    5.29    0.57
   9   2  -2    5.26    0.48
   9   2  -2    4.60    0.58
  -9   2   2    4.66    0.52
   8  -2  -2    0.79    0.17
   8  -2  -2    0.29    0.27
  -8  -2   2    0.56    0.14
  -8  -2   2    0.65    0.23
   8   2  -2    0.69    0.15
  -8   2   2    0.69    0.19
  -8   2   2    0.74    0.22
   8   2  -2    0.36    0.24
   7  -2  -2   28.95    3.03
  -7  -2   2   28.95    2.58
  -7  -2   2   52.62   12.44
  -7  -2   2   31.51    2.93
   7  -2  -2   30.29    2.62
   7   2  -2   28.39    2.68
  -7   2   2   31.54    2.68
  -7   2   2   25.51    2.68
   7   2  -2   29.12    2.78
  -7   2   2   31.26    3.50
   7   2  -2   28.48    2.63
  -6  -2   2    1.06    0.14
   6  -2  -2    1.64    0.22
   6  -2  -2    0.87    0.15
  -6  -2   2    0.83    0.18
   6  -2  -2    1.00    0.19
  -6  -2   2    1.05    0.13
  -6  -2   2    1.11    0.19
   6   2  -2    1.17    0.22
  -6   2   2    0.80    0.15
  -6   2   2    1.16    0.17
   6   2  -2    1.13    0.15
   6   2  -2    1.34    0.14
  -6   2   2    1.28    0.19
  -5  -2   2    6.42    0.61
  -5  -2   2    6.21    0.53
  -5  -2   2    5.53    0.53
   5  -2  -2    5.17    0.55
  -5  -2   2    5.88    0.58
  -5  -2   2    6.27    0.52
   5  -2  -2    5.91    0.55
  -5  -2   2    4.96    0.55
   5  -2  -2    5.51    0.52
  -5   2   2    6.19    0.56
   5   2  -2    6.19    0.61
   5   2  -2    5.33    0.54
   5   2  -2    5.52    0.55
  -5   2   2    5.95    0.52
  -5   2   2    5.29    0.52
  -5   2   2    6.25    0.61
   5   2  -2    5.97    0.53
   4  -2  -2    0.77    0.10
  -4  -2   2    0.98    0.10
  -4  -2   2    0.93    0.12
  -4  -2   2    0.77    0.13
   4  -2  -2    0.65    0.12
  -4  -2   2    0.63    0.11
  -4  -2   2    0.87    0.14
   4  -2  -2    0.73    0.11
  -4  -2   2    0.85    0.17
  -4   2   2    0.63    0.10
  -4   2   2    0.54    0.14
   4   2  -2    0.75    0.10
  -4   2   2    0.91    0.13
  -4   2   2    0.62    0.11
   4   2  -2    0.81    0.13
   4   2  -2    0.84    0.11
   4   2  -2    0.80    0.16
   3  -2  -2    1.10    0.15
  -3  -2   2    1.18    0.14
   3  -2  -2    1.32    0.14
  -3  -2   2    1.49    0.14
  -3  -2   2    1.30    0.16
  -3  -2   2    1.25    0.15
  -3  -2   2    1.22    0.14
  -3   2   2    1.06    0.13
   3   2  -2    1.45    0.15
   3   2  -2    1.40    0.17
  -3   2   2    1.22    0.15
  -3   2   2    1.55    0.12
   3   2  -2    1.33    0.14
  -3   2   2    1.24    0.14
   3   2  -2    1.00    0.13
   3   2  -2    1.44    0.16
  -3   2   2    1.56    0.17
  -2  -2   2    6.92    0.68
   2  -2  -2    8.10    0.73
  -2  -2   2    6.97    0.68
  -2  -2   2    9.17    0.79
   2  -2  -2    6.53    0.69
  -2  -2   2    9.52    0.79
   2  -2  -2    8.11    0.71
  -2   2   2    9.88    0.82
  -2   2   2    8.39    0.72
  -2   2   2    7.66    0.69
  -2   2   2    8.90    0.81
   2   2  -2    9.41    0.92
   2   2  -2    8.41    0.98
   2   2  -2    7.29    0.72
   2   2  -2    9.18    0.81
   2   2  -2    7.28    0.70
  -2   2   2    7.60    0.70
  -1  -2   2   40.45    3.31
   1  -2  -2   33.92    3.11
  -1  -2   2   32.22    2.92
   1  -2  -2   31.00    3.68
  -1  -2   2   33.31    2.93
  -1  -2   2   37.52    3.05
   1   2  -2   35.28    3.09
   1   2  -2   39.09    3.94
   1   2  -2   36.75    3.18
  -1   2   2   30.48    3.18
  -1   2   2   28.90    2.97
  -1   2   2   30.36    2.95
  -1   2   2   34.49    3.01
  -1   2   2   34.70    3.12
   1   2  -2   33.63    2.94
   0  -2  -2   26.35    2.90
   0  -2   2   32.30    2.86
   0  -2   2   34.00    2.82
   0  -2  -2   32.61    3.19
   0  -2  -2   31.15    2.91
   0  -2   2   33.84    2.95
   0   2   2   31.79    2.95
   0   2  -2   33.26    3.06
   0   2   2   30.62    3.05
   0   2  -2   33.24    2.88
   0   2   2   30.58    2.90
   0   2   2   31.17    2.98
   0   2  -2   35.68    2.85
   1  -2   2  911.97   72.70
  -1  -2  -2  801.28   71.03
  -1  -2  -2  679.01   70.16
  -1  -2  -2  859.13   77.14
   1  -2   2  879.41   72.33
  -1  -2  -2  905.42   82.09
   1   2   2 1000.00   94.70
   1   2   2  829.98   75.02
   1   2   2  722.44   71.85
   1   2   2  794.40   72.44
   2  -2   2    0.20    0.07
   2  -2   2    0.15    0.07
   2  -2   2    0.20    0.09
  -2  -2  -2    0.05    0.08
  -2  -2  -2    0.25    0.06
  -2  -2  -2    0.23    0.06
  -2  -2  -2    0.28    0.07
   2  -2   2    0.31    0.06
  -2   2  -2    0.27    0.07
  -2   2  -2    0.09    0.07
   2   2   2    0.16    0.06
  -2   2  -2    0.20    0.07
   2   2   2    0.19    0.08
  -2   2  -2    0.23    0.05
   2   2   2    0.12    0.09
   2   2   2    0.19    0.08
   2   2   2    0.19    0.05
  -3  -2  -2   30.30    3.01
   3  -2   2   30.92    3.03
  -3  -2  -2   34.61    3.84
  -3  -2  -2   32.60    3.00
   3  -2   2   34.74    3.92
   3  -2   2   33.08    3.39
   3  -2   2   32.01    3.07
  -3  -2  -2   34.45    2.88
   3   2   2   31.36    3.01
  -3   2  -2   33.33    3.07
   3   2   2   33.91    3.97
   3   2   2   32.06    3.46
  -3   2  -2   33.24    2.87
  -3   2  -2   34.17    3.11
  -3   2  -2   34.04    3.01
   3   2   2   31.40    3.13
   4  -2   2   -0.06    0.10
  -4  -2  -2   -0.03    0.07
   4  -2   2   -0.10    0.09
  -4  -2  -2    0.05    0.08
   4  -2   2    0.04    0.10
  -4  -2  -2    0.02    0.10
   4  -2   2   -0.06    0.05
  -4  -2  -2    0.05    0.09
   4   2   2   -0.08    0.13
  -4   2  -2   -0.05    0.11
   4   2   2   -0.08    0.10
   4   2   2   -0.06    0.13
  -4   2  -2    0.01    0.09
   4   2   2   -0.03    0.13
  -4   2  -2   -0.11    0.10
  -4   2  -2    0.06    0.09
   5  -2   2    0.46    0.16
  -5  -2  -2    0.22    0.12
  -5  -2  -2    0.42    0.11
   5  -2   2    0.14    0.11
  -5  -2  -2    0.33    0.10
   5  -2   2    0.26    0.06
   5  -2   2    0.19    0.13
  -5  -2  -2    0.44    0.13
  -5   2  -2    0.14    0.13
  -5   2  -2    0.37    0.11
   5   2   2    0.32    0.12
   5   2   2    0.40    0.20
   5   2   2    0.41    0.12
  -5   2  -2    0.35    0.12
  -6  -2  -2    0.31    0.17
   6  -2   2    0.40    0.16
  -6  -2  -2    0.05    0.12
   6  -2   2    0.08    0.13
  -6  -2  -2    0.02    0.11
   6  -2   2    0.39    0.21
  -6  -2  -2    0.20    0.16
   6   2   2    0.45    0.25
  -6   2  -2    0.27    0.12
   6   2   2    0.36    0.14
  -6   2  -2    0.12    0.14
   6   2   2    0.29    0.17
  -7  -2  -2   11.00    0.99
   7  -2   2   11.38    1.02
  -7  -2  -2   11.15    1.02
   7  -2   2   10.26    0.95
   7  -2   2   10.97    1.08
  -7   2  -2   11.37    3.80
   7   2   2   10.83    1.12
   7   2   2    9.98    1.03
  -7   2  -2   10.98    0.99
   7   2   2   10.30    1.03
  -8  -2  -2    0.37    0.15
  -8  -2  -2    0.42    0.21
   8  -2   2    0.94    0.24
   8  -2   2    0.71    0.32
   8   2   2    0.50    0.36
  -8   2  -2    0.44    0.24
  -8   2  -2    0.49    0.21
   9  -2   2    1.35    0.40
  -9  -2  -2    0.92    0.27
   9  -2   2    1.44    0.30
   9   2   2    1.30    0.33
  -9   2  -2    1.22    0.27
   9   2   2    1.21    0.44
  -9   2  -2    0.97    0.81
  10  -2   2   -0.08    0.45
 -10  -2  -2    0.02    0.34
 -10  -2  -2    0.73    0.38
  10  -2   2    0.16    0.26
 -10   2  -2    0.36    0.36
  10   2   2    0.72    0.33
 -10   2  -2    0.38    0.25
  10   2   2   -0.24    0.42
  11   2   2    3.82    1.26
 -11  -3   2    0.35    0.42
  11  -3  -2    0.34    0.46
  11   3  -2    0.34    0.46
 -11   3   2    0.42    0.38
 -11   3   2   -0.35    0.32
  10  -3  -2    0.79    0.40
 -10  -3   2    1.35    0.66
 -10   3   2    0.93    0.29
 -10   3   2    1.13    0.35
  10   3  -2    0.77    0.40
   9  -3  -2    2.26    0.38
  -9  -3   2    2.61    0.37
   9   3  -2    1.93    0.44
  -9   3   2    2.56    0.37
   9   3  -2    2.51    0.39
  -9   3   2    1.64    0.31
   8  -3  -2    5.37    0.47
  -8  -3   2    5.09    0.51
  -8  -3   2    4.72    0.48
   8  -3  -2    4.43    0.51
   8   3  -2    5.58    0.56
  -8   3   2    4.70    0.49
   8   3  -2    4.12    0.46
  -8   3   2    4.78    0.54
   7  -3  -2   -0.11    0.12
  -7  -3   2   -0.03    0.11
   7  -3  -2   -0.21    0.16
  -7  -3   2    0.19    0.13
  -7  -3   2   -0.08    0.15
  -7   3   2   -0.11    0.14
  -7   3   2   -0.04    0.16
   7   3  -2    0.14    0.14
   7   3  -2    0.01    0.12
   7   3  -2    0.06    0.26
  -7   3   2    0.06    0.16
  -6  -3   2   12.08    1.18
  -6  -3   2   11.98    1.20
  -6  -3   2   12.76    1.11
   6  -3  -2   12.02    1.13
   6  -3  -2   12.77    1.18
   6  -3  -2   12.71    1.12
  -6  -3   2   13.56    1.12
  -6   3   2   11.42    1.10
   6   3  -2   11.98    1.24
   6   3  -2   11.06    1.19
   6   3  -2   12.08    1.14
  -6   3   2   12.37    1.11
  -6   3   2   11.73    1.46
  -5  -3   2   -0.07    0.08
  -5  -3   2   -0.15    0.12
   5  -3  -2   -0.02    0.06
  -5  -3   2    0.25    0.13
  -5  -3   2    0.00    0.07
  -5  -3   2   -0.01    0.09
   5  -3  -2    0.07    0.12
   5  -3  -2    0.02    0.10
  -5   3   2    0.26    0.09
  -5   3   2   -0.09    0.12
   5   3  -2   -0.14    0.18
  -5   3   2   -0.02    0.09
   5   3  -2   -0.11    0.08
   5   3  -2    0.05    0.10
  -4  -3   2   36.07    3.53
  -4  -3   2   36.68    3.59
  -4  -3   2   31.83    2.88
   4  -3  -2   30.88    2.92
   4  -3  -2   30.65    2.96
  -4  -3   2   34.57    2.87
  -4   3   2   31.22    2.89
   4   3  -2   35.85    3.42
   4   3  -2   34.80    3.53
   4   3  -2   33.71    3.18
  -4   3   2   39.32    3.66
   4   3  -2   32.18    2.94
  -4   3   2   33.44    2.86
  -4   3   2   33.62    2.89
  -3  -3   2    4.83    0.46
  -3  -3   2    5.51    0.53
   3  -3  -2    4.82    0.46
  -3  -3   2    5.37    0.49
   3  -3  -2    4.98    0.48
  -3  -3   2    4.65    0.46
   3  -3  -2    5.59    0.49
   3   3  -2    5.97    0.56
  -3   3   2    5.19    0.47
  -3   3   2    5.12    0.46
   3   3  -2    6.28    0.60
   3   3  -2    4.83    0.47
  -3   3   2    6.08    0.52
  -3   3   2    4.98    0.46
   3   3  -2    5.22    0.48
  -3   3   2    5.74    0.46
   3   3  -2    4.75    0.47
   3   3  -2    5.58    0.65
  -2  -3   2    5.02    0.47
   2  -3  -2    5.68    0.47
  -2  -3   2    6.16    0.51
   2  -3  -2    4.34    0.59
  -2  -3   2    4.61    0.47
   2  -3  -2    4.74    0.46
   2  -3  -2    5.09    0.48
  -2  -3   2    6.03    0.55
  -2   3   2    5.90    0.50
   2   3  -2    5.12    0.48
  -2   3   2    5.36    0.46
  -2   3   2    5.00    0.48
   2   3  -2    5.43    0.50
  -2   3   2    5.97    0.49
   2   3  -2    5.47    0.49
   2   3  -2    5.86    0.52
   1  -3  -2   17.09    1.56
  -1  -3   2   15.85    1.52
  -1  -3   2   16.94    1.53
   1  -3  -2   16.00    1.91
  -1  -3   2   18.34    1.65
  -1  -3   2   18.61    1.60
  -1   3   2   17.57    1.65
  -1   3   2   17.67    1.56
  -1   3   2   18.22    1.58
   1   3  -2   17.42    1.67
   1   3  -2   18.15    1.66
  -1   3   2   17.87    1.63
   1   3  -2   16.68    1.89
   1   3  -2   18.50    1.64
   1   3  -2   18.13    1.55
   0  -3   2   45.00    4.12
   0  -3   2   42.61    3.84
   0  -3  -2   43.01    3.95
   0  -3   2   44.06    3.91
   0  -3   2   46.46    3.85
   0   3   2   41.27    3.84
   0   3  -2   46.28    3.86
   0   3  -2   47.53    4.41
   0   3   2   40.05    3.93
   0   3   2   43.82    4.02
   0   3   2   43.21    4.20
   0   3  -2   46.84    3.95
  -1  -3  -2  137.58   12.60
   1  -3   2  152.43   13.23
   1  -3   2  152.55   15.16
   1  -3   2  141.97   12.43
  -1  -3  -2  124.67   12.36
  -1  -3  -2  148.79   14.01
   1  -3   2  149.02   12.53
   1   3   2  122.31   12.88
  -1   3  -2  150.71   13.75
   1   3   2  139.80   12.66
   1   3   2  148.87   13.90
  -1   3  -2  161.18   13.05
  -1   3  -2  150.55   12.67
   1   3   2  146.53   13.79
   2  -3   2   18.86    1.73
  -2  -3  -2   17.51    1.60
  -2  -3  -2   15.10    1.58
  -2  -3  -2   18.15    1.70
   2  -3   2   19.26    1.73
   2  -3   2   19.08    1.62
   2  -3   2   19.91    2.00
  -2  -3  -2   19.73    1.86
  -2   3  -2   19.08    1.67
  -2   3  -2   19.78    1.60
  -2   3  -2   20.23    1.62
   2   3   2   17.15    1.64
   2   3   2   16.93    1.75
   2   3   2   15.90    1.59
   2   3   2   19.90    1.87
  -3  -3  -2   16.41    1.73
  -3  -3  -2   21.91    2.22
   3  -3   2   20.03    1.79
   3  -3   2   20.49    1.76
  -3  -3  -2   19.75    1.73
   3  -3   2   18.85    1.93
  -3  -3  -2   19.43    1.80
   3  -3   2   21.49    2.08
  -3   3  -2   17.06    1.70
  -3   3  -2   20.88    1.78
  -3   3  -2   20.80    1.73
   3   3   2   18.38    1.96
   3   3   2   19.12    1.89
  -3   3  -2   20.78    1.74
   3   3   2   20.08    2.13
   3   3   2   19.86    1.83
   3   3   2   21.32    2.93
   4  -3   2   92.64    8.36
   4  -3   2   86.22    8.07
  -4  -3  -2   79.28    7.50
   4  -3   2   91.40   10.31
  -4  -3  -2   91.34    8.27
  -4  -3  -2   92.02   12.53
  -4  -3  -2   76.95    7.99
  -4   3  -2   76.95    7.69
  -4   3  -2   97.80    8.93
   4   3   2   85.42    7.95
   4   3   2   92.24   10.64
  -4   3  -2   95.32    9.48
   4   3   2   96.07    9.27
  -4   3  -2   96.11    7.74
   4   3   2   86.29    8.83
  -5  -3  -2    0.22    0.12
   5  -3   2    0.33    0.13
  -5  -3  -2    0.35    0.13
   5  -3   2    0.24    0.17
  -5  -3  -2    0.35    0.13
   5  -3   2    0.44    0.07
   5  -3   2    0.20    0.14
  -5  -3  -2    0.32    0.18
  -5   3  -2    0.40    0.13
   5   3   2    0.37    0.13
   5   3   2    0.31    0.14
  -5   3  -2    0.37    0.11
   5   3   2    0.29    0.22
  -6  -3  -2   19.14    2.40
  -6  -3  -2   24.32    2.29
  -6  -3  -2   25.72    2.17
   6  -3   2   23.31    2.23
   6  -3   2   24.51    2.16
  -6  -3  -2   24.05    2.25
   6  -3   2   22.81    2.48
  -6   3  -2   25.51    3.09
  -6   3  -2   26.44    2.23
   6   3   2   22.84    2.28
   6   3   2   23.40    2.37
   6   3   2   23.28    3.20
   7  -3   2    0.09    0.17
   7  -3   2    0.06    0.21
  -7  -3  -2    0.20    0.21
  -7  -3  -2    0.08    0.14
   7   3   2    0.30    0.21
  -7   3  -2    0.27    0.19
   7   3   2    0.62    0.25
  -7   3  -2   -0.09    0.16
   8  -3   2    0.42    0.20
  -8  -3  -2    0.20    0.16
  -8  -3  -2    0.26    0.21
   8  -3   2    0.39    0.25
   8   3   2    0.61    0.40
  -8   3  -2    0.39    0.25
  -8   3  -2    0.31    0.20
   8   3   2    0.31    0.27
   9  -3   2    0.12    0.23
  -9  -3  -2   -0.07    0.24
   9  -3   2    0.17    0.29
  -9   3  -2    0.18    0.29
   9   3   2    0.20    0.36
  -9   3  -2    0.18    0.24
   9   3   2   -0.07    0.44
 -10  -3  -2    2.16    0.42
  10  -3   2    1.79    0.33
  10  -3   2    1.08    0.46
 -10   3  -2    0.94    0.33
  10   3   2    1.38    0.56
 -10   3  -2    1.59    0.42
  11  -4  -2    1.17    1.28
 -11  -4   2   -0.30    0.43
 -11   4   2   -0.07    0.30
  11   4  -2   -0.56    0.48
 -11   4   2   -0.22    0.41
 -10  -4   2   -0.10    0.33
  10  -4  -2    0.41    0.37
 -10   4   2   -0.11    0.26
  10   4  -2    0.35    0.46
 -10   4   2    0.09    0.32
  -9  -4   2    0.44    0.28
   9  -4  -2    0.10    0.24
  -9   4   2    0.37    0.34
   9   4  -2    0.10    0.39
  -9   4   2   -0.03    0.21
  -8  -4   2    0.60    0.20
  -8  -4   2    0.63    0.19
   8  -4  -2    0.52    0.21
   8   4  -2    0.35    0.17
  -8   4   2    0.50    0.18
  -8   4   2    0.55    0.23
   8   4  -2    0.83    0.34
  -7  -4   2    1.47    0.24
   7  -4  -2    2.08    0.28
  -7  -4   2    1.62    0.21
  -7   4   2    1.90    0.27
   7   4  -2    1.44    0.20
   7   4  -2    1.58    0.29
  -7   4   2    1.70    0.22
  -6  -4   2   -0.04    0.12
   6  -4  -2   -0.04    0.12
  -6  -4   2   -0.14    0.14
   6  -4  -2   -0.13    0.14
  -6  -4   2    0.17    0.14
  -6   4   2    0.26    0.12
  -6   4   2    0.29    0.12
   6   4  -2    0.04    0.23
   6   4  -2   -0.01    0.11
   6   4  -2    0.11    0.13
  -6   4   2    0.25    0.15
   5  -4  -2    5.78    0.58
  -5  -4   2    6.63    0.62
  -5  -4   2    6.13    0.58
  -5  -4   2    6.70    0.58
   5  -4  -2    5.83    0.63
  -5  -4   2    6.15    0.66
  -5   4   2    7.58    0.67
  -5   4   2    5.94    0.56
   5   4  -2    6.10    0.67
  -5   4   2    5.90    0.57
   5   4  -2    6.22    0.66
   5   4  -2    6.70    0.60
  -4  -4   2   28.52    2.43
  -4  -4   2   29.59    2.48
   4  -4  -2   27.55    2.58
  -4  -4   2   28.60    2.67
  -4  -4   2   31.60    3.09
   4  -4  -2   27.13    2.52
   4  -4  -2   25.39    2.50
  -4   4   2   31.65    2.99
   4   4  -2   26.25    2.73
   4   4  -2   29.66    3.17
  -4   4   2   26.21    2.48
   4   4  -2   26.25    2.68
   4   4  -2   27.71    3.12
  -4   4   2   27.71    2.41
   4   4  -2   26.43    2.53
   4   4  -2   31.05    2.98
  -4   4   2   28.02    2.43
  -4   4   2   29.80    2.48
   3  -4  -2    6.54    0.69
   3  -4  -2    7.85    0.70
   3  -4  -2    8.01    0.74
  -3  -4   2    7.85    0.71
   3  -4  -2    8.27    0.74
  -3  -4   2    8.08    0.72
  -3  -4   2    7.69    0.71
  -3  -4   2    8.17    0.82
   3   4  -2    7.76    0.75
   3   4  -2    7.10    0.73
  -3   4   2    8.12    0.70
  -3   4   2    8.75    0.72
   3   4  -2    8.21    0.87
   3   4  -2    7.84    0.80
   3   4  -2    7.96    0.80
   3   4  -2    8.18    0.78
  -3   4   2    8.39    0.71
  -3   4   2    7.68    0.70
  -3   4   2    9.13    0.76
  -2  -4   2   -0.06    0.06
   2  -4  -2    0.11    0.10
   2  -4  -2    0.04    0.05
  -2  -4   2    0.02    0.09
   2  -4  -2   -0.03    0.09
  -2  -4   2   -0.04    0.06
  -2  -4   2   -0.09    0.08
   2   4  -2    0.03    0.07
   2   4  -2    0.05    0.08
  -2   4   2    0.00    0.05
   2   4  -2    0.00    0.11
  -2   4   2    0.03    0.10
  -2   4   2    0.01    0.06
  -2   4   2   -0.01    0.07
   2   4  -2    0.00    0.07
   1  -4  -2    4.68    0.44
  -1  -4   2    5.06    0.43
  -1  -4   2    5.57    0.50
  -1  -4   2    4.90    0.44
   1  -4  -2    4.33    0.54
   1   4  -2    4.85    0.45
  -1   4   2    5.07    0.48
   1   4  -2    5.54    0.46
  -1   4   2    4.28    0.45
  -1   4   2    4.32    0.44
   1   4  -2    4.77    0.45
   1   4  -2    4.36    0.47
   1   4  -2    4.97    0.47
   0  -4  -2    0.70    0.12
   0  -4   2    0.74    0.12
   0  -4   2    0.78    0.08
   0  -4   2    0.84    0.11
   0  -4  -2    0.71    0.11
   0   4  -2    0.88    0.13
   0   4  -2    0.62    0.10
   0   4  -2    0.75    0.08
   0   4   2    0.66    0.09
   0   4   2    0.76    0.12
   0   4  -2    0.75    0.11
   0   4   2    0.79    0.08
   0   4   2    0.61    0.12
  -1  -4  -2   35.81    3.76
   1  -4   2   43.27    3.81
   1  -4   2   46.09    3.91
   1  -4   2   45.38    3.74
  -1  -4  -2   38.45    3.77
   1  -4   2   43.09    3.85
  -1  -4  -2   41.70    4.07
  -1   4  -2   50.85    3.87
   1   4   2   39.85    3.91
   1   4   2   41.71    3.86
   1   4   2   40.46    3.81
  -1   4  -2   44.64    3.72
   1   4   2   47.62    4.40
  -1   4  -2   44.49    3.77
   2  -4   2    6.57    0.67
  -2  -4  -2    6.78    0.63
  -2  -4  -2    6.47    0.62
   2  -4   2    6.77    0.61
   2  -4   2    7.02    0.60
   2  -4   2    6.64    0.60
   2  -4   2    6.74    0.62
  -2  -4  -2    6.50    0.60
  -2   4  -2    6.90    0.61
   2   4   2    6.64    0.62
  -2   4  -2    7.04    0.60
   2   4   2    6.19    0.63
   2   4   2    6.85    0.61
   2   4   2    7.11    0.69
  -2   4  -2    7.03    0.63
  -3  -4  -2    7.64    0.71
  -3  -4  -2    8.07    0.72
   3  -4   2    8.40    0.72
  -3  -4  -2    6.86    0.71
  -3  -4  -2    7.46    0.72
   3  -4   2    8.46    0.75
   3  -4   2    9.45    0.74
   3  -4   2    8.04    0.78
   3  -4   2    8.07    0.70
  -3  -4  -2    7.49    0.81
   3   4   2    7.06    0.77
  -3   4  -2    9.20    0.76
   3   4   2    7.88    0.76
   3   4   2    6.85    0.73
  -3   4  -2    8.45    0.72
  -3   4  -2    7.91    0.72
   3   4   2    6.70    0.73
  -3   4  -2    9.24    0.73
  -4  -4  -2    0.59    0.14
  -4  -4  -2    0.79    0.11
  -4  -4  -2    0.40    0.13
   4  -4   2    0.76    0.12
   4  -4   2    0.77    0.16
   4  -4   2    0.54    0.08
  -4  -4  -2    0.59    0.13
   4  -4   2    0.49    0.22
  -4  -4  -2    0.81    0.14
   4  -4   2    0.66    0.13
   4   4   2    0.76    0.15
  -4   4  -2    0.87    0.13
  -4   4  -2    0.81    0.10
   4   4   2    0.35    0.16
   4   4   2    0.74    0.24
  -4   4  -2    0.56    0.14
  -4   4  -2    0.67    0.15
   4   4   2    0.57    0.14
   5  -4   2    0.78    0.15
   5  -4   2    0.72    0.14
   5  -4   2    0.30    0.18
  -5  -4  -2    1.07    0.15
  -5  -4  -2    0.49    0.16
  -5  -4  -2    0.97    0.18
   5  -4   2    0.81    0.09
  -5  -4  -2    0.63    0.14
   5  -4   2    0.63    0.09
  -5  -4  -2    0.61    0.15
   5   4   2    1.07    0.19
   5   4   2    0.80    0.20
  -5   4  -2    0.43    0.12
   5   4   2    0.52    0.21
  -5   4  -2    0.61    0.17
   6  -4   2    5.24    0.47
   6  -4   2    3.99    0.49
   6  -4   2    5.57    0.43
  -6  -4  -2    4.65    0.49
   6  -4   2    4.89    0.42
  -6  -4  -2    4.69    0.48
   6  -4   2    4.37    0.46
  -6  -4  -2    3.83    0.49
  -6  -4  -2    4.88    0.48
  -6   4  -2    5.18    0.47
   6   4   2    4.38    0.53
  -6   4  -2    4.84    0.50
   6   4   2    4.64    0.52
  -7  -4  -2    1.28    0.20
  -7  -4  -2    1.20    0.23
   7  -4   2    1.61    0.30
   7  -4   2    1.85    0.24
   7   4   2    1.32    0.31
  -7   4  -2    1.03    0.22
   7   4   2    1.57    0.27
  -7   4  -2    1.24    0.23
   8  -4   2   -0.09    0.24
   8  -4   2   -0.35    0.19
  -8  -4  -2    0.06    0.16
  -8  -4  -2    0.08    0.26
   8   4   2   -0.13    0.25
  -8   4  -2    0.05    0.34
   8   4   2    0.25    0.33
  -8   4  -2    0.09    0.22
  -9  -4  -2    0.80    0.28
   9  -4   2    0.79    0.26
   9  -4   2    0.79    0.39
   9   4   2    0.22    0.41
  -9   4  -2    0.47    0.34
  -9   4  -2    0.38    0.24
   9   4   2    1.01    0.28
  10  -4   2   -0.14    0.41
 -10  -4  -2    0.19    0.31
  10  -4   2   -0.37    0.30
  10   4   2    0.19    0.55
 -10   4  -2   -0.11    0.33
 -10   4  -2   -0.41    0.40
  11  -5  -2   -0.07    0.40
 -11  -5   2   -0.23    0.63
  11   5  -2   -0.05    0.47
 -11   5   2    0.34    0.51
 -10  -5   2   -0.22    0.28
  10  -5  -2    0.14    0.38
  10   5  -2    0.19    0.50
 -10   5   2   -0.03    0.34
 -10   5   2   -0.10    0.26
  -9  -5   2   -0.07    0.22
   9  -5  -2   -0.02    0.30
  -9  -5   2   -0.15    0.23
  -9   5   2    0.14    0.27
  -9   5   2   -0.15    0.20
   9   5  -2    0.47    0.45
  -8  -5   2    0.15    0.25
  -8  -5   2    0.14    0.17
   8  -5  -2    0.10    0.21
   8   5  -2    0.02    0.15
  -8   5   2   -0.24    0.21
  -8   5   2   -0.18    0.18
   8   5  -2   -0.16    0.28
  -7  -5   2    0.51    0.30
  -7  -5   2    0.13    0.15
   7  -5  -2    0.35    0.19
  -7   5   2    0.23    0.19
   7   5  -2    0.45    0.16
   7   5  -2    0.66    0.26
  -7   5   2    0.23    0.15
  -6  -5   2    2.01    0.27
   6  -5  -2    2.41    0.26
  -6  -5   2    2.19    0.24
  -6  -5   2    1.63    0.25
   6  -5  -2    1.85    0.22
  -6   5   2    1.58    0.22
   6   5  -2    2.14    0.25
   6   5  -2    1.80    0.32
  -6   5   2    2.73    0.30
  -5  -5   2   -0.03    0.12
   5  -5  -2    0.08    0.09
  -5  -5   2    0.07    0.13
  -5  -5   2    0.01    0.11
   5  -5  -2    0.09    0.13
  -5   5   2    0.14    0.09
  -5   5   2   -0.34    0.13
  -5   5   2   -0.02    0.13
   5   5  -2    0.13    0.22
   5   5  -2    0.04    0.12
   4  -5  -2   19.11    1.74
  -4  -5   2   19.83    1.74
  -4  -5   2   19.17    2.00
  -4  -5   2   19.40    1.65
   4  -5  -2   15.76    1.63
  -4  -5   2   17.66    1.66
   4  -5  -2   19.85    1.73
   4   5  -2   17.27    1.77
  -4   5   2   21.23    1.95
   4   5  -2   18.34    1.79
   4   5  -2   19.03    1.75
   4   5  -2   18.22    1.77
   4   5  -2   19.93    1.94
   4   5  -2   19.59    2.01
  -4   5   2   19.07    1.64
  -4   5   2   20.12    1.67
  -4   5   2   19.26    1.69
   3  -5  -2   24.94    2.27
  -3  -5   2   27.31    2.40
   3  -5  -2   26.79    2.27
   3  -5  -2   23.08    2.50
  -3  -5   2   23.44    2.21
  -3  -5   2   26.39    2.27
   3  -5  -2   23.48    2.21
  -3  -5   2   25.65    2.30
   3   5  -2   27.28    2.44
   3   5  -2   25.36    2.45
   3   5  -2   24.96    2.32
  -3   5   2   27.56    2.29
  -3   5   2   24.02    2.21
  -3   5   2   24.34    2.24
   3   5  -2   27.59    2.74
   3   5  -2   26.94    2.98
  -3   5   2   24.39    2.23
  -3   5   2   29.09    2.46
   2  -5  -2   55.66    5.51
  -2  -5   2   52.39    5.08
   2  -5  -2   55.21    7.15
  -2  -5   2   63.55    5.25
  -2  -5   2   56.00    5.19
  -2  -5   2   60.88    5.19
   2   5  -2   59.95    5.79
   2   5  -2   59.81    6.15
   2   5  -2   59.89    5.42
  -2   5   2   57.27    5.40
  -2   5   2   60.83    5.42
   2   5  -2   54.57    5.58
  -2   5   2   56.32    5.15
  -2   5   2   57.74    5.12
  -1  -5   2    2.18    0.21
   1  -5  -2    1.85    0.25
  -1  -5   2    2.33    0.20
   1  -5  -2    1.77    0.21
  -1  -5   2    2.39    0.23
  -1   5   2    2.08    0.22
   1   5  -2    2.21    0.20
  -1   5   2    1.98    0.20
  -1   5   2    1.83    0.19
  -1   5   2    2.12    0.23
   1   5  -2    2.34    0.21
   1   5  -2    1.92    0.21
   1   5  -2    1.79    0.24
   0  -5  -2    7.32    0.68
   0  -5   2    7.85    0.73
   0  -5   2    7.45    0.66
   0  -5   2    7.58    0.66
   0   5   2    7.31    0.70
   0   5  -2    7.26    0.70
   0   5   2    6.57    0.67
   0   5   2    7.36    0.67
   0   5  -2    8.53    0.72
   0   5  -2    7.53    0.71
   0   5   2    6.72    0.66
   0   5  -2    8.31    0.68
   1  -5   2    7.41    0.68
  -1  -5  -2    6.88    0.71
   1  -5   2    7.80    0.64
  -1  -5  -2    6.57    0.66
  -1  -5  -2    7.36    0.67
   1  -5   2    7.51    0.65
   1   5   2    7.28    0.81
  -1   5  -2    8.13    0.66
   1   5   2    6.83    0.66
   1   5   2    6.37    0.66
  -1   5  -2    8.43    0.66
  -1   5  -2    7.66    0.68
   1   5   2    6.77    0.72
  -2  -5  -2    1.12    0.14
   2  -5   2    0.92    0.19
  -2  -5  -2    1.02    0.15
   2  -5   2    1.26    0.11
  -2  -5  -2    0.83    0.14
   2  -5   2    1.12    0.12
   2  -5   2    1.28    0.15
   2  -5   2    0.98    0.13
  -2   5  -2    1.08    0.14
   2   5   2    0.74    0.14
   2   5   2    0.75    0.15
   2   5   2    1.11    0.16
   2   5   2    0.81    0.14
  -2   5  -2    0.99    0.13
  -2   5  -2    1.10    0.17
  -3  -5  -2    2.35    0.26
  -3  -5  -2    2.33    0.24
   3  -5   2    2.16    0.30
   3  -5   2    2.54    0.23
   3  -5   2    2.63    0.26
  -3  -5  -2    2.05    0.25
   3  -5   2    2.34    0.24
   3  -5   2    2.61    0.23
  -3  -5  -2    2.18    0.26
   3   5   2    2.05    0.25
   3   5   2    2.40    0.27
  -3   5  -2    2.65    0.26
  -3   5  -2    2.73    0.26
   3   5   2    1.86    0.27
   3   5   2    2.00    0.25
  -3   5  -2    2.90    0.26
  -4  -5  -2   26.62    3.28
  -4  -5  -2   29.31    2.83
   4  -5   2   30.27    2.70
   4  -5   2   32.36    2.88
  -4  -5  -2   30.87    2.78
  -4  -5  -2   25.86    2.78
   4  -5   2   30.47    2.72
   4  -5   2   29.15    2.73
   4  -5   2   27.09    2.65
  -4  -5  -2   29.04    2.67
   4   5   2   31.55    3.09
  -4   5  -2   33.25    2.72
   4   5   2   28.27    3.17
   4   5   2   30.72    2.96
   4   5   2   26.81    3.30
  -4   5  -2   33.13    2.70
  -5  -5  -2    3.92    0.47
   5  -5   2    4.23    0.40
   5  -5   2    4.48    0.38
   5  -5   2    4.30    0.43
  -5  -5  -2    4.51    0.42
   5  -5   2    3.67    0.40
  -5  -5  -2    3.64    0.44
  -5  -5  -2    4.11    0.42
  -5  -5  -2    4.09    0.41
   5   5   2    4.08    0.45
  -5   5  -2    4.58    0.39
   5   5   2    3.77    0.46
  -5   5  -2    4.37    0.43
  -6  -5  -2   -0.42    0.17
  -6  -5  -2    0.13    0.15
  -6  -5  -2    0.09    0.16
   6  -5   2    0.20    0.05
  -6  -5  -2    0.16    0.15
   6  -5   2    0.05    0.06
   6  -5   2   -0.18    0.15
   6  -5   2   -0.03    0.15
   6  -5   2    0.00    0.22
  -6   5  -2   -0.01    0.11
   6   5   2   -0.28    0.31
   6   5   2    0.13    0.19
  -6   5  -2   -0.06    0.18
  -7  -5  -2    1.17    0.20
   7  -5   2    1.06    0.22
  -7  -5  -2    1.11    0.27
   7  -5   2    1.37    0.29
  -7   5  -2    1.23    0.26
   7   5   2    1.02    0.26
   7   5   2    0.50    0.36
  -7   5  -2    0.84    0.18
   8  -5   2    0.61    0.26
  -8  -5  -2    0.12    0.22
  -8  -5  -2    0.01    0.17
   8  -5   2    0.31    0.23
   8   5   2    0.03    0.41
  -8   5  -2    0.37    0.28
  -8   5  -2    0.03    0.17
   8   5   2    0.16    0.27
   9  -5   2    3.24    0.51
   9  -5   2    3.96    0.46
  -9  -5  -2    2.80    0.45
  -9   5  -2    2.71    0.37
   9   5   2    2.33    0.52
  -9   5  -2    3.01    0.47
   9   5   2    3.42    0.45
 -10  -5  -2    0.11    0.41
  10  -5   2    0.01    0.36
  10  -5   2    0.01    0.38
  10   5   2   -0.39    0.58
 -10   5  -2   -0.18    0.40
  10  -6  -2    0.45    0.34
 -10  -6   2   -0.02    0.31
 -10   6   2   -0.08    0.39
  10   6  -2   -0.11    0.53
  -9  -6   2    5.20    0.74
  -9  -6   2    5.94    0.65
   9  -6  -2    5.76    0.63
  -9   6   2    5.65    0.72
   9   6  -2    6.76    0.74
  -8  -6   2    0.23    0.26
  -8  -6   2   -0.07    0.20
   8  -6  -2   -0.15    0.28
   8   6  -2    0.05    0.36
  -8   6   2    0.18    0.15
  -8   6   2    0.17    0.23
   8   6  -2   -0.09    0.21
  -7  -6   2    3.39    0.36
  -7  -6   2    3.04    0.35
   7  -6  -2    3.53    0.38
  -7   6   2    3.13    0.39
  -7   6   2    3.06    0.34
   7   6  -2    2.97    0.46
   7   6  -2    3.26    0.37
   6  -6  -2    0.47    0.21
   6  -6  -2    0.26    0.12
  -6  -6   2    0.45    0.15
  -6  -6   2    0.27    0.16
  -6  -6   2    0.15    0.18
  -6   6   2    0.28    0.11
  -6   6   2    0.45    0.19
   6   6  -2   -0.14    0.29
   6   6  -2    0.25    0.16
  -5  -6   2    5.60    0.52
   5  -6  -2    6.28    1.06
   5  -6  -2    4.72    0.49
   5  -6  -2    6.14    0.50
  -5  -6   2    5.67    0.51
  -5  -6   2    4.50    0.51
   5   6  -2    5.44    0.58
   5   6  -2    5.98    0.53
  -5   6   2    6.85    0.69
  -5   6   2    5.44    0.50
   5   6  -2    5.04    0.57
   4  -6  -2   11.17    0.95
  -4  -6   2   10.54    1.00
   4  -6  -2    9.69    0.91
  -4  -6   2   10.81    0.93
  -4  -6   2   10.61    0.98
   4  -6  -2   10.71    0.97
   4   6  -2    9.67    1.01
  -4   6   2   10.27    0.92
   4   6  -2    9.94    1.10
   4   6  -2    9.28    0.98
  -4   6   2   10.31    0.94
  -4   6   2   12.43    1.21
   4   6  -2   11.46    1.04
   4   6  -2   11.08    1.10
  -3  -6   2   23.34    2.22
  -3  -6   2   25.94    2.31
   3  -6  -2   26.56    2.41
  -3  -6   2   26.40    2.32
  -3  -6   2   26.57    2.54
   3   6  -2   24.03    2.40
   3   6  -2   27.31    2.33
   3   6  -2   25.17    2.61
  -3   6   2   26.37    2.33
  -3   6   2   26.18    2.54
   3   6  -2   24.68    2.82
  -3   6   2   24.97    2.27
  -3   6   2   24.31    2.30
   2  -6  -2   -0.01    0.13
   2  -6  -2    0.04    0.10
  -2  -6   2   -0.03    0.09
  -2  -6   2    0.07    0.14
  -2  -6   2    0.04    0.10
   2   6  -2    0.06    0.13
  -2   6   2   -0.04    0.09
   2   6  -2    0.00    0.08
   2   6  -2   -0.01    0.10
  -2   6   2   -0.04    0.04
  -2   6   2    0.00    0.11
  -2   6   2    0.01    0.03
  -2   6   2   -0.04    0.13
   2   6  -2   -0.11    0.15
  -1  -6   2   52.28    5.11
   1  -6  -2   50.04    5.64
  -1  -6   2   55.68    5.08
  -1  -6   2   59.78    5.48
   1  -6  -2   58.11    5.46
   1   6  -2   61.11    5.61
   1   6  -2   61.03    5.62
  -1   6   2   54.91    5.15
  -1   6   2   62.77    5.19
  -1   6   2   55.31    5.03
   1   6  -2   54.36    5.36
   1   6  -2   59.08    5.38
  -1   6   2   56.48    5.56
   0  -6   2   12.75    1.18
   0  -6   2   12.56    1.15
   0  -6  -2   13.58    1.27
   0  -6   2   14.66    1.33
   0   6  -2   13.39    1.40
   0   6  -2   13.30    1.38
   0   6  -2   14.72    1.24
   0   6   2   13.96    1.36
   0   6  -2   15.73    1.28
   0   6   2   12.14    1.18
   0   6   2   12.42    1.36
   0   6   2   10.96    1.19
   1  -6   2   31.09    2.60
   1  -6   2   29.12    2.59
  -1  -6  -2   29.96    2.58
   1  -6   2   29.03    2.63
  -1  -6  -2   23.52    2.65
  -1  -6  -2   26.20    2.55
   1   6   2   28.06    2.77
  -1   6  -2   31.66    2.78
  -1   6  -2   29.08    2.58
  -1   6  -2   32.98    2.92
   1   6   2   27.28    2.64
   1   6   2   28.09    2.85
  -1   6  -2   33.47    2.61
   2  -6   2    4.09    0.34
   2  -6   2    3.77    0.37
   2  -6   2    4.30    0.42
  -2  -6  -2    3.53    0.36
  -2  -6  -2    2.94    0.37
  -2   6  -2    4.14    0.38
   2   6   2    3.31    0.39
   2   6   2    3.54    0.38
  -2   6  -2    4.85    0.40
  -2   6  -2    4.53    0.39
   2   6   2    4.15    0.43
   2   6   2    3.62    0.37
   3  -6   2   14.05    1.22
  -3  -6  -2   13.94    1.18
   3  -6   2   12.72    1.17
   3  -6   2   14.09    1.29
   3  -6   2   13.52    1.22
  -3  -6  -2   12.03    1.20
  -3  -6  -2   12.04    1.19
  -3   6  -2   14.80    1.21
   3   6   2   12.10    1.27
   3   6   2   13.53    1.30
  -3   6  -2   13.51    1.22
   3   6   2   11.16    1.28
  -4  -6  -2    2.27    0.28
   4  -6   2    2.57    0.24
   4  -6   2    2.43    0.27
   4  -6   2    2.57    0.29
  -4  -6  -2    2.48    0.28
  -4  -6  -2    2.10    0.28
  -4  -6  -2    2.48    0.24
   4  -6   2    2.88    0.24
   4   6   2    1.99    0.28
   4   6   2    1.99    0.35
  -4   6  -2    2.74    0.28
  -5  -6  -2    0.32    0.18
  -5  -6  -2    0.16    0.16
  -5  -6  -2    0.26    0.09
   5  -6   2    0.31    0.13
   5  -6   2    0.26    0.10
   5  -6   2    0.32    0.19
  -5  -6  -2    0.38    0.20
   5  -6   2    0.44    0.09
   5   6   2    0.68    0.19
  -5   6  -2    0.71    0.20
   5   6   2    0.09    0.12
   5   6   2    0.26    0.29
   6  -6   2    0.52    0.15
   6  -6   2    0.26    0.24
   6  -6   2    0.68    0.19
  -6  -6  -2    0.47    0.22
   6  -6   2    0.80    0.10
  -6  -6  -2    0.76    0.19
  -6  -6  -2    0.51    0.15
  -6   6  -2    0.66    0.23
   6   6   2    0.95    0.29
   6   6   2    0.80    0.23
  -6   6  -2    0.41    0.13
  -7  -6  -2   15.99    1.48
  -7  -6  -2   16.91    1.52
   7  -6   2   17.53    1.58
   7  -6   2   16.89    1.58
  -7   6  -2   15.90    1.72
   7   6   2   13.40    1.63
   7   6   2   15.40    1.79
  -7   6  -2   15.54    1.64
  -8  -6  -2    0.45    0.24
  -8  -6  -2    0.69    0.25
   8  -6   2    0.16    0.27
   8  -6   2    1.16    0.26
   8   6   2    1.01    0.30
   8   6   2    0.04    0.43
  -8   6  -2    0.69    0.31
  -8   6  -2    0.33    0.19
  -9  -6  -2    4.04    0.57
  -9  -6  -2    5.46    0.60
   9  -6   2    5.08    0.53
   9  -6   2    5.39    0.59
   9   6   2    5.09    0.73
   9   6   2    4.90    0.58
  -9   6  -2    4.69    0.64
  10  -6   2    0.08    0.36
 -10  -6  -2   -0.30    0.35
  10  -6   2   -0.01    0.40
  10   6   2    0.02    0.50
 -10   6  -2    0.27    0.37
 -10  -7   2    0.23    0.42
  10  -7  -2   -0.05    0.35
 -10   7   2   -0.25    0.41
  10   7  -2   -0.02    0.56
   9  -7  -2    0.10    0.30
  -9  -7   2    0.29    0.33
  -9  -7   2   -0.06    0.21
   9   7  -2    0.10    0.48
  -9   7   2    0.33    0.34
  -8  -7   2    0.08    0.23
   8  -7  -2    0.13    0.24
  -8  -7   2   -0.01    0.27
  -8   7   2   -0.05    0.27
   8   7  -2   -0.30    0.40
   7  -7  -2    0.20    0.20
  -7  -7   2    0.28    0.20
  -7  -7   2    0.56    0.20
   7   7  -2    0.64    0.21
   7   7  -2    0.58    0.33
  -7   7   2    0.21    0.27
  -7   7   2    0.26    0.13
   6  -7  -2   12.57    1.12
  -6  -7   2   12.83    1.11
   6  -7  -2   10.98    1.09
  -6  -7   2   12.27    1.14
  -6  -7   2   10.59    1.14
  -6   7   2   11.83    1.22
   6   7  -2   12.52    1.28
   6   7  -2   12.59    1.12
  -6   7   2   13.00    1.48
   5  -7  -2    0.35    0.19
   5  -7  -2    0.18    0.09
  -5  -7   2    0.27    0.11
   5  -7  -2    0.07    0.09
  -5  -7   2    0.06    0.16
  -5  -7   2    0.07    0.16
  -5   7   2    0.06    0.08
   5   7  -2    0.16    0.22
  -5   7   2    0.13    0.16
   5   7  -2    0.01    0.22
   5   7  -2    0.13    0.26
  -4  -7   2   27.58    2.52
   4  -7  -2   29.27    2.58
  -4  -7   2   27.32    2.49
  -4  -7   2   26.77    2.62
   4  -7  -2   28.94    2.62
  -4   7   2   28.82    2.85
   4   7  -2   27.18    2.62
  -4   7   2   27.00    2.61
   4   7  -2   29.62    2.92
  -4   7   2   28.54    2.50
   4   7  -2   26.72    2.66
   3  -7  -2   -0.02    0.11
  -3  -7   2    0.04    0.10
  -3  -7   2    0.15    0.13
  -3   7   2    0.08    0.04
   3   7  -2    0.09    0.11
   3   7  -2    0.06    0.14
  -3   7   2    0.05    0.10
   3   7  -2   -0.28    0.22
  -3   7   2    0.22    0.17
   2  -7  -2   14.21    1.31
  -2  -7   2   13.44    1.28
  -2  -7   2   13.81    1.27
   2   7  -2   12.95    1.50
  -2   7   2   15.21    1.39
   2   7  -2   13.95    1.33
  -2   7   2   14.52    1.27
  -2   7   2   13.61    1.26
   2   7  -2   15.58    1.29
  -2   7   2   14.21    1.39
  -1  -7   2    0.42    0.09
  -1  -7   2    0.06    0.17
  -1  -7   2    0.14    0.14
   1  -7  -2    0.57    0.19
   1  -7  -2    0.57    0.15
   1   7  -2    0.40    0.11
  -1   7   2    0.29    0.11
   1   7  -2    0.33    0.14
  -1   7   2    0.39    0.17
   1   7  -2    0.29    0.10
   1   7  -2    0.46    0.18
  -1   7   2    0.28    0.49
  -1   7   2    0.32    0.06
   1   7  -2    0.45    0.12
   0  -7   2    0.24    0.06
   0  -7   2    0.22    0.13
   0  -7  -2    0.06    0.12
   0  -7  -2    0.24    0.13
   0  -7   2    0.11    0.15
   0   7  -2    0.05    0.07
   0   7   2    0.07    0.13
   0   7   2    0.21    0.12
   0   7  -2    0.48    0.12
   0   7   2    0.01    0.05
   0   7  -2    0.17    0.13
   0   7  -2    0.08    0.14
   0   7   2    0.12    0.07
  -1  -7  -2    8.37    0.87
  -1  -7  -2    8.17    0.81
   1  -7   2    9.94    0.80
  -1  -7  -2    8.79    0.83
  -1   7  -2    9.56    0.85
   1   7   2    8.44    0.86
  -1   7  -2   10.17    0.89
   1   7   2    7.93    0.82
  -1   7  -2   11.08    0.92
   2  -7   2   19.35    1.67
  -2  -7  -2   17.55    1.66
  -2  -7  -2   18.63    1.66
  -2  -7  -2   15.17    1.70
   2   7   2   17.36    1.73
   2   7   2   19.63    1.81
  -2   7  -2   21.30    1.78
   2   7   2   17.72    1.74
  -2   7  -2   21.20    1.85
  -3  -7  -2   -0.03    0.13
  -3  -7  -2   -0.03    0.14
   3  -7   2    0.03    0.13
  -3  -7  -2    0.06    0.14
   3  -7   2   -0.10    0.11
   3   7   2    0.13    0.15
  -3   7  -2   -0.08    0.16
   3   7   2    0.04    0.19
   3   7   2   -0.07    0.15
  -4  -7  -2   40.16    3.80
   4  -7   2   39.51    3.84
  -4  -7  -2   45.30    3.91
   4  -7   2   45.68    4.23
   4  -7   2   48.19    4.26
  -4  -7  -2   39.61    4.10
  -4  -7  -2   43.71    4.04
   4   7   2   42.01    4.70
  -4   7  -2   49.15    4.26
   4   7   2   46.59    4.26
   5  -7   2    0.95    0.14
   5  -7   2    1.44    0.20
  -5  -7  -2    1.10    0.22
  -5  -7  -2    0.98    0.23
   5  -7   2    1.22    0.16
   5  -7   2    1.10    0.24
  -5  -7  -2    1.11    0.14
   5   7   2    0.81    0.22
   5   7   2    0.91    0.25
  -5   7  -2    0.85    0.23
   5   7   2    0.25    0.33
  -6  -7  -2    0.06    0.22
   6  -7   2    0.09    0.10
   6  -7   2    0.11    0.16
  -6  -7  -2   -0.14    0.20
   6  -7   2    0.07    0.20
  -6   7  -2    0.11    0.22
   6   7   2   -0.02    0.23
   6   7   2    0.76    0.31
  -7  -7  -2    0.34    0.23
   7  -7   2    0.53    0.20
   7  -7   2    0.41    0.25
  -7  -7  -2    0.52    0.23
   7   7   2    0.33    0.25
  -7   7  -2    0.50    0.26
   7   7   2    0.38    0.40
  -8  -7  -2    0.02    0.25
  -8  -7  -2    0.13    0.23
   8  -7   2    0.08    0.30
   8  -7   2    0.15    0.23
   8   7   2    0.06    0.38
  -8   7  -2    0.10    0.23
   8   7   2   -0.19    0.49
   9  -7   2    0.05    0.21
  -9  -7  -2    0.41    0.36
   9  -7   2    0.80    0.68
  -9  -7  -2    0.59    0.29
   9   7   2   -0.67    0.55
  -9   7  -2    0.19    0.34
  10  -8  -2    0.53    0.36
 -10  -8   2    0.36    0.44
 -10   8   2    0.64    0.52
   9  -8  -2   -0.53    0.35
  -9  -8   2    0.37    0.33
  -9  -8   2   -0.07    0.35
   9   8  -2   -0.29    0.51
  -9   8   2    0.83    0.36
   8  -8  -2    0.09    0.30
  -8  -8   2   -0.13    0.25
  -8  -8   2    0.21    0.24
  -8   8   2    0.51    0.29
   8   8  -2    1.25    0.47
  -7  -8   2    0.25    0.20
   7  -8  -2    0.23    0.27
  -7  -8   2    0.16    0.27
  -7   8   2    0.30    0.23
   7   8  -2    0.41    0.20
   7   8  -2    0.11    0.36
   6  -8  -2    0.07    0.09
  -6  -8   2    0.08    0.19
  -6  -8   2   -0.05    0.17
   6  -8  -2    0.00    0.22
   6   8  -2   -0.44    0.34
  -6   8   2    0.24    0.20
   6   8  -2   -0.33    0.31
   6   8  -2    0.14    0.21
   5  -8  -2   -0.02    0.20
  -5  -8   2   -0.09    0.22
   5  -8  -2    0.08    0.11
  -5  -8   2    0.09    0.17
  -5  -8   2    0.12    0.12
   5   8  -2   -0.08    0.30
  -5   8   2   -0.01    0.24
   5   8  -2    0.28    0.25
   5   8  -2    0.18    0.19
  -5   8   2    0.05    0.07
  -4  -8   2    1.29    0.17
  -4  -8   2    1.10    0.19
   4  -8  -2    1.20    0.17
   4   8  -2    0.88    0.20
  -4   8   2    0.61    0.23
   4   8  -2    0.69    0.14
  -4   8   2    0.47    0.14
   4   8  -2    0.60    0.27
  -4   8   2    0.58    0.06
   3  -8  -2    0.09    0.15
  -3  -8   2    0.14    0.66
  -3  -8   2    0.17    0.12
   3   8  -2    0.27    0.12
   3   8  -2    0.07    0.20
   3   8  -2    0.10    0.17
  -3   8   2    0.37    0.16
  -3   8   2    0.16    0.15
  -2  -8   2    0.91    0.19
   2  -8  -2    0.87    0.17
  -2  -8   2    0.67    0.13
  -2   8   2    0.49    0.15
   2   8  -2    0.66    0.14
  -2   8   2    0.94    0.21
   2   8  -2    0.51    0.14
   2   8  -2    0.42    0.18
  -1  -8   2   20.66    1.98
  -1  -8   2   21.10    1.93
   1  -8  -2   21.74    2.01
  -1   8   2   24.78    2.08
   1   8  -2   21.86    2.10
   1   8  -2   21.03    2.29
  -1   8   2   21.00    2.26
  -1   8   2   20.39    2.17
   1   8  -2   23.68    2.05
   0  -8  -2   14.14    1.39
   0  -8   2   14.28    1.29
   0  -8   2   14.07    1.27
   0   8  -2   15.29    1.52
   0   8   2   14.06    1.33
   0   8  -2   14.50    1.45
   0   8   2   13.04    1.33
  -1  -8  -2    2.29    0.25
   1  -8   2    2.35    0.24
  -1  -8  -2    1.98    0.20
   1   8   2    1.70    0.21
  -1   8  -2    1.73    0.23
   1   8   2    1.67    0.27
  -1   8  -2    2.07    0.28
  -2  -8  -2    3.62    0.37
   2  -8   2    3.76    0.35
  -2  -8  -2    3.61    0.34
   2   8   2    2.98    0.39
   2   8   2    2.68    0.34
  -2   8  -2    3.86    0.39
   2   8   2    4.13    0.40
  -3  -8  -2    2.29    0.29
  -3  -8  -2    2.08    0.26
   3  -8   2    2.78    0.27
   3   8   2    2.24    0.33
   3   8   2    1.98    0.30
  -3   8  -2    2.72    0.31
  -4  -8  -2   20.95    2.17
  -4  -8  -2   22.48    2.03
   4  -8   2   23.64    2.09
   4  -8   2   21.52    2.04
  -4   8  -2   26.36    2.20
   4   8   2   23.08    2.24
   4   8   2   18.86    2.28
  -5  -8  -2    0.12    0.06
   5  -8   2    0.25    0.22
  -5  -8  -2    0.19    0.20
   5  -8   2    0.08    0.13
  -5  -8  -2    0.23    0.20
   5  -8   2    0.03    0.10
  -5   8  -2    0.22    0.23
   5   8   2   -0.03    0.21
   5   8   2    0.43    0.30
   5   8   2   -0.09    0.26
   6  -8   2    0.77    0.29
  -6  -8  -2    0.92    0.22
  -6  -8  -2    0.91    0.30
  -6   8  -2    1.25    0.24
   6   8   2    0.34    0.28
   6   8   2    0.80    0.35
  -7  -8  -2    0.21    0.28
  -7  -8  -2    0.00    0.25
   7  -8   2    0.09    0.25
   7   8   2   -0.14    0.35
  -7   8  -2   -0.01    0.26
   7   8   2    0.10    0.34
  -8  -8  -2    0.22    0.32
  -8  -8  -2   -0.04    0.27
   8  -8   2   -0.47    0.36
   8   8   2   -0.32    0.36
  -8   8  -2   -0.20    0.30
   8   8   2   -0.21    0.51
  -9  -8  -2    0.74    0.41
  -9  -8  -2    1.10    0.36
   9  -8   2    0.51    0.36
  -9   8  -2    0.33    0.43
   9   8   2    1.22    0.63
  -9  -9   2    0.21    0.39
   9  -9  -2    0.03    0.38
  -9  -9   2    0.34    0.32
   9   9  -2   -0.08    0.54
  -9   9   2    0.36    0.38
  -8  -9   2   -0.01    0.26
   8  -9  -2    0.19    0.27
  -8  -9   2    0.17    0.28
  -8   9   2    0.11    0.32
   8   9  -2    0.05    0.48
  -7  -9   2    0.43    0.27
   7  -9  -2    0.60    0.26
  -7  -9   2   -0.04    0.26
   7   9  -2    0.64    0.23
   7   9  -2    0.33    0.41
  -7   9   2    0.27    0.27
  -6  -9   2    0.17    0.27
   6  -9  -2    0.15    0.22
  -6  -9   2    0.55    0.23
   6   9  -2    0.17    0.23
  -6   9   2    0.10    0.28
   6   9  -2    0.35    0.38
   6   9  -2    0.06    0.29
  -5  -9   2    0.45    0.22
   5  -9  -2    0.63    0.16
  -5  -9   2    0.70    0.20
   5   9  -2    0.58    0.30
   5   9  -2    0.52    0.29
  -5   9   2    0.80    0.27
   5   9  -2    0.82    0.35
  -4  -9   2    2.81    2.45
  -4  -9   2    1.73    0.25
   4  -9  -2    1.91    0.22
   4   9  -2    1.00    0.19
  -4   9   2    1.10    0.24
   4   9  -2    1.52    0.26
  -4   9   2    0.93    0.20
   4   9  -2    1.37    0.34
   3  -9  -2    0.78    0.20
  -3  -9   2    0.64    0.22
  -3  -9   2    0.93    0.15
  -3   9   2    0.55    0.17
   3   9  -2    0.93    0.20
   3   9  -2    0.55    0.15
   3   9  -2    1.11    0.31
  -3   9   2    0.80    0.21
  -2  -9   2    8.95    0.83
   2  -9  -2    9.34    0.82
  -2  -9   2    8.95    0.84
   2   9  -2    8.19    0.93
   2   9  -2    9.14    0.82
   2   9  -2    8.38    0.91
  -2   9   2   10.06    0.93
   1  -9  -2   -0.03    0.16
  -1  -9   2    0.22    0.19
  -1  -9   2    0.03    0.10
  -1   9   2   -0.01    0.06
   1   9  -2    0.09    0.12
   1   9  -2    0.05    0.23
  -1   9   2    0.10    0.17
   1   9  -2   -0.28    0.15
   0  -9   2    2.16    0.26
   0  -9  -2    2.43    0.30
   0  -9   2    2.52    0.21
   0   9   2    2.14    0.22
   0   9   2    1.99    0.32
   0   9   2    1.89    0.24
   0   9  -2    2.91    1.37
  -1  -9  -2    0.45    0.18
   1  -9   2    0.50    0.15
  -1   9  -2    0.43    0.24
   1   9   2    0.29    0.20
   1   9   2    0.50    0.14
   2  -9   2   26.55    2.32
  -2  -9  -2   24.16    2.31
  -2  -9  -2   25.56    2.39
   2   9   2   28.07    2.72
   2   9   2   22.53    2.33
  -2   9  -2   27.62    2.55
   2   9   2   26.87    2.89
   3  -9   2    2.48    0.27
  -3  -9  -2    1.94    0.29
  -3  -9  -2    2.22    0.27
   3   9   2    1.61    0.31
   3   9   2    2.18    0.34
  -3   9  -2    2.45    0.31
   4  -9   2    0.00    0.14
  -4  -9  -2    0.33    0.18
  -4  -9  -2    0.00    0.21
   4   9   2    0.04    0.25
   4   9   2    0.39    0.28
  -4   9  -2    0.07    0.20
   5  -9   2   -0.01    0.22
   5  -9   2    0.16    0.14
  -5  -9  -2    0.33    0.22
  -5  -9  -2   -0.21    0.23
   5   9   2   -0.02    0.30
   5   9   2    0.49    0.30
  -5   9  -2    0.34    0.26
   5   9   2   -0.02    0.38
  -6  -9  -2    0.16    0.25
  -6  -9  -2   -0.22    0.25
   6  -9   2    0.06    0.29
  -6   9  -2    0.12    0.28
   6   9   2    0.04    0.36
   6   9   2    0.46    0.37
   6   9   2   -0.09    0.27
  -7  -9  -2    0.68    0.30
  -7  -9  -2    0.38    0.25
   7  -9   2    0.40    0.29
   7   9   2    0.17    0.41
  -7   9  -2    0.15    0.26
   7   9   2    0.82    0.39
  -8  -9  -2    0.45    0.33
   8  -9   2    0.24    0.40
  -8  -9  -2    0.33    0.35
   8   9   2    0.54    0.41
   8   9   2    0.14    0.55
  -8   9  -2    0.76    0.30
   9  -9   2    0.51    0.39
  -9  -9  -2    1.13    0.37
  -9  -9  -2    0.23    0.88
  -9   9  -2    1.03    0.47
   9 -10  -2    0.87    0.46
  -9 -10   2    0.47    0.34
  -9 -10   2    0.27    0.36
  -9  10   2    0.55    0.51
  -8 -10   2    0.48    0.33
  -8 -10   2    0.96    0.35
   8 -10  -2    0.34    0.31
  -8  10   2    0.48    0.32
   8  10  -2    0.11    0.52
  -7 -10   2    1.56    0.34
  -7 -10   2    1.67    0.34
   7  10  -2    1.03    0.49
  -7  10   2    1.36    0.33
  -6 -10   2    1.85    0.30
  -6 -10   2    1.92    0.37
   6  10  -2    1.88    0.45
   6  10  -2    1.22    0.32
  -6  10   2    1.66    0.35
   6  10  -2    1.30    0.39
  -5 -10   2    0.20    0.30
   5 -10  -2   -0.02    0.17
  -5 -10   2    0.04    0.20
  -5  10   2    0.02    0.27
   5  10  -2   -0.18    0.30
   5  10  -2    0.39    0.30
   5  10  -2   -0.23    0.27
  -4 -10   2    1.01    0.21
  -4 -10   2    0.98    0.26
   4 -10  -2    1.73    0.24
   4  10  -2    0.92    0.37
  -4  10   2    1.21    0.27
   4  10  -2    1.55    0.30
  -3 -10   2   16.26    1.47
  -3 -10   2   14.75    1.46
   3 -10  -2   16.77    1.49
   3  10  -2   17.35    1.49
  -3  10   2   17.31    1.58
   3  10  -2   17.46    1.77
  -2 -10   2    1.07    0.26
  -2 -10   2    1.34    0.18
   2 -10  -2    1.38    0.26
   2  10  -2    1.59    0.34
   2  10  -2    1.00    0.19
  -2  10   2    1.31    0.30
   2  10  -2    0.46    0.20
  -1 -10   2   22.39    1.99
   1 -10  -2   21.79    1.98
  -1 -10   2   20.84    1.89
   1  10  -2   22.35    2.13
  -1  10   2   21.86    2.04
   1  10  -2   18.72    2.00
   1  10  -2   20.61    2.14
   0 -10   2    0.59    0.19
   0 -10  -2    0.35    0.20
   0 -10   2    0.63    0.09
   0  10   2    0.20    0.12
   0  10  -2    1.00    0.30
   0  10   2    0.40    0.16
   0  10   2    0.50    0.26
   1 -10   2    9.44    0.85
  -1 -10  -2    9.19    0.87
  -1  10  -2    9.50    0.91
   1  10   2    8.71    0.91
  -2 -10  -2    1.55    0.27
  -2 -10  -2    1.76    0.22
   2  10   2    1.14    0.24
  -2  10  -2    2.12    0.33
   2  10   2    1.14    0.35
   2  10   2    2.19    0.35
   3 -10   2    2.24    0.28
  -3 -10  -2    2.34    0.29
  -3 -10  -2    2.12    0.33
  -3  10  -2    2.75    0.37
   3  10   2    2.07    0.39
   3  10   2    2.17    0.40
   4 -10   2   -0.02    0.18
  -4 -10  -2   -0.23    0.19
  -4 -10  -2    0.08    0.23
   4  10   2    0.20    0.31
   4  10   2   -0.14    0.30
  -4  10  -2   -0.01    0.23
  -5 -10  -2    0.55    0.24
  -5 -10  -2    0.98    0.28
   5 -10   2    0.80    0.19
   5  10   2    0.19    0.29
  -5  10  -2    0.71    0.26
   5  10   2    0.41    0.34
   6 -10   2   -0.01    0.21
  -6 -10  -2    0.13    0.29
  -6 -10  -2    0.46    0.22
   6  10   2    0.29    0.36
   6  10   2    0.36    0.47
  -6  10  -2    0.27    0.30
   6  10   2    0.43    0.35
   7 -10   2    7.51    0.72
  -7 -10  -2    6.63    0.70
  -7 -10  -2    6.37    0.67
   7  10   2    6.02    0.71
  -7  10  -2    5.50    0.90
   7  10   2    5.34    0.82
   8 -10   2    0.50    0.44
  -8 -10  -2   -0.12    0.37
  -8 -10  -2    0.65    0.38
  -8  10  -2   -0.13    0.46
   8  10   2   -0.25    0.52
  -8 -11   2   -0.58    0.36
  -8 -11   2    0.16    0.43
  -8  11   2    0.29    0.45
   8  11  -2    1.05    0.48
  -7 -11   2    0.13    0.33
  -7 -11   2   -0.26    0.30
  -7  11   2   -0.22    0.36
   7  11  -2    0.38    0.42
   7  11  -2    0.73    0.50
  -6 -11   2    0.56    0.31
  -6 -11   2    0.70    0.28
   6  11  -2    0.45    0.33
   6  11  -2    0.30    0.38
   6  11  -2    0.60    0.45
  -6  11   2    0.43    0.29
  -5 -11   2    0.61    0.28
  -5 -11   2    0.34    0.24
   5 -11  -2    0.64    0.22
   5  11  -2    1.33    0.34
   5  11  -2    0.16    0.36
  -5  11   2    0.73    0.33
  -4 -11   2   12.37    1.18
   4 -11  -2   12.97    1.23
  -4 -11   2   12.67    1.16
   4  11  -2   12.29    1.28
   4  11  -2   13.59    1.82
  -4  11   2   13.22    1.31
  -3 -11   2   10.34    0.96
  -3 -11   2    9.89    0.92
   3 -11  -2   10.52    0.94
   3  11  -2    9.72    1.00
  -3  11   2   10.11    1.01
   2 -11  -2   17.44    1.65
  -2 -11   2   16.74    1.65
  -2 -11   2   17.31    1.54
   2  11  -2   16.34    1.69
  -2  11   2   17.50    1.69
  -1 -11   2    1.91    0.30
  -1 -11   2    2.19    0.22
   1 -11  -2    2.09    0.30
   1  11  -2    1.68    0.27
   1  11  -2    2.05    0.39
  -1  11   2    1.60    0.35
   0 -11  -2    0.63    0.23
   0 -11   2    0.71    0.22
   0  11  -2    0.33    0.21
   0  11  -2    0.58    0.27
   0  11   2    0.20    0.25
   1 -11   2    4.41    0.43
  -1 -11  -2    4.38    0.45
  -1  11  -2    3.62    0.50
   1  11   2    3.45    0.48
   2 -11   2    7.45    0.74
  -2 -11  -2    6.97    0.75
  -2  11  -2    8.70    0.87
   2  11   2    8.19    0.81
   2  11   2    7.99    0.84
   3 -11   2    0.85    0.25
  -3 -11  -2    0.69    0.28
  -3 -11  -2    1.00    0.22
   3  11   2    1.28    0.36
  -3  11  -2    0.75    0.32
   3  11   2    1.02    0.63
  -4 -11  -2    8.78    0.94
  -4 -11  -2    8.99    0.88
   4 -11   2   10.87    0.92
   4  11   2    8.62    0.92
  -4  11  -2   10.25    0.99
   4  11   2    8.91    0.94
  -5 -11  -2    0.03    0.25
  -5 -11  -2   -0.11    0.29
   5  11   2    0.14    0.32
  -5  11  -2    0.32    0.28
   5  11   2    1.10    0.64
  -6 -11  -2    3.41    0.42
  -6 -11  -2    2.97    0.45
   6  11   2    2.59    0.60
   6  11   2    2.59    0.46
  -6  11  -2    2.73    0.44
   6  11   2    3.46    0.52
  -7 -11  -2    0.33    0.28
  -7 -11  -2   -0.43    0.36
   7  11   2    0.13    0.40
  -7  11  -2   -0.07    0.41
   7  11   2    0.52    0.61
  -7 -12   2    2.04    0.44
  -7 -12   2    1.61    0.38
   7  12  -2    1.69    0.51
  -7  12   2    1.67    0.42
   7  12  -2    1.96    0.61
  -6 -12   2   -0.07    0.33
  -6 -12   2    0.09    0.27
   6  12  -2    0.42    0.48
  -6  12   2    0.14    0.39
   6  12  -2   -0.02    0.42
   6  12  -2    0.74    0.42
  -5 -12   2    1.58    0.29
  -5 -12   2    1.13    0.61
  -5  12   2    1.53    0.36
   5  12  -2    1.46    0.40
   5  12  -2    1.51    0.44
   4 -12  -2    1.24    0.30
  -4 -12   2    1.17    0.26
  -4 -12   2    0.70    0.36
   4  12  -2    0.87    0.38
   4  12  -2    0.72    0.47
  -4  12   2    1.22    0.32
  -3 -12   2    0.93    0.37
   3 -12  -2    1.54    0.27
  -3 -12   2    1.37    0.23
  -3  12   2    0.92    0.35
   3  12  -2    1.33    0.41
  -2 -12   2   -0.15    0.25
  -2 -12   2    0.18    0.15
   2 -12  -2    0.13    0.28
  -2  12   2    0.20    0.26
   2  12  -2    0.33    0.38
   1 -12  -2    0.09    0.24
  -1 -12   2   -0.22    0.24
  -1  12   2   -0.06    0.26
   1  12  -2    0.21    0.37
   0 -12   2    0.16    0.28
   0 -12  -2    0.19    0.25
   0  12  -2    0.15    0.36
   0  12   2    0.33    0.30
   0  12  -2   -0.04    0.20
  -1 -12  -2   10.17    0.97
   1 -12   2    9.41    0.96
   1  12   2   11.38    1.07
  -1  12  -2   10.90    1.07
   2 -12   2    0.51    0.28
  -2 -12  -2    0.75    0.29
   2  12   2    0.16    0.41
  -2  12  -2    0.47    0.28
   2  12   2    0.18    0.40
   3 -12   2    0.52    0.28
  -3 -12  -2    0.68    0.21
  -3 -12  -2    0.98    0.30
   3  12   2    0.13    0.40
  -3  12  -2    0.82    0.28
   3  12   2    0.58    0.43
  -4 -12  -2    0.13    0.31
  -4 -12  -2    0.06    0.25
   4 -12   2    0.31    0.21
   4  12   2    0.04    0.42
  -4  12  -2    0.60    0.35
   4  12   2    0.46    0.43
  -5 -12  -2    0.56    0.51
  -5 -12  -2    0.34    0.27
  -5  12  -2    0.31    0.29
   5  12   2    0.37    0.45
   5  12   2    0.40    0.44
  -6 -12  -2    1.04    0.34
  -6 -12  -2    1.05    0.39
   6  12   2    0.96    0.48
   6  12   2    1.18    0.62
   6  12   2    0.37    0.52
  -6  12  -2    1.05    0.35
  -7 -12  -2    1.12    0.35
  -7 -12  -2    2.14    0.42
  -7  12  -2    1.28    0.51
  -6 -13   2    1.30    0.41
  -6 -13   2    0.76    0.32
   6  13  -2    1.04    0.59
  -6  13   2    0.95    0.40
   6  13  -2    0.84    0.51
  -5 -13   2    0.20    0.29
  -5 -13   2    0.20    0.35
   5  13  -2   -0.15    0.44
   5  13  -2    0.01    0.42
  -5  13   2    0.23    0.41
   4 -13  -2    0.32    0.32
  -4 -13   2    0.04    0.32
  -4  13   2   -0.12    0.29
   4  13  -2    0.69    0.40
   4  13  -2    0.43    0.51
  -3 -13   2    0.03    0.29
   3 -13  -2    0.13    0.27
   3  13  -2   -0.13    0.40
  -3  13   2    0.34    0.37
  -2 -13   2    1.60    0.35
   2 -13  -2    2.40    0.35
  -2  13   2    1.57    0.41
   2  13  -2    1.78    0.48
   1 -13  -2    0.63    0.34
  -1 -13   2    0.78    0.36
  -1  13   2    0.90    0.40
   1  13  -2    0.53    0.43
   0 -13  -2    0.95    0.31
   0 -13   2    1.12    0.30
   0  13   2    0.42    0.35
   0  13  -2    0.80    0.42
   1 -13   2   -0.45    0.32
  -1 -13  -2    0.32    0.30
  -1  13  -2   -0.24    0.41
   1  13   2   -0.50    0.40
  -2 -13  -2   -0.10    0.30
   2 -13   2    0.35    0.32
   2  13   2    0.22    0.46
  -2  13  -2    0.53    0.38
   2  13   2    0.29    0.44
   3 -13   2    1.36    0.28
  -3 -13  -2    0.65    0.34
   3  13   2    0.85    0.43
  -3  13  -2    1.10    0.41
   3  13   2    1.27    0.47
  -4 -13  -2   -0.05    0.34
   4 -13   2    0.72    0.34
  -4 -13  -2    0.30    0.29
  -4  13  -2    0.25    0.38
   4  13   2   -0.54    0.49
   4  13   2    0.27    0.50
  -5 -13  -2    0.68    0.35
  -5 -13  -2   -0.04    0.37
   5  13   2    0.15    0.35
   5  13   2    0.09    0.41
  -5  13  -2   -0.19    0.40
  -6 -13  -2   -0.14    0.44
  -6 -13  -2   -0.16    0.33
   6  13   2    0.05    0.48
  -6  13  -2    0.21    0.44
   6  13   2    0.70    0.69
  -5 -14   2   -0.33    0.67
  -5  14   2   -0.02    0.44
   5  14  -2   -0.65    0.49
   5  14  -2    0.26    0.51
  -4 -14   2    0.34    0.36
  -4  14   2    0.46    0.44
   4  14  -2    0.28    0.48
   4  14  -2   -0.19    0.47
  -3 -14   2    0.40    0.34
   3 -14  -2   -0.47    0.37
  -3  14   2    0.26    0.41
   3  14  -2    0.11    0.45
   3  14  -2   -0.19    0.45
  -2 -14   2   -0.24    0.31
   2 -14  -2   -0.05    0.38
  -2  14   2    0.10    0.42
   2  14  -2    0.33    0.40
  -1 -14   2    3.18    0.43
   1 -14  -2    3.34    0.45
   1  14  -2    2.73    0.53
  -1  14   2    2.16    0.46
   0 -14   2    0.42    0.31
   0 -14  -2    0.57    0.33
   0  14   2    0.54    0.39
   0  14  -2    0.41    0.39
  -1 -14  -2    3.12    0.51
   1 -14   2    5.12    0.50
   1  14   2    3.42    0.54
   1  14   2    3.46    0.63
  -1  14  -2    4.42    0.64
   2 -14   2    0.32    0.29
  -2 -14  -2    0.26    0.35
   2  14   2    0.30    0.41
  -2  14  -2    0.27    0.45
   2  14   2   -0.21    0.36
  -3 -14  -2    1.04    0.39
   3 -14   2    0.99    0.30
   3  14   2    0.73    0.52
  -3  14  -2    0.93    0.37
   3  14   2    0.41    0.47
  -4 -14  -2   -0.01    0.39
  -4  14  -2    0.37    0.37
   4  14   2    0.00    0.57
   4  14   2    0.09    0.54
   3 -15  -2   -0.38    0.35
  -3 -15   2    0.04    0.39
   3  15  -2   -0.06    0.56
   3  15  -2   -0.06    0.51
  -3  15   2   -0.15    0.48
   2 -15  -2    0.95    0.38
  -2 -15   2    1.14    0.38
  -2  15   2    0.96    0.43
   2  15  -2   -0.06    0.57
  -1 -15   2    0.06    0.35
   1 -15  -2   -0.42    0.35
   1  15  -2   -0.13    0.56
  -1  15   2   -0.26    0.53
   0 -15  -2    0.14    0.36
   0 -15   2    0.51    0.35
   0  15   2   -0.62    0.53
   0  15  -2   -0.74    0.51
  -1 -15  -2   -0.03    0.38
   1 -15   2    0.27    0.42
  -1  15  -2    0.28    0.52
   1  15   2   -0.40    0.59
   1  15   2   -0.31    0.56
   2 -15   2    1.51    0.44
  -2 -15  -2    0.52    0.43
  -2  15  -2    1.13    0.56
   2  15   2    1.73    0.48
   2  15   2    0.92    0.58
   3 -15   2    1.54    0.44
  -3 -15  -2    1.41    0.47
  -3  15  -2    1.22    0.51
   3  15   2    0.90    0.67
   3  15   2    2.08    0.65
 -11   0   3    1.69    0.43
  11   0  -3    1.38    0.50
 -11   0   3    1.08    0.40
 -10   0   3    0.23    0.31
  10   0  -3   -0.25    0.31
   9   0  -3    1.09    0.18
  -9   0   3    0.77    0.26
   9   0  -3    0.89    0.28
  -8   0   3   -0.12    0.19
   8   0  -3   -0.08    0.12
   8   0  -3   -0.09    0.20
  -8   0   3   -0.02    0.14
  -7   0   3    0.02    0.07
  -7   0   3    0.00    0.11
   7   0  -3   -0.04    0.09
   7   0  -3    0.10    0.19
  -7   0   3    0.05    0.16
   6   0  -3    0.11    0.07
  -6   0   3    0.01    0.11
  -6   0   3   -0.04    0.06
   6   0  -3    0.05    0.13
  -6   0   3   -0.02    0.09
  -5   0   3    8.62    0.78
  -5   0   3    9.89    0.77
   5   0  -3    8.07    0.85
   5   0  -3    8.45    0.82
  -5   0   3    8.35    0.75
   5   0  -3    8.09    0.76
  -5   0   3    9.70    0.80
  -5   0   3    7.70    0.80
  -4   0   3   -0.01    0.05
  -4   0   3   -0.12    0.08
   4   0  -3   -0.05    0.03
  -4   0   3    0.02    0.05
  -4   0   3    0.02    0.10
   4   0  -3   -0.13    0.09
  -4   0   3    0.06    0.08
   4   0  -3    0.01    0.08
  -3   0   3   80.16    6.22
  -3   0   3   60.98    5.69
   3   0  -3   60.91    5.86
  -3   0   3   56.15    5.53
   3   0  -3   69.74    6.13
  -3   0   3   68.91    5.58
   3   0  -3   64.90    5.86
  -2   0   3   -0.06    0.04
  -2   0   3    0.03    0.05
   2   0  -3    0.02    0.05
  -2   0   3   -0.05    0.05
   2   0  -3   -0.13    0.05
   2   0  -3   -0.13    0.06
  -2   0   3   -0.09    0.02
   1   0  -3  174.84   17.93
  -1   0   3  264.72   22.64
   1   0  -3  256.65   24.19
  -1   0   3  239.24   19.08
   1   0  -3  198.31   18.10
   1   0  -3  236.75   22.81
  -1   0   3  185.01   18.23
  -1   0   3  207.60   17.93
   0   0   3   -0.02    0.03
   0   0  -3    0.05    0.04
   0   0  -3    0.05    0.03
   0   0  -3   -0.02    0.04
   0   0   3   -0.04    0.04
   1   0   3  244.50   25.03
  -1   0  -3  228.22   25.04
  -1   0  -3  194.89   19.88
   1   0   3  209.28   19.20
   1   0   3  196.79   19.17
   1   0   3  224.91   23.04
  -2   0  -3   -0.08    0.07
  -2   0  -3   -0.05    0.07
   2   0   3    0.00    0.11
   2   0   3    0.06    0.07
   2   0   3    0.07    0.08
  -2   0  -3   -0.10    0.07
  -2   0  -3   -0.03    0.03
   2   0   3   -0.11    0.05
   3   0   3    0.01    0.07
   3   0   3    0.00    0.06
   3   0   3   -0.01    0.09
  -3   0  -3    0.03    0.10
  -3   0  -3    0.00    0.09
  -3   0  -3    0.02    0.08
   3   0   3   -0.08    0.08
  -3   0  -3    0.08    0.06
  -4   0  -3   -0.03    0.10
   4   0   3    0.05    0.11
   4   0   3    0.10    0.10
  -4   0  -3    0.02    0.13
  -4   0  -3   -0.12    0.11
   4   0   3   -0.11    0.08
   4   0   3   -0.01    0.13
  -4   0  -3    0.01    0.07
   5   0   3   60.51    6.38
  -5   0  -3   63.39    5.50
   5   0   3   62.30    6.79
  -5   0  -3   65.58    7.21
  -5   0  -3   62.83    6.78
   5   0   3   61.34    6.15
   6   0   3   -0.10    0.13
  -6   0  -3   -0.01    0.13
   6   0   3   -0.14    0.16
   6   0   3    0.22    0.21
  -6   0  -3   -0.04    0.12
   7   0   3   25.56    2.61
  -7   0  -3   29.95    2.54
   7   0   3   28.96    2.70
  -7   0  -3   26.83    2.71
   7   0   3   27.27    2.64
   8   0   3   -0.14    0.35
  -8   0  -3    0.11    0.18
   8   0   3   -0.24    0.24
  -8   0  -3   -0.09    0.22
  -9   0  -3    1.28    0.30
  -9   0  -3    1.32    0.32
   9   0   3    1.74    0.38
   9   0   3    1.46    0.30
  10   0   3   -0.14    0.39
  10   0   3    0.31    0.33
 -10   0  -3    0.07    0.33
 -11  -1   3    0.12    0.38
  11  -1  -3    0.71    0.39
 -11   1   3    0.33    0.29
  11   1  -3    0.43    0.49
 -11   1   3    0.52    0.39
  10  -1  -3   -0.02    0.32
 -10  -1   3    0.20    0.31
 -10   1   3   -0.04    0.24
  10   1  -3   -0.17    0.32
 -10   1   3    0.05    0.31
   9  -1  -3    3.16    0.42
  -9  -1   3    2.73    0.38
   9  -1  -3    3.03    0.32
  -9   1   3    2.68    0.34
  -9   1   3    2.64    0.39
   9   1  -3    2.59    0.42
   9   1  -3    2.91    0.30
  -8  -1   3    1.90    0.26
  -8  -1   3    1.79    0.21
   8  -1  -3    1.92    0.22
   8  -1  -3    1.88    0.32
  -8   1   3    1.83    0.25
   8   1  -3    1.77    0.20
   8   1  -3    2.19    0.30
  -7  -1   3    4.00    0.44
  -7  -1   3    4.65    0.41
  -7  -1   3    4.70    0.45
   7  -1  -3    4.92    0.42
   7  -1  -3    4.31    0.48
  -7   1   3    4.38    0.39
  -7   1   3    4.67    0.44
   7   1  -3    4.25    0.49
   7   1  -3    4.56    0.41
  -7   1   3    3.69    0.42
  -6  -1   3   16.99    1.41
  -6  -1   3   15.32    1.39
  -6  -1   3   16.93    1.75
   6  -1  -3   14.98    1.41
   6  -1  -3   15.36    1.51
   6   1  -3   16.10    1.40
  -6   1   3   17.29    1.39
  -6   1   3   16.46    1.44
  -6   1   3   14.33    1.43
   6   1  -3   14.81    1.59
  -5  -1   3    8.68    0.82
   5  -1  -3    9.02    0.82
  -5  -1   3    9.39    0.77
  -5  -1   3    9.35    0.84
  -5  -1   3    8.20    0.75
   5  -1  -3    8.06    0.78
  -5  -1   3    9.21    0.84
   5   1  -3    8.62    0.81
   5   1  -3    8.31    0.84
  -5   1   3    9.51    0.90
  -5   1   3    8.25    0.74
  -5   1   3    9.59    0.76
  -5   1   3    7.51    0.75
   5   1  -3    7.69    0.75
  -5   1   3    9.16    0.82
  -4  -1   3   23.99    2.06
   4  -1  -3   19.91    1.85
   4  -1  -3   19.60    1.88
  -4  -1   3   22.22    1.76
  -4  -1   3   23.24    1.92
  -4  -1   3   22.74    2.07
  -4  -1   3   19.77    1.74
   4   1  -3   19.98    1.93
  -4   1   3   20.17    1.78
  -4   1   3   18.26    1.74
   4   1  -3   19.93    1.85
  -4   1   3   22.05    1.76
   4   1  -3   17.93    1.75
  -4   1   3   21.05    1.75
  -4   1   3   18.01    1.74
   3  -1  -3   64.21    6.11
  -3  -1   3   64.72    5.92
  -3  -1   3   73.29    6.40
  -3  -1   3   66.91    6.40
  -3  -1   3   68.98    6.22
   3  -1  -3   67.77    6.23
  -3  -1   3   69.99    5.94
  -3   1   3   64.79    5.93
  -3   1   3   80.58    6.46
  -3   1   3   73.21    5.96
   3   1  -3   61.34    6.45
   3   1  -3   65.83    6.33
   3   1  -3   70.26    6.25
  -3   1   3   73.22    5.98
   2  -1  -3   79.41    7.15
  -2  -1   3   98.65    7.86
  -2  -1   3   75.29    7.08
   2  -1  -3   74.35    7.16
   2  -1  -3   91.36    8.42
   2   1  -3   96.52    9.73
  -2   1   3   77.59    7.09
   2   1  -3   73.60    7.17
  -2   1   3   83.49    7.15
  -2   1   3   99.22    7.71
   2   1  -3   77.90    7.33
   2   1  -3   83.82    7.73
  -1  -1   3   12.57    1.08
  -1  -1   3    9.41    0.88
  -1  -1   3   12.17    0.97
  -1  -1   3    9.09    0.89
   1  -1  -3    9.82    0.90
  -1   1   3    9.04    0.88
  -1   1   3    9.99    1.01
   1   1  -3   11.84    1.01
   1   1  -3   10.73    0.96
   1   1  -3   11.22    1.03
   1   1  -3    9.84    0.90
  -1   1   3   10.15    0.91
  -1   1   3   10.19    0.90
   1   1  -3    9.45    0.91
   0  -1   3  522.79   43.29
   0  -1   3  480.55   41.25
   0  -1  -3  439.46   42.97
   0  -1   3  432.41   39.47
   0  -1  -3  418.72   41.18
   0   1  -3  420.56   40.53
   0   1   3  433.63   41.10
   0   1   3  508.56   45.75
   0   1  -3  412.48   43.94
   0   1   3  435.34   39.84
   0   1  -3  485.83   41.64
   0   1   3  455.48   42.49
  -1  -1  -3  238.14   25.81
   1  -1   3  220.11   21.39
   1  -1   3  258.22   24.60
  -1  -1  -3  207.21   20.19
   1  -1   3  240.59   21.37
   1   1   3  246.95   23.73
  -1   1  -3  222.87   20.90
  -1   1  -3  183.43   19.96
  -1   1  -3  231.12   21.06
   1   1   3  211.77   20.78
   1   1   3  208.06   19.45
   2  -1   3   25.83    2.41
  -2  -1  -3   28.23    2.64
   2  -1   3   28.99    2.57
  -2  -1  -3   26.23    2.26
  -2  -1  -3   22.31    2.35
   2  -1   3   27.54    2.97
   2  -1   3   27.20    2.89
  -2  -1  -3   25.34    2.40
  -2   1  -3   22.81    2.26
  -2   1  -3   27.86    2.58
   2   1   3   28.98    2.98
   2   1   3   24.91    2.41
   2   1   3   26.52    2.62
   2   1   3   26.73    2.53
  -2   1  -3   26.95    2.58
  -2   1  -3   26.44    2.40
  -3  -1  -3    5.33    0.47
   3  -1   3    4.18    0.46
   3  -1   3    5.38    0.49
  -3  -1  -3    5.24    0.52
   3  -1   3    4.60    0.50
   3  -1   3    5.09    0.49
  -3  -1  -3    4.97    0.50
  -3  -1  -3    5.20    0.56
   3   1   3    5.16    0.52
   3   1   3    5.48    0.58
  -3   1  -3    5.69    0.46
  -3   1  -3    5.28    0.48
   3   1   3    4.51    0.49
  -3   1  -3    4.54    0.49
   3   1   3    4.72    0.47
  -3   1  -3    5.23    1.05
   4  -1   3    0.15    0.12
   4  -1   3   -0.09    0.06
   4  -1   3   -0.02    0.10
   4  -1   3   -0.12    0.13
  -4  -1  -3    0.09    0.10
  -4  -1  -3    0.09    0.11
  -4  -1  -3    0.06    0.07
  -4  -1  -3   -0.07    0.12
  -4   1  -3   -0.11    0.10
   4   1   3    0.00    0.09
  -4   1  -3    0.09    0.13
   4   1   3   -0.32    0.16
  -4   1  -3   -0.03    0.09
   4   1   3   -0.01    0.13
  -4   1  -3    0.05    0.08
   4   1   3   -0.15    0.13
  -5  -1  -3    2.73    0.27
  -5  -1  -3    2.59    0.31
  -5  -1  -3    2.46    0.28
   5  -1   3    2.78    0.27
   5  -1   3    2.78    0.29
   5  -1   3    2.57    0.30
   5  -1   3    2.04    0.30
   5   1   3    2.47    0.33
  -5   1  -3    2.72    0.28
  -5   1  -3    2.54    0.30
   5   1   3    2.68    0.28
  -5   1  -3    3.03    0.30
   5   1   3    2.77    0.30
   6  -1   3    0.12    0.17
  -6  -1  -3    0.06    0.14
   6  -1   3    0.02    0.15
   6  -1   3    0.05    0.10
   6   1   3   -0.06    0.20
   6   1   3   -0.14    0.12
  -6   1  -3    0.11    0.16
   6   1   3    0.22    0.25
  -6   1  -3    0.12    0.13
   7  -1   3    0.11    0.21
  -7  -1  -3   -0.16    0.16
   7  -1   3    0.39    0.11
  -7  -1  -3    0.28    0.17
   7  -1   3    0.65    0.24
  -7  -1  -3    0.29    0.20
   7   1   3    0.63    0.22
  -7   1  -3    0.40    0.15
  -7   1  -3    0.14    0.19
   7   1   3    0.19    0.23
   7   1   3    0.54    0.16
   8  -1   3    5.09    0.54
  -8  -1  -3    5.08    0.52
  -8  -1  -3    4.54    0.54
   8  -1   3    4.14    0.54
  -8   1  -3    5.36    0.54
  -8   1  -3    4.30    0.51
   8   1   3    4.66    0.59
   8   1   3    5.64    0.53
  -9  -1  -3    0.07    0.25
   9  -1   3   -0.06    0.25
  -9  -1  -3   -0.16    0.22
   9  -1   3   -0.15    0.39
  -9   1  -3    0.52    0.35
  -9   1  -3    0.21    0.22
   9   1   3   -0.26    0.32
   9   1   3   -0.07    0.36
  10  -1   3    0.33    0.39
  10  -1   3    2.38    0.39
 -10  -1  -3    1.36    0.37
  10   1   3    1.31    0.36
  10   1   3    1.17    0.44
 -10   1  -3    0.38    0.33
 -10   1  -3    0.54    0.35
  11  -2  -3   -0.46    0.44
 -11  -2   3    0.29    0.39
  11   2  -3    0.16    0.50
 -11   2   3   -0.19    0.38
 -11   2   3   -0.45    0.33
  10  -2  -3    0.04    0.37
 -10  -2   3   -0.04    0.32
  10   2  -3    0.30    0.42
 -10   2   3   -0.22    0.38
 -10   2   3    0.02    0.28
  -9  -2   3    0.92    0.25
   9  -2  -3    1.13    0.27
   9   2  -3    0.96    0.38
  -9   2   3    1.46    0.27
  -9   2   3    1.17    0.28
   8  -2  -3    5.04    0.57
  -8  -2   3    5.25    0.53
  -8  -2   3    5.45    0.55
  -8   2   3    5.24    0.53
   8   2  -3    5.25    0.60
   8   2  -3    5.84    0.51
  -8   2   3    5.64    0.59
   7  -2  -3    2.21    0.28
  -7  -2   3    1.71    0.21
  -7  -2   3    2.33    0.28
  -7  -2   3    1.91    0.22
  -7   2   3    1.42    0.22
  -7   2   3    2.32    0.25
   7   2  -3    2.53    0.32
  -7   2   3    2.29    0.28
   7   2  -3    2.13    0.20
   6  -2  -3   17.50    1.71
   6  -2  -3   19.37    1.73
  -6  -2   3   19.13    1.63
  -6  -2   3   19.60    1.65
  -6  -2   3   20.75    1.81
   6   2  -3   18.40    1.89
   6   2  -3   17.27    1.65
  -6   2   3   19.90    1.64
  -6   2   3   16.50    1.65
  -5  -2   3   26.18    2.46
  -5  -2   3   24.44    2.24
   5  -2  -3   22.71    2.26
  -5  -2   3   25.64    2.11
  -5  -2   3   24.77    2.14
   5  -2  -3   22.58    2.21
  -5  -2   3   26.30    2.89
  -5  -2   3   24.83    2.45
  -5   2   3   24.83    2.10
   5   2  -3   23.70    2.55
   5   2  -3   21.46    2.15
  -5   2   3   27.55    2.33
  -5   2   3   27.43    2.48
  -5   2   3   22.50    2.11
   5   2  -3   24.13    2.35
  -4  -2   3   23.21    2.18
   4  -2  -3   22.57    1.95
   4  -2  -3   20.56    1.98
  -4  -2   3   20.28    1.90
  -4  -2   3   21.26    1.95
  -4  -2   3   22.77    1.91
  -4  -2   3   22.41    1.97
  -4   2   3   25.38    1.97
   4   2  -3   19.70    1.97
   4   2  -3   22.63    2.28
  -4   2   3   22.43    1.92
  -4   2   3   23.65    1.95
  -4   2   3   21.22    1.89
  -4   2   3   20.35    1.89
   4   2  -3   22.22    2.07
   4   2  -3   22.58    2.11
  -3  -2   3   77.61    6.81
   3  -2  -3   60.44    6.09
  -3  -2   3   66.35    5.98
  -3  -2   3   79.83    7.80
  -3  -2   3   63.48    5.97
   3  -2  -3   62.32    6.22
  -3  -2   3   83.91    7.14
   3   2  -3   65.81    6.34
  -3   2   3   80.39    6.72
  -3   2   3   67.83    5.99
   3   2  -3   75.67    7.44
  -3   2   3   71.38    5.99
   3   2  -3   73.93    7.07
   3   2  -3   76.23    8.20
  -3   2   3   68.48    6.00
  -3   2   3   72.96    6.08
  -2  -2   3    3.18    0.25
   2  -2  -3    2.83    0.27
   2  -2  -3    2.36    0.23
   2  -2  -3    2.38    0.24
  -2  -2   3    2.36    0.23
  -2  -2   3    2.69    0.26
  -2   2   3    2.19    0.23
  -2   2   3    2.70    0.24
   2   2  -3    2.46    0.25
   2   2  -3    3.06    0.30
  -2   2   3    2.48    0.24
   2   2  -3    2.94    0.31
  -2   2   3    2.63    0.24
   2   2  -3    2.16    0.22
   2   2  -3    2.86    0.26
  -2   2   3    3.11    0.26
   1  -2  -3  168.86   16.54
   1  -2  -3  178.10   17.02
  -1  -2   3  208.11   17.09
  -1  -2   3  176.41   16.07
  -1  -2   3  202.01   16.38
  -1  -2   3  169.34   15.96
   1   2  -3  200.36   17.21
   1   2  -3  195.56   17.66
  -1   2   3  181.33   17.28
  -1   2   3  207.84   18.00
  -1   2   3  166.34   16.21
   1   2  -3  203.49   18.11
  -1   2   3  178.10   17.12
   0  -2   3  725.46   60.92
   0  -2  -3  750.08   80.21
   0  -2  -3  656.90   62.86
   0  -2  -3  576.90   63.83
   0  -2   3  784.70   60.17
   0  -2  -3  619.53   59.99
   0   2   3  740.34   68.46
   0   2   3  622.51   59.64
   0   2   3  664.25   65.92
   0   2   3  632.33   59.74
   0   2  -3  693.88   68.52
   0   2  -3  741.66   60.36
  -1  -2  -3  205.62   20.11
  -1  -2  -3  204.92   19.72
   1  -2   3  224.29   18.80
   1  -2   3  211.84   21.83
   1  -2   3  223.64   20.25
  -1   2  -3  209.99   19.46
  -1   2  -3  221.86   19.15
   1   2   3  195.17   18.54
   1   2   3  238.75   22.55
  -1   2  -3  207.26   20.09
   1   2   3  196.47   20.45
   2  -2   3    2.90    0.27
  -2  -2  -3    2.49    0.24
  -2  -2  -3    2.68    0.26
  -2  -2  -3    2.52    0.25
   2  -2   3    2.53    0.31
   2  -2   3    2.49    0.25
  -2  -2  -3    2.99    0.31
   2  -2   3    2.74    0.27
  -2   2  -3    3.11    0.27
  -2   2  -3    2.66    0.26
   2   2   3    2.64    0.26
   2   2   3    2.52    0.27
   2   2   3    2.21    0.26
  -2   2  -3    2.90    0.26
   2   2   3    2.63    0.31
   3  -2   3    0.11    0.11
  -3  -2  -3    0.11    0.11
   3  -2   3    0.10    0.08
  -3  -2  -3    0.03    0.06
  -3  -2  -3    0.00    0.07
   3  -2   3    0.06    0.08
   3  -2   3   -0.04    0.08
  -3  -2  -3    0.10    0.07
   3   2   3    0.07    0.09
   3   2   3   -0.03    0.14
   3   2   3    0.09    0.10
  -3   2  -3    0.04    0.07
   3   2   3    0.07    0.08
  -3   2  -3   -0.04    0.09
  -3   2  -3   -0.05    0.07
  -3   2  -3   -0.13    0.10
   4  -2   3    1.43    0.19
  -4  -2  -3    1.54    0.17
   4  -2   3    1.66    0.16
  -4  -2  -3    1.81    0.21
  -4  -2  -3    1.27    0.17
   4  -2   3    1.76    0.19
  -4  -2  -3    1.51    0.17
   4  -2   3    1.16    0.20
  -4   2  -3    1.60    0.20
  -4   2  -3    1.76    0.18
   4   2   3    1.34    0.18
   4   2   3    1.30    0.21
   4   2   3    1.74    0.22
   4   2   3    1.83    0.23
  -4   2  -3    1.63    0.26
  -4   2  -3    1.64    0.18
  -5  -2  -3   15.71    1.77
   5  -2   3   18.39    1.77
   5  -2   3   18.10    1.69
  -5  -2  -3   16.98    1.99
  -5  -2  -3   19.43    1.64
  -5  -2  -3   18.58    1.82
   5  -2   3   20.66    1.75
   5  -2   3   18.00    1.74
  -5   2  -3   20.20    1.67
   5   2   3   18.56    1.75
   5   2   3   18.38    1.75
  -5   2  -3   18.59    1.88
   5   2   3   17.97    1.84
   6  -2   3    0.89    0.23
   6  -2   3    0.84    0.17
  -6  -2  -3    0.41    0.12
   6  -2   3    0.92    0.12
  -6  -2  -3    0.76    0.14
  -6  -2  -3    0.80    0.20
  -6   2  -3    1.05    0.19
   6   2   3    0.82    0.22
   6   2   3    0.22    0.22
  -6   2  -3    0.89    0.17
   6   2   3    0.82    0.17
   7  -2   3    1.17    0.14
  -7  -2  -3    1.05    0.21
   7  -2   3    0.95    0.22
  -7  -2  -3    1.04    0.17
  -7  -2  -3    0.76    0.24
   7  -2   3    0.70    0.30
  -7   2  -3    1.31    0.22
   7   2   3    0.75    0.34
   7   2   3    2.32    2.70
   7   2   3    1.20    0.22
  -7   2  -3    1.14    0.21
   8  -2   3    0.13    0.21
   8  -2   3    0.15    0.31
  -8  -2  -3    0.07    0.24
  -8   2  -3   -0.18    0.20
  -8   2  -3    0.33    0.22
   8   2   3   -0.12    0.25
   8   2   3   -0.16    0.36
  -9  -2  -3    0.22    0.27
   9  -2   3   -0.02    0.32
   9  -2   3   -0.25    0.26
  -9  -2  -3    0.08    0.29
   9   2   3   -0.17    0.28
  -9   2  -3    0.56    0.28
   9   2   3   -0.54    0.34
  -9   2  -3   -0.08    0.25
  10  -2   3    0.63    0.32
 -10  -2  -3    0.48    0.35
  10  -2   3    0.89    0.39
 -10   2  -3    0.46    0.27
  10   2   3    0.76    0.56
  10   2   3    0.71    0.38
 -10   2  -3    0.29    0.36
 -11  -3   3    1.48    0.46
  11  -3  -3    1.99    0.49
 -11   3   3    1.70    0.45
 -11   3   3    1.94    0.39
  11   3  -3    2.29    0.49
 -10  -3   3    0.12    0.46
  10  -3  -3   -0.17    0.36
 -10   3   3    0.39    0.22
  10   3  -3    0.11    0.37
 -10   3   3   -0.13    0.31
  -9  -3   3    0.75    0.28
   9  -3  -3    0.57    0.30
  -9   3   3    0.45    0.23
  -9   3   3    0.46    0.28
   9   3  -3    1.01    0.38
   8  -3  -3    5.83    0.61
  -8  -3   3    6.26    0.56
  -8  -3   3    6.72    0.61
  -8   3   3    5.66    0.62
   8   3  -3    6.04    0.61
  -8   3   3    5.46    0.58
   8   3  -3    5.75    0.55
  -7  -3   3    0.37    0.10
   7  -3  -3    1.09    0.22
  -7  -3   3    0.48    0.13
  -7  -3   3    0.40    0.24
  -7   3   3    0.65    0.19
  -7   3   3    0.57    0.15
   7   3  -3    0.68    0.22
  -7   3   3    0.30    0.14
   7   3  -3    0.69    0.11
  -6  -3   3    0.37    0.12
  -6  -3   3    0.32    0.14
   6  -3  -3    0.54    0.15
  -6  -3   3    0.43    0.15
   6  -3  -3    0.58    0.15
  -6   3   3    0.42    0.16
  -6   3   3    0.50    0.15
   6   3  -3    0.59    0.09
   6   3  -3    0.55    0.13
  -6   3   3    0.45    0.12
   6   3  -3    0.55    0.18
  -5  -3   3    0.50    0.13
  -5  -3   3    0.97    0.17
  -5  -3   3    0.82    0.16
   5  -3  -3    0.95    0.13
   5  -3  -3    0.81    0.16
  -5  -3   3    1.07    0.14
  -5   3   3    0.70    0.14
   5   3  -3    0.87    0.13
  -5   3   3    1.00    0.16
   5   3  -3    0.89    0.11
  -5   3   3    0.69    0.13
   5   3  -3    1.00    0.17
   4  -3  -3    0.01    0.09
  -4  -3   3   -0.02    0.08
  -4  -3   3    0.18    0.09
  -4  -3   3    0.18    0.11
  -4  -3   3    0.12    0.09
   4  -3  -3   -0.06    0.08
  -4   3   3    0.03    0.08
   4   3  -3    0.06    0.14
  -4   3   3    0.26    0.11
  -4   3   3    0.02    0.12
   4   3  -3    0.05    0.06
  -4   3   3    0.03    0.04
   4   3  -3    0.23    0.09
   4   3  -3    0.15    0.10
  -4   3   3    0.02    0.07
  -4   3   3    0.11    0.11
   4   3  -3    0.09    0.11
  -3  -3   3    4.55    0.42
   3  -3  -3    3.78    0.36
  -3  -3   3    4.95    0.55
  -3  -3   3    4.19    0.37
  -3  -3   3    3.91    0.37
   3  -3  -3    4.33    0.38
  -3   3   3    4.16    0.38
   3   3  -3    4.15    0.45
   3   3  -3    4.60    0.46
  -3   3   3    3.73    0.37
   3   3  -3    3.36    0.38
  -3   3   3    4.51    0.38
  -3   3   3    4.02    0.37
  -3   3   3    4.01    0.36
   3   3  -3    3.61    0.37
  -3   3   3    4.66    0.42
   3   3  -3    3.93    0.42
   3   3  -3    4.13    0.49
   2  -3  -3   11.01    1.16
  -2  -3   3   13.43    1.11
  -2  -3   3   10.67    1.00
  -2  -3   3   10.65    1.01
   2  -3  -3   11.04    1.02
  -2  -3   3   13.46    1.16
   2   3  -3   11.42    1.04
  -2   3   3   12.96    1.10
   2   3  -3   11.45    1.07
  -2   3   3   13.83    1.18
  -2   3   3   10.39    1.00
   2   3  -3   12.81    1.27
   2   3  -3   12.20    1.13
  -2   3   3   12.65    1.14
  -2   3   3   10.82    1.04
   1  -3  -3   85.56    9.11
  -1  -3   3   87.44    7.54
   1  -3  -3   80.13    7.85
   1  -3  -3   71.82    8.55
  -1  -3   3   91.06    7.38
  -1  -3   3   70.11    7.09
  -1  -3   3   84.23    7.07
  -1  -3   3   81.35    7.13
  -1   3   3   80.74    7.47
   1   3  -3   82.67    7.48
   1   3  -3   91.27    7.86
   1   3  -3   87.61    7.54
  -1   3   3   81.43    7.62
   1   3  -3   86.00    7.14
  -1   3   3   71.40    7.11
  -1   3   3   79.46    7.50
   0  -3  -3    8.71    0.95
   0  -3   3    9.49    0.82
   0  -3   3    9.82    0.85
   0  -3  -3    8.39    0.89
   0  -3   3    9.23    0.82
   0  -3  -3    9.35    0.86
   0  -3   3    9.68    0.84
   0   3  -3   10.29    0.82
   0   3  -3    8.47    0.91
   0   3   3    8.80    0.82
   0   3  -3    9.52    0.82
   0   3   3   10.20    0.91
   0   3   3    8.79    0.84
  -1  -3  -3   65.16    6.18
   1  -3   3   67.89    5.71
   1  -3   3   68.26    6.44
   1  -3   3   67.49    5.44
  -1  -3  -3   53.92    5.45
  -1  -3  -3   66.57    6.73
  -1  -3  -3   56.39    5.48
   1   3   3   59.86    5.67
  -1   3  -3   65.99    5.68
  -1   3  -3   68.24    5.68
   1   3   3   52.47    5.56
   1   3   3   75.21    6.87
  -1   3  -3   68.74    5.51
   1   3   3   59.22    5.60
  -2  -3  -3   96.56    9.80
   2  -3   3  123.39   10.21
  -2  -3  -3  115.97   11.28
  -2  -3  -3  114.45    9.92
   2  -3   3  120.98   10.44
   2  -3   3  138.27   14.50
  -2  -3  -3  119.15   11.48
   2  -3   3  112.84   10.86
   2   3   3  110.17   10.59
   2   3   3   99.32   10.62
  -2   3  -3  128.59   10.51
   2   3   3  112.27   10.94
  -2   3  -3  116.64   10.18
  -2   3  -3  117.64   10.51
   2   3   3  108.24   10.22
  -3  -3  -3    3.63    0.35
  -3  -3  -3    4.43    0.39
  -3  -3  -3    3.72    0.35
  -3  -3  -3    3.82    0.34
   3  -3   3    3.29    0.35
   3  -3   3    3.27    0.34
   3  -3   3    3.43    0.37
   3  -3   3    3.83    0.40
   3   3   3    3.43    0.36
  -3   3  -3    3.84    0.35
  -3   3  -3    3.50    0.37
   3   3   3    3.49    0.41
  -3   3  -3    4.38    0.35
   3   3   3    3.65    0.38
   3   3   3    3.12    0.35
  -4  -3  -3    7.28    0.57
  -4  -3  -3    6.31    0.56
   4  -3   3    6.99    0.60
  -4  -3  -3    5.91    0.70
  -4  -3  -3    5.84    0.58
   4  -3   3    6.21    0.64
   4  -3   3    5.26    0.55
   4   3   3    6.69    0.67
   4   3   3    6.07    0.64
  -4   3  -3    5.94    0.60
   4   3   3    5.30    0.58
  -4   3  -3    6.51    0.63
   4   3   3    5.45    0.58
  -4   3  -3    6.55    0.58
  -4   3  -3    6.11    0.56
  -5  -3  -3    2.04    0.23
  -5  -3  -3    1.50    0.23
   5  -3   3    1.68    0.20
   5  -3   3    1.43    0.22
   5  -3   3    1.30    0.23
   5  -3   3    1.75    0.16
  -5  -3  -3    1.06    0.18
  -5  -3  -3    1.40    0.19
   5   3   3    1.71    0.24
   5   3   3    1.62    0.22
   5   3   3    1.58    0.24
  -5   3  -3    1.45    0.19
  -5   3  -3    1.59    0.21
   6  -3   3    1.16    0.13
   6  -3   3    0.97    0.22
  -6  -3  -3    0.90    0.17
   6  -3   3    1.01    0.20
  -6  -3  -3    1.07    0.16
  -6  -3  -3    0.91    0.22
   6   3   3    0.74    0.23
   6   3   3    0.53    0.29
  -6   3  -3    0.89    0.18
  -6   3  -3    1.25    0.21
   6   3   3    0.63    0.21
  -7  -3  -3   -0.38    0.21
  -7  -3  -3    0.08    0.18
  -7  -3  -3    0.01    0.13
   7  -3   3    0.09    0.08
   7  -3   3    0.14    0.16
   7  -3   3   -0.19    0.26
  -7   3  -3    0.13    0.16
   7   3   3    0.06    0.19
   7   3   3   -0.19    0.27
  -7   3  -3    0.04    0.16
   8  -3   3   -0.03    0.22
   8  -3   3    0.12    0.32
  -8  -3  -3    0.23    0.18
  -8  -3  -3    0.28    0.21
   8   3   3    0.23    0.41
  -8   3  -3    0.05    0.20
  -9  -3  -3    0.26    0.31
   9  -3   3   -0.05    0.38
   9  -3   3    0.32    0.49
   9   3   3    0.31    0.34
  -9   3  -3   -0.11    0.30
  -9   3  -3   -0.16    0.25
   9   3   3    0.43    0.46
  10  -3   3    0.53    0.32
 -10  -3  -3    0.29    0.37
  10  -3   3    0.58    0.37
  10   3   3    0.25    0.34
  10   3   3    0.57    0.55
 -10   3  -3    0.36    0.38
 -10   3  -3    0.56    0.31
 -11  -4   3    0.81    0.36
  11  -4  -3    0.70    0.47
  11   4  -3    0.61    0.48
 -11   4   3    0.00    0.32
 -11   4   3    0.79    0.42
  10  -4  -3    0.89    0.38
 -10  -4   3    0.29    0.29
 -10   4   3    0.67    0.35
  10   4  -3    0.19    0.46
 -10   4   3    0.23    0.26
   9  -4  -3    0.60    0.25
  -9  -4   3    1.00    0.30
  -9  -4   3    0.80    0.23
  -9   4   3    1.07    0.31
   9   4  -3    0.64    0.33
  -9   4   3    1.31    0.73
  -8  -4   3   -0.06    0.18
  -8  -4   3    0.27    0.18
   8  -4  -3    0.42    0.25
  -8   4   3    0.00    0.21
   8   4  -3   -0.17    0.13
  -8   4   3   -0.03    0.17
   8   4  -3    0.20    0.27
  -7  -4   3    4.01    0.42
  -7  -4   3    4.69    0.44
   7  -4  -3    3.80    0.45
   7   4  -3    3.82    0.48
   7   4  -3    3.88    0.40
  -7   4   3    4.51    0.49
  -7   4   3    4.53    0.41
  -6  -4   3    0.34    0.14
  -6  -4   3    0.17    0.13
  -6  -4   3   -0.12    0.16
   6  -4  -3    0.09    0.12
   6  -4  -3   -0.04    0.13
   6   4  -3   -0.26    0.22
   6   4  -3    0.26    0.10
  -6   4   3   -0.17    0.14
  -6   4   3    0.10    0.11
   6   4  -3    0.23    0.13
  -6   4   3   -0.03    0.18
  -5  -4   3    0.64    0.13
   5  -4  -3    0.70    0.12
  -5  -4   3    0.98    0.16
   5  -4  -3    0.86    0.15
  -5  -4   3    0.97    0.15
   5   4  -3    1.15    0.16
   5   4  -3    1.06    0.21
  -5   4   3    0.68    0.13
  -5   4   3    1.14    0.17
  -5   4   3    0.74    0.12
  -5   4   3    0.66    0.07
  -4  -4   3    1.01    0.14
  -4  -4   3    0.59    0.14
   4  -4  -3    0.60    0.15
  -4  -4   3    0.45    0.15
   4  -4  -3    0.76    0.11
  -4  -4   3    0.75    0.12
  -4   4   3    0.76    0.10
  -4   4   3    0.36    0.14
  -4   4   3    0.84    0.13
  -4   4   3    0.96    0.16
  -4   4   3    0.81    0.09
   4   4  -3    0.87    0.14
   4   4  -3    0.73    0.15
   4   4  -3    0.98    0.11
  -4   4   3    1.00    0.16
   4   4  -3    0.95    0.14
   4   4  -3    0.56    0.17
   4   4  -3    1.08    0.19
  -3  -4   3   60.55    5.72
  -3  -4   3   72.17    6.51
  -3  -4   3   63.63    5.81
  -3  -4   3   75.01    6.38
   3  -4  -3   62.95    5.96
   3  -4  -3   56.48    5.69
   3  -4  -3   65.12    6.29
  -3   4   3   66.25    5.80
  -3   4   3   70.64    6.16
  -3   4   3   75.08    6.17
   3   4  -3   69.74    5.92
   3   4  -3   79.76    8.02
  -3   4   3   77.45    7.33
   3   4  -3   72.52    7.48
  -3   4   3   61.50    5.74
   3   4  -3   70.30    6.64
   3   4  -3   72.66    8.17
  -2  -4   3   26.91    2.22
   2  -4  -3   23.78    2.17
  -2  -4   3   24.30    2.13
   2  -4  -3   23.13    3.08
  -2  -4   3   21.64    2.16
  -2  -4   3   27.89    2.23
  -2   4   3   21.51    2.20
  -2   4   3   25.70    2.25
   2   4  -3   25.79    2.48
   2   4  -3   24.37    2.33
   2   4  -3   25.88    2.34
  -2   4   3   25.72    2.19
   2   4  -3   25.15    2.17
   2   4  -3   25.28    2.22
  -2   4   3   22.11    2.14
  -2   4   3   23.01    2.20
  -1  -4   3    7.44    0.61
  -1  -4   3    7.94    0.68
  -1  -4   3    7.34    0.62
   1  -4  -3    6.10    0.73
   1  -4  -3    6.79    0.63
  -1   4   3    7.31    0.68
   1   4  -3    7.12    0.72
   1   4  -3    7.31    0.69
  -1   4   3    6.32    0.63
   1   4  -3    7.17    0.64
   1   4  -3    7.11    0.64
  -1   4   3    6.08    0.64
   0  -4   3   18.83    1.68
   0  -4  -3   18.59    1.68
   0  -4   3   18.93    1.66
   0  -4   3   19.68    1.66
   0  -4   3   19.43    1.73
   0   4   3   16.94    1.65
   0   4  -3   18.59    1.93
   0   4   3   20.36    1.91
   0   4   3   18.47    1.69
   0   4   3   18.13    1.76
   0   4   3   18.13    1.72
   0   4  -3   20.21    1.68
   0   4  -3   21.17    1.68
  -1  -4  -3   49.31    5.12
   1  -4   3   62.58    5.32
   1  -4   3   63.63    5.34
  -1  -4  -3   54.25    5.62
   1  -4   3   61.18    5.12
   1  -4   3   59.05    5.12
  -1  -4  -3   59.09    5.57
  -1   4  -3   59.67    5.59
  -1   4  -3   66.02    5.13
  -1   4  -3   63.15    5.14
   1   4   3   55.05    5.25
   1   4   3   52.22    5.31
   1   4   3   66.05    6.54
   1   4   3   58.33    5.84
   2  -4   3   -0.02    0.11
   2  -4   3    0.01    0.07
  -2  -4  -3    0.04    0.10
  -2  -4  -3   -0.13    0.09
   2  -4   3    0.02    0.06
   2  -4   3   -0.01    0.08
  -2  -4  -3    0.06    0.07
  -2  -4  -3    0.01    0.07
   2  -4   3    0.01    0.06
  -2   4  -3    0.07    0.08
   2   4   3    0.05    0.09
   2   4   3    0.00    0.09
  -2   4  -3   -0.02    0.08
   2   4   3    0.01    0.12
  -2   4  -3    0.02    0.08
   2   4   3   -0.06    0.13
  -3  -4  -3    5.35    0.48
   3  -4   3    5.06    0.47
  -3  -4  -3    4.53    0.53
   3  -4   3    5.12    0.47
   3  -4   3    4.94    0.45
   3  -4   3    5.62    0.50
  -3  -4  -3    4.55    0.46
  -3  -4  -3    4.16    0.45
   3  -4   3    4.93    0.47
  -3   4  -3    5.60    0.49
   3   4   3    4.68    0.48
  -3   4  -3    5.70    0.47
   3   4   3    4.76    0.49
  -3   4  -3    5.67    0.47
   3   4   3    4.85    0.49
   3   4   3    5.30    0.54
   4  -4   3    1.16    0.19
  -4  -4  -3    1.53    0.18
   4  -4   3    1.79    0.17
   4  -4   3    1.57    0.23
  -4  -4  -3    1.04    0.17
  -4  -4  -3    1.13    0.16
  -4  -4  -3    1.28    0.19
   4  -4   3    1.29    0.18
   4   4   3    1.02    0.18
   4   4   3    1.59    0.28
   4   4   3    1.06    0.22
  -4   4  -3    1.25    0.15
  -4   4  -3    1.54    0.18
  -5  -4  -3   38.58    3.26
  -5  -4  -3   30.98    3.49
   5  -4   3   31.97    3.25
  -5  -4  -3   38.93    3.63
   5  -4   3   38.06    3.59
   5  -4   3   33.49    3.18
   5  -4   3   39.47    3.38
   5   4   3   37.11    4.01
   5   4   3   35.00    4.02
  -5   4  -3   38.93    3.28
  -5   4  -3   39.60    4.00
   6  -4   3    0.64    0.10
  -6  -4  -3    0.10    0.14
   6  -4   3    0.65    0.18
  -6  -4  -3    0.26    0.15
  -6  -4  -3    0.34    0.17
   6  -4   3    0.65    0.09
   6  -4   3    0.61    0.23
   6   4   3   -0.07    0.29
   6   4   3    0.17    0.23
  -6   4  -3    0.70    0.19
  -6   4  -3    0.42    0.14
   7  -4   3   10.32    1.07
  -7  -4  -3   10.71    1.05
  -7  -4  -3   11.30    1.03
   7  -4   3   11.05    1.05
   7   4   3   12.10    1.08
  -7   4  -3   11.00    1.01
   7   4   3   10.23    1.11
  -7   4  -3   10.02    1.09
   8  -4   3    0.35    0.23
  -8  -4  -3    0.06    0.17
  -8  -4  -3   -0.02    0.26
   8  -4   3   -0.25    0.31
   8   4   3    0.21    0.28
   8   4   3   -0.05    0.42
  -8   4  -3    0.09    0.19
  -8   4  -3   -0.03    0.25
   9  -4   3    1.33    0.38
   9  -4   3    0.97    0.40
  -9  -4  -3    0.81    0.35
   9   4   3    2.00    0.46
  -9   4  -3    1.10    0.27
   9   4   3    0.90    0.33
  -9   4  -3    0.80    0.30
 -10  -4  -3    0.35    0.38
  10  -4   3    1.03    0.38
  10  -4   3   -0.08    0.44
 -10   4  -3    0.31    0.30
  10   4   3    0.17    0.47
 -10   4  -3    0.01    0.37
  11  -5  -3    0.61    0.37
 -11  -5   3    0.28    0.36
  11   5  -3   -0.07    0.59
 -11   5   3    0.39    0.54
  10  -5  -3    0.55    0.39
 -10  -5   3    0.33    0.36
 -10   5   3    0.43    0.26
  10   5  -3    0.56    0.49
 -10   5   3   -0.11    0.34
  -9  -5   3    0.50    0.29
   9  -5  -3    0.18    0.30
  -9  -5   3    0.12    0.18
  -9   5   3    0.32    0.21
  -9   5   3    0.16    0.26
   9   5  -3   -0.28    0.42
  -8  -5   3    1.06    0.27
  -8  -5   3    1.03    0.23
   8  -5  -3    1.03    0.24
  -8   5   3    0.45    0.19
   8   5  -3    0.67    0.30
   8   5  -3    0.93    0.17
  -8   5   3    1.39    0.27
   7  -5  -3    1.11    0.26
  -7  -5   3    1.05    0.23
  -7  -5   3    1.24    0.22
  -7   5   3    1.12    0.18
   7   5  -3    1.06    0.18
   7   5  -3    2.10    0.33
  -7   5   3    1.54    0.25
  -6  -5   3    4.18    0.41
   6  -5  -3    3.48    0.38
   6  -5  -3    4.07    0.40
  -6  -5   3    4.22    0.40
  -6  -5   3    4.34    0.42
  -6   5   3    3.62    0.39
   6   5  -3    4.05    0.46
   6   5  -3    3.70    0.39
  -6   5   3    4.17    0.44
   5  -5  -3    0.11    0.16
  -5  -5   3    0.09    0.12
  -5  -5   3    0.31    0.12
   5  -5  -3    0.02    0.09
  -5  -5   3    0.12    0.13
  -5   5   3    0.06    0.17
   5   5  -3    0.29    0.21
   5   5  -3    0.00    0.09
   5   5  -3   -0.20    0.14
  -5   5   3    0.14    0.13
  -5   5   3    0.23    0.10
  -5   5   3    0.07    0.06
   5   5  -3    0.10    0.14
   4  -5  -3    8.58    0.82
  -4  -5   3    9.36    1.04
   4  -5  -3    8.53    0.83
   4  -5  -3    9.60    0.85
  -4  -5   3    8.59    0.83
  -4  -5   3    9.90    0.92
  -4  -5   3    9.02    0.83
   4   5  -3    9.14    0.88
   4   5  -3    9.50    0.98
   4   5  -3    9.29    0.87
  -4   5   3   10.36    1.01
  -4   5   3    9.12    0.81
   4   5  -3    9.58    0.85
  -4   5   3    9.65    0.82
   4   5  -3    8.87    0.86
  -4   5   3    9.73    0.82
   4   5  -3    9.32    0.84
  -3  -5   3   46.32    4.55
   3  -5  -3   53.48    4.70
   3  -5  -3   51.23    6.16
   3  -5  -3   49.83    4.68
  -3  -5   3   54.93    5.26
  -3  -5   3   54.93    4.63
  -3  -5   3   61.42    5.63
  -3   5   3   59.24    5.43
  -3   5   3   56.15    4.94
   3   5  -3   55.24    6.19
  -3   5   3   52.05    4.59
   3   5  -3   54.55    5.02
   3   5  -3   55.80    4.72
   3   5  -3   53.80    5.41
  -3   5   3   50.15    4.63
  -3   5   3   47.77    4.80
  -2  -5   3   20.64    1.75
  -2  -5   3   20.91    1.81
  -2  -5   3   19.56    1.72
   2  -5  -3   17.14    2.00
  -2  -5   3   18.31    1.72
   2  -5  -3   19.50    1.74
   2   5  -3   19.66    1.84
   2   5  -3   19.35    2.13
   2   5  -3   19.39    1.92
  -2   5   3   20.33    1.86
  -2   5   3   20.90    1.70
  -2   5   3   19.71    2.00
   2   5  -3   19.27    1.99
  -2   5   3   20.07    1.91
   2   5  -3   19.03    1.80
  -2   5   3   17.49    1.71
  -1  -5   3   20.23    1.78
  -1  -5   3   22.01    1.96
   1  -5  -3   17.66    2.10
   1  -5  -3   20.37    1.80
  -1  -5   3   19.43    1.78
   1   5  -3   21.58    2.08
   1   5  -3   20.83    1.82
   1   5  -3   21.29    2.10
   1   5  -3   21.38    1.87
   1   5  -3   21.11    2.08
  -1   5   3   19.66    1.93
  -1   5   3   20.58    1.88
  -1   5   3   18.30    1.80
   0  -5   3   60.39    5.27
   0  -5  -3   62.15    6.05
   0  -5  -3   49.30    5.69
   0  -5   3   64.98    5.59
   0  -5   3   60.44    5.26
   0   5   3   59.59    5.74
   0   5  -3   72.27    5.45
   0   5  -3   60.62    5.73
   0   5   3   57.53    5.36
   0   5  -3   69.58    5.85
   0   5   3   61.75    5.68
   0   5   3   54.65    5.34
   1  -5   3    0.58    0.10
  -1  -5  -3    0.36    0.09
  -1  -5  -3    0.42    0.12
   1  -5   3    0.69    0.10
  -1  -5  -3    0.47    0.11
   1  -5   3    0.55    0.07
   1  -5   3    0.37    0.15
  -1   5  -3    0.36    0.14
   1   5   3    0.37    0.10
   1   5   3    0.36    0.11
  -1   5  -3    0.86    0.12
   1   5   3    0.28    0.12
  -1   5  -3    0.75    0.16
   1   5   3    0.57    0.14
   2  -5   3   37.33    3.47
  -2  -5  -3   37.17    3.33
   2  -5   3   36.93    3.37
  -2  -5  -3   38.81    3.53
   2  -5   3   37.88    3.32
   2  -5   3   37.33    3.40
   2  -5   3   43.29    3.66
  -2  -5  -3   32.12    3.29
   2   5   3   35.80    3.63
  -2   5  -3   40.70    3.45
   2   5   3   33.55    3.46
  -2   5  -3   43.72    3.37
   2   5   3   38.51    4.09
  -2   5  -3   41.13    3.30
  -3  -5  -3   29.90    3.01
   3  -5   3   35.45    3.40
   3  -5   3   33.55    2.96
   3  -5   3   32.27    2.87
  -3  -5  -3   30.08    2.85
   3  -5   3   32.62    3.12
   3  -5   3   33.23    2.88
  -3  -5  -3   30.28    2.99
   3   5   3   32.84    3.29
   3   5   3   27.82    3.08
  -3   5  -3   35.92    3.03
  -3   5  -3   34.34    2.91
   3   5   3   31.87    2.98
   3   5   3   29.12    3.23
  -4  -5  -3    5.05    0.67
  -4  -5  -3    6.32    0.62
  -4  -5  -3    6.58    0.63
   4  -5   3    7.50    0.61
   4  -5   3    6.72    0.61
   4  -5   3    6.39    0.59
   4  -5   3    6.57    0.66
  -4  -5  -3    5.31    0.59
  -4  -5  -3    6.54    0.59
   4  -5   3    6.47    0.57
  -4   5  -3    7.31    0.62
   4   5   3    5.61    0.62
   4   5   3    5.99    0.66
   4   5   3    6.22    0.65
   5  -5   3    2.04    0.23
  -5  -5  -3    1.82    0.21
   5  -5   3    2.17    0.20
  -5  -5  -3    2.11    0.26
   5  -5   3    1.54    0.24
  -5  -5  -3    2.08    0.43
  -5  -5  -3    1.49    0.23
   5  -5   3    1.92    0.24
   5   5   3    2.13    0.40
   5   5   3    1.51    0.42
  -5   5  -3    1.97    0.26
   6  -5   3    0.13    0.09
   6  -5   3    0.10    0.08
   6  -5   3    0.20    0.18
  -6  -5  -3    0.07    0.21
  -6  -5  -3   -0.20    0.13
  -6  -5  -3    0.05    0.15
  -6  -5  -3    0.06    0.19
   6  -5   3   -0.03    0.17
   6  -5   3   -0.08    0.17
   6   5   3    0.09    0.20
  -6   5  -3   -0.09    0.11
  -6   5  -3    0.12    0.24
   6   5   3    0.48    0.32
   7  -5   3    0.67    0.21
   7  -5   3    0.57    0.28
  -7  -5  -3    0.66    0.22
  -7  -5  -3    0.84    0.20
   7   5   3    1.29    0.29
  -7   5  -3    0.86    0.17
   7   5   3    1.33    0.33
  -7   5  -3    0.94    0.21
  -8  -5  -3    3.56    0.40
   8  -5   3    2.83    0.47
   8  -5   3    3.85    0.44
  -8  -5  -3    3.84    0.43
  -8   5  -3    4.35    0.50
  -8   5  -3    3.75    0.42
   8   5   3    2.82    0.50
   8   5   3    3.63    0.47
   9  -5   3    0.25    0.28
  -9  -5  -3    0.15    0.28
   9  -5   3   -0.03    0.31
  -9   5  -3    0.22    0.32
  -9   5  -3    0.21    0.23
   9   5   3   -0.27    0.42
   9   5   3   -0.47    0.31
 -10  -5  -3    0.91    0.41
  10  -5   3    0.31    0.50
  10  -5   3    0.54    0.36
  10   5   3   -0.08    0.60
 -10   5  -3    0.72    0.42
 -10  -6   3    0.12    0.30
  10  -6  -3   -0.27    0.33
 -10   6   3    0.30    0.38
  10   6  -3   -0.62    0.50
  -9  -6   3    1.14    0.38
  -9  -6   3    0.20    0.26
   9  -6  -3    0.25    0.27
   9   6  -3    0.38    0.44
  -9   6   3   -0.17    0.29
  -9   6   3   -0.11    0.33
  -8  -6   3    1.64    0.26
   8  -6  -3    1.65    0.30
  -8  -6   3    1.94    0.29
  -8   6   3    1.73    0.32
   8   6  -3    2.12    0.42
  -8   6   3    1.99    0.26
   7  -6  -3    1.73    0.29
  -7  -6   3    1.77    0.28
  -7  -6   3    1.35    0.25
  -7   6   3    1.53    0.27
   7   6  -3    1.99    0.23
  -7   6   3    1.39    0.21
   7   6  -3    2.22    0.36
  -6  -6   3   25.07    2.19
  -6  -6   3   22.53    2.36
   6  -6  -3   21.19    2.13
  -6  -6   3   24.88    2.14
   6  -6  -3   24.45    2.30
  -6   6   3   23.61    2.18
  -6   6   3   24.68    3.43
   6   6  -3   24.29    2.28
   6   6  -3   23.31    2.40
   5  -6  -3    0.64    0.16
  -5  -6   3    0.60    0.17
   5  -6  -3    0.73    0.12
  -5  -6   3    0.62    0.14
  -5  -6   3    0.58    0.18
   5  -6  -3    0.56    0.08
  -5   6   3    0.63    0.11
   5   6  -3    0.85    0.23
  -5   6   3    0.67    0.22
   5   6  -3    0.84    0.16
   5   6  -3    0.11    0.24
   5   6  -3    0.39    0.14
  -5   6   3    0.62    0.11
   4  -6  -3    9.51    0.88
  -4  -6   3    8.95    0.84
  -4  -6   3    9.52    0.86
   4  -6  -3   10.19    0.93
  -4  -6   3   10.02    0.88
   4   6  -3   10.29    0.97
   4   6  -3   10.34    0.89
  -4   6   3    9.04    0.85
  -4   6   3    9.91    0.98
   4   6  -3    9.32    0.92
   4   6  -3   10.17    0.97
   4   6  -3    8.16    0.90
  -4   6   3    9.21    0.87
   3  -6  -3   29.96    2.80
  -3  -6   3   29.50    2.72
  -3  -6   3   33.21    3.03
  -3  -6   3   29.16    2.74
  -3  -6   3   31.79    2.75
   3   6  -3   29.55    3.46
  -3   6   3   32.00    2.95
   3   6  -3   32.61    2.86
  -3   6   3   28.45    2.85
   3   6  -3   29.85    3.15
  -3   6   3   29.76    2.72
  -2  -6   3    5.03    0.46
  -2  -6   3    4.44    0.45
   2  -6  -3    5.93    0.47
   2  -6  -3    4.36    0.58
  -2  -6   3    6.28    0.63
  -2   6   3    5.61    0.47
  -2   6   3    4.84    0.44
   2   6  -3    5.10    0.46
  -2   6   3    4.52    0.47
   2   6  -3    5.14    0.53
   2   6  -3    4.95    0.48
  -2   6   3    4.89    0.48
   2   6  -3    4.81    0.49
   2   6  -3    4.64    0.49
  -2   6   3    4.76    0.46
   1  -6  -3    0.03    0.10
  -1  -6   3    0.27    0.14
   1  -6  -3    0.09    0.13
  -1  -6   3    0.03    0.07
  -1  -6   3    0.06    0.11
   1   6  -3    0.13    0.12
  -1   6   3    0.09    0.13
  -1   6   3    0.01    0.11
   1   6  -3   -0.02    0.10
   1   6  -3   -0.02    0.09
   1   6  -3    0.06    0.10
   1   6  -3    0.08    0.11
  -1   6   3    0.06    0.06
  -1   6   3    0.03    0.07
   0  -6   3    2.41    0.24
   0  -6   3    2.73    0.28
   0  -6  -3    2.34    0.24
   0  -6  -3    1.79    0.23
   0  -6   3    2.44    0.21
   0   6   3    1.89    0.24
   0   6  -3    2.41    0.27
   0   6   3    1.72    0.25
   0   6  -3    2.73    0.24
   0   6   3    2.10    0.22
   0   6  -3    2.81    0.24
   0   6   3    2.08    0.22
   1  -6   3   22.76    1.98
   1  -6   3   24.25    2.07
  -1  -6  -3   19.36    2.06
   1  -6   3   22.19    1.97
  -1  -6  -3   20.90    1.99
   1   6   3   23.17    2.09
  -1   6  -3   25.10    2.00
   1   6   3   21.90    2.25
   1   6   3   20.74    2.04
  -1   6  -3   28.10    2.18
   1   6   3   21.25    2.04
  -1   6  -3   23.32    2.11
   2  -6   3   17.60    1.59
  -2  -6  -3   15.92    1.59
   2  -6   3   18.82    1.60
  -2  -6  -3   17.56    1.59
   2  -6   3   18.47    1.58
   2  -6   3   18.95    1.67
  -2  -6  -3   17.53    1.59
   2  -6   3   18.52    1.64
  -2   6  -3   19.73    1.65
   2   6   3   15.65    1.63
   2   6   3   17.59    1.84
   2   6   3   16.89    1.65
  -2   6  -3   18.42    1.67
  -3  -6  -3    2.43    0.28
  -3  -6  -3    2.33    0.27
   3  -6   3    2.81    0.30
   3  -6   3    2.54    0.25
   3  -6   3    2.80    0.28
  -3  -6  -3    2.23    0.29
   3  -6   3    2.86    0.25
  -3   6  -3    3.38    0.29
   3   6   3    2.63    0.29
   3   6   3    2.41    0.31
  -3   6  -3    3.06    0.30
   3   6   3    2.04    0.29
   4  -6   3    3.16    0.32
   4  -6   3    3.57    0.30
  -4  -6  -3    2.65    0.33
  -4  -6  -3    2.80    0.28
   4  -6   3    3.23    0.34
  -4  -6  -3    3.14    0.33
  -4  -6  -3    3.19    0.33
   4  -6   3    3.33    0.29
   4   6   3    2.59    0.35
   4   6   3    2.57    0.31
   4   6   3    2.51    0.37
  -5  -6  -3   13.47    1.41
   5  -6   3   16.56    1.42
  -5  -6  -3   15.34    1.35
   5  -6   3   13.92    1.34
  -5  -6  -3   12.08    1.38
   5  -6   3   15.49    1.33
  -5  -6  -3   14.57    1.35
   5  -6   3   14.99    1.40
   5   6   3   14.86    1.44
  -5   6  -3   15.26    1.40
   5   6   3   15.87    1.53
   6  -6   3    1.52    0.24
  -6  -6  -3    1.38    0.22
  -6  -6  -3    1.40    0.28
   6  -6   3    1.86    0.27
  -6  -6  -3    1.70    0.25
   6  -6   3    2.07    0.19
   6  -6   3    2.06    0.28
   6   6   3    1.51    0.34
   6   6   3    1.72    0.34
  -6   6  -3    1.96    0.29
  -7  -6  -3    0.20    0.20
   7  -6   3    0.45    0.30
  -7  -6  -3    0.17    0.25
   7  -6   3    0.17    0.18
  -7   6  -3   -0.02    0.23
   7   6   3    0.04    0.31
  -7   6  -3    0.00    0.08
  -8  -6  -3    0.52    0.31
   8  -6   3    0.16    0.26
   8  -6   3    0.34    0.34
  -8  -6  -3    0.01    0.22
  -8   6  -3    0.07    0.16
   8   6   3   -0.07    0.46
  -8   6  -3    0.15    0.27
   8   6   3    0.31    0.32
   9  -6   3    0.57    0.32
  -9  -6  -3    0.13    0.36
   9  -6   3    0.95    0.43
   9   6   3    0.54    0.46
  -9   6  -3    0.12    0.32
   9   6   3    0.61    0.35
  10  -6   3    0.30    0.43
  10  -6   3    0.82    0.37
 -10  -7   3    0.51    0.34
  10  -7  -3    0.05    0.35
  10   7  -3    0.61    0.46
 -10   7   3    0.40    0.42
   9  -7  -3    2.08    0.40
  -9  -7   3    2.18    0.39
  -9  -7   3    1.03    0.33
   9   7  -3    2.30    0.52
  -9   7   3    1.24    0.46
   8  -7  -3    1.21    0.30
  -8  -7   3    0.30    0.22
  -8  -7   3    0.60    0.28
  -8   7   3    0.92    0.29
   8   7  -3    0.09    0.40
  -7  -7   3    0.01    0.18
  -7  -7   3    0.23    0.19
   7  -7  -3   -0.14    0.23
   7   7  -3   -0.15    0.31
  -7   7   3    0.19    0.13
   7   7  -3   -0.10    0.20
  -7   7   3   -0.12    0.26
  -6  -7   3    2.26    0.26
   6  -7  -3    1.70    0.21
  -6  -7   3    1.74    0.25
   6  -7  -3    1.94    0.26
  -6  -7   3    1.88    0.29
  -6   7   3    1.53    0.21
  -6   7   3    2.49    0.31
   6   7  -3    2.16    0.24
   6   7  -3    1.86    0.35
  -5  -7   3    6.37    0.54
  -5  -7   3    5.03    0.53
   5  -7  -3    4.93    0.53
  -5  -7   3    5.45    0.52
   5  -7  -3    6.03    0.50
   5   7  -3    5.53    0.61
  -5   7   3    4.96    0.50
   5   7  -3    5.45    0.57
  -5   7   3    6.83    0.69
   5   7  -3    5.02    0.53
  -5   7   3    5.24    0.51
   5   7  -3    6.00    0.56
   4  -7  -3    1.09    0.19
  -4  -7   3    0.79    0.13
  -4  -7   3    0.86    0.17
  -4  -7   3    0.76    0.15
   4   7  -3    0.67    0.17
  -4   7   3    0.80    0.54
  -4   7   3    0.51    0.09
   4   7  -3    0.47    0.17
   4   7  -3    0.47    0.22
  -4   7   3    0.45    0.13
   3  -7  -3   29.39    2.48
  -3  -7   3   27.55    2.41
  -3  -7   3   25.31    2.35
   3   7  -3   28.34    2.37
  -3   7   3   24.79    2.42
   3   7  -3   24.25    2.68
  -3   7   3   27.46    2.74
  -3   7   3   25.92    2.52
   3   7  -3   26.58    2.52
  -2  -7   3    3.02    0.26
  -2  -7   3    2.62    0.28
   2  -7  -3    3.17    0.28
   2   7  -3    2.27    0.28
   2   7  -3    2.04    0.31
  -2   7   3    2.83    0.31
  -2   7   3    2.69    0.25
  -2   7   3    2.37    0.26
   2   7  -3    3.21    0.28
  -2   7   3    2.53    0.24
  -2   7   3    2.20    0.27
   2   7  -3    2.54    0.28
   1  -7  -3   18.55    2.00
  -1  -7   3   19.56    1.83
   1  -7  -3   20.36    1.88
  -1  -7   3   19.63    1.82
  -1   7   3   20.52    1.98
   1   7  -3   22.84    1.83
  -1   7   3   19.40    1.81
  -1   7   3   19.10    1.87
   1   7  -3   21.82    1.88
   1   7  -3   19.90    2.03
   1   7  -3   23.31    2.34
  -1   7   3   20.64    2.17
   0  -7  -3    1.20    0.17
   0  -7   3    1.13    0.11
   0  -7   3    1.43    0.17
   0  -7  -3    0.76    0.17
   0   7  -3    1.73    0.18
   0   7  -3    1.39    0.18
   0   7   3    0.89    0.16
   0   7   3    0.69    0.13
   0   7   3    0.86    0.19
   0   7   3    1.01    0.12
   0   7  -3    1.00    0.21
   0   7  -3    1.28    0.17
  -1  -7  -3    0.21    0.14
   1  -7   3    0.34    0.05
  -1  -7  -3    0.26    0.13
   1  -7   3    0.39    0.10
   1   7   3    0.39    0.16
   1   7   3    0.21    0.13
  -1   7  -3    0.23    0.18
   1   7   3    0.23    0.10
  -1   7  -3    0.41    0.13
  -2  -7  -3    9.09    0.99
   2  -7   3   11.98    0.97
   2  -7   3   11.19    0.93
  -2  -7  -3   10.03    1.00
   2  -7   3   11.33    0.95
  -2  -7  -3    9.67    0.97
   2   7   3   10.26    0.98
   2   7   3    9.39    1.09
   2   7   3   10.86    1.14
  -2   7  -3   11.14    1.09
  -2   7  -3   12.74    1.03
  -3  -7  -3   30.09    3.09
  -3  -7  -3   34.47    3.13
   3  -7   3   38.99    3.09
   3  -7   3   36.78    3.26
  -3  -7  -3   31.23    3.08
   3  -7   3   34.76    3.27
   3  -7   3   35.62    3.12
  -3   7  -3   37.55    3.35
   3   7   3   34.99    3.40
   3   7   3   33.19    3.33
   4  -7   3   33.44    2.93
   4  -7   3   33.39    3.27
  -4  -7  -3   30.01    2.78
  -4  -7  -3   24.90    2.76
   4  -7   3   28.81    2.72
  -4  -7  -3   30.90    2.73
   4  -7   3   32.39    2.77
  -4   7  -3   34.90    2.82
   4   7   3   27.09    3.23
   4   7   3   28.95    3.18
  -5  -7  -3    0.60    0.20
   5  -7   3    0.48    0.22
   5  -7   3    0.39    0.18
  -5  -7  -3    0.55    0.10
   5  -7   3    0.54    0.12
  -5  -7  -3    0.41    0.17
   5  -7   3    0.53    0.12
   5   7   3    0.38    0.25
   5   7   3    0.74    0.34
   5   7   3    0.29    0.19
  -5   7  -3    0.24    0.21
  -6  -7  -3    0.80    0.25
  -6  -7  -3    1.10    0.23
   6  -7   3    0.85    0.14
   6  -7   3    0.65    0.27
   6  -7   3    0.59    0.19
   6   7   3    0.28    0.38
  -6   7  -3    0.77    0.24
   6   7   3    0.88    0.32
   7  -7   3    1.36    0.28
  -7  -7  -3    1.05    0.27
  -7  -7  -3    1.42    0.27
   7  -7   3    1.18    0.34
   7   7   3    1.30    0.31
  -7   7  -3    1.86    0.31
   7   7   3    0.90    0.44
  -8  -7  -3    0.09    0.25
   8  -7   3    0.29    0.23
  -8  -7  -3    0.00    0.32
   8  -7   3   -0.07    0.36
   8   7   3    0.98    0.51
   8   7   3    0.39    0.35
  -8   7  -3    0.15    0.25
   9  -7   3    0.40    0.36
  -9  -7  -3    0.78    0.39
   9  -7   3    0.67    0.35
  -9  -7  -3    0.08    0.36
  -9   7  -3    1.18    0.39
   9   7   3    0.05    0.59
  10  -8  -3   -0.30    0.54
 -10  -8   3    0.07    0.42
 -10   8   3    0.36    0.53
  10   8  -3   -0.18    0.47
  -9  -8   3    0.05    0.34
  -9  -8   3    0.25    0.29
   9  -8  -3    0.18    0.34
   9   8  -3    1.08    0.49
  -9   8   3    0.04    0.37
   8  -8  -3    0.25    0.25
  -8  -8   3    0.44    0.31
  -8  -8   3   -0.07    0.30
  -8   8   3    0.35    0.37
   8   8  -3   -0.23    0.43
  -7  -8   3    1.81    0.26
   7  -8  -3    1.51    0.28
  -7  -8   3    1.43    0.27
   7   8  -3    1.30    0.39
  -7   8   3    1.46    0.31
   7   8  -3    1.40    0.26
  -6  -8   3    0.96    0.21
  -6  -8   3    0.83    0.23
   6  -8  -3    1.07    0.22
  -6  -8   3    1.25    0.23
   6   8  -3    0.73    0.36
  -6   8   3    1.06    0.28
   6   8  -3    0.65    0.29
   6   8  -3    1.42    0.22
   5  -8  -3    1.32    0.22
  -5  -8   3    1.91    0.22
  -5  -8   3    2.03    0.25
   5  -8  -3    2.19    0.20
  -5  -8   3    1.35    0.25
   5   8  -3    1.66    0.32
  -5   8   3    1.45    0.17
   5   8  -3    2.16    0.34
   5   8  -3    1.67    0.24
  -5   8   3    1.57    0.30
   5   8  -3    2.10    0.29
  -4  -8   3    4.77    0.50
   4  -8  -3    5.18    0.46
  -4  -8   3    4.67    0.46
   4   8  -3    4.37    0.52
  -4   8   3    6.03    0.53
   4   8  -3    4.97    0.48
   4   8  -3    5.55    0.52
  -4   8   3    4.36    0.45
  -3  -8   3    9.73    1.07
  -3  -8   3    7.95    0.71
   3  -8  -3    8.40    0.70
  -3   8   3    7.10    0.75
  -3   8   3    7.01    0.69
   3   8  -3    6.98    0.79
   3   8  -3    7.64    0.74
   3   8  -3    8.09    0.69
  -3   8   3    7.41    0.70
  -3   8   3    7.29    0.67
  -2  -8   3    5.30    0.49
   2  -8  -3    5.03    0.47
  -2  -8   3    5.81    0.46
   2   8  -3    4.25    0.51
  -2   8   3    5.49    0.50
   2   8  -3    5.50    0.48
  -2   8   3    4.50    0.45
   2   8  -3    4.55    0.48
  -2   8   3    4.64    0.44
  -2   8   3    5.02    0.51
   2   8  -3    3.93    0.51
  -2   8   3    5.08    0.46
   1  -8  -3   32.38    3.09
  -1  -8   3   32.52    2.88
  -1  -8   3   30.85    2.92
   1   8  -3   35.52    3.02
  -1   8   3   28.93    2.96
   1   8  -3   36.58    3.06
  -1   8   3   31.61    3.00
  -1   8   3   31.37    3.10
   1   8  -3   32.11    3.51
   0  -8   3    1.54    0.14
   0  -8   3    1.23    0.20
   0  -8  -3    1.96    0.21
   0   8   3    0.94    0.15
   0   8  -3    1.26    0.26
   0   8   3    1.14    0.14
   0   8  -3    1.89    0.23
   0   8   3    1.38    0.24
   1  -8   3    0.90    0.17
  -1  -8  -3    0.33    0.19
   1  -8   3    1.09    0.09
  -1  -8  -3    0.92    0.18
   1  -8   3    0.86    0.08
  -1   8  -3    0.76    0.23
   1   8   3    0.46    0.21
   1   8   3    0.66    0.18
  -1   8  -3    0.75    0.25
   1   8   3    0.46    0.14
   2  -8   3   -0.02    0.13
  -2  -8  -3    0.40    0.12
  -2  -8  -3    0.36    0.17
  -2  -8  -3    0.34    0.17
   2   8   3    0.09    0.15
  -2   8  -3    0.33    0.17
   2   8   3    0.50    0.22
   2   8   3    0.14    0.17
  -3  -8  -3   16.20    1.63
  -3  -8  -3   15.89    1.50
   3  -8   3   16.54    1.54
   3   8   3   15.75    1.61
  -3   8  -3   18.96    1.86
   3   8   3   16.48    1.76
  -4  -8  -3    0.12    0.20
   4  -8   3    0.16    0.06
   4  -8   3   -0.01    0.13
   4  -8   3    0.09    0.20
  -4  -8  -3   -0.06    0.14
   4   8   3    0.04    0.21
  -4   8  -3    0.21    0.22
   4   8   3    0.03    0.25
  -5  -8  -3    8.51    0.82
  -5  -8  -3    8.39    0.84
   5  -8   3    9.03    0.88
   5  -8   3    9.92    0.85
   5   8   3    8.22    0.92
   5   8   3    8.75    0.89
  -5   8  -3    9.32    0.91
   5   8   3    7.99    0.87
   6  -8   3    0.07    0.15
   6  -8   3    0.36    0.23
  -6  -8  -3    0.05    0.24
  -6  -8  -3    0.37    0.21
   6   8   3    0.21    0.35
  -6   8  -3    0.05    0.25
   6   8   3   -0.04    0.28
  -7  -8  -3    1.58    0.32
   7  -8   3    1.78    0.38
  -7  -8  -3    2.12    0.31
   7   8   3    1.53    0.36
   7   8   3    0.64    0.41
  -7   8  -3    2.00    0.36
   8  -8   3    0.17    0.38
  -8  -8  -3   -0.14    0.29
   8  -8   3   -0.01    0.20
  -8  -8  -3   -0.04    0.33
   8   8   3    0.32    0.53
  -8   8  -3    0.28    0.31
   8   8   3    1.18    0.40
   9  -8   3    0.70    0.48
  -9  -8  -3    0.93    0.35
  -9  -8  -3    0.67    0.41
   9   8   3    0.17    0.63
  -9   8  -3    1.07    0.44
   9  -9  -3   -0.20    0.36
  -9  -9   3   -0.16    0.31
  -9  -9   3   -0.33    0.29
   9   9  -3    0.23    0.53
  -9   9   3    0.11    0.38
  -8  -9   3    1.46    0.34
  -8  -9   3    2.31    0.37
   8  -9  -3    1.16    0.31
  -8   9   3    1.41    0.44
   8   9  -3    1.65    0.42
  -7  -9   3    0.45    0.28
   7  -9  -3    0.74    0.31
  -7  -9   3    0.47    0.26
  -7   9   3    0.34    0.34
   7   9  -3    0.66    0.26
   7   9  -3    0.11    0.40
  -6  -9   3    5.86    0.59
  -6  -9   3    4.97    0.60
   6  -9  -3    5.70    0.65
   6   9  -3    6.62    0.73
  -6   9   3    7.57    0.74
   6   9  -3    5.85    0.62
   6   9  -3    6.51    0.67
  -5  -9   3    0.89    0.23
   5  -9  -3    0.63    0.16
  -5  -9   3    0.87    0.20
   5   9  -3    0.54    0.19
  -5   9   3    0.69    0.24
   5   9  -3    0.96    0.24
   5   9  -3    0.35    0.29
   5   9  -3    0.59    0.33
   4  -9  -3    1.29    0.21
  -4  -9   3    1.99    1.93
  -4  -9   3    0.95    0.23
   4   9  -3    1.33    0.30
  -4   9   3    0.56    0.22
   4   9  -3    1.07    0.20
   4   9  -3    1.78    0.26
   3  -9  -3    0.17    0.19
  -3  -9   3    0.91    0.20
  -3  -9   3    0.11    0.12
   3   9  -3    0.42    0.18
   3   9  -3   -0.19    0.30
  -3   9   3   -0.14    0.12
   3   9  -3    0.04    0.15
  -3   9   3    0.24    0.22
  -2  -9   3    2.60    0.29
   2  -9  -3    2.29    0.29
  -2   9   3    1.90    0.30
  -2   9   3    1.87    0.19
  -2   9   3    1.91    0.19
   2   9  -3    1.75    0.30
   2   9  -3    2.52    0.24
  -2   9   3    1.68    0.23
   2   9  -3    2.02    0.25
   1  -9  -3    3.45    0.34
  -1  -9   3    2.57    0.32
  -1  -9   3    3.18    0.29
   1   9  -3    3.37    0.32
   1   9  -3    2.69    0.31
  -1   9   3    2.88    0.30
   1   9  -3    2.74    0.38
  -1   9   3    3.54    0.37
  -1   9   3    2.61    0.28
   0  -9   3   30.36    2.65
   0  -9   3   29.26    2.61
   0  -9  -3   27.86    2.81
   0   9  -3   30.76    2.98
   0   9   3   25.83    2.75
   0   9   3   30.91    2.66
   0   9   3   30.03    2.71
   1  -9   3    4.34    0.41
  -1  -9  -3    3.87    0.42
  -1   9  -3    4.65    0.45
   1   9   3    3.26    0.40
   1   9   3    4.24    0.46
   1   9   3    3.79    0.44
  -2  -9  -3   40.20    4.02
  -2  -9  -3   44.11    3.95
   2  -9   3   48.14    4.29
   2   9   3   40.20    4.50
  -2   9  -3   49.39    4.43
   2   9   3   45.55    4.28
   2   9   3   49.67    4.72
  -3  -9  -3   -0.04    1.60
   3  -9   3    0.08    0.13
  -3  -9  -3    0.26    0.21
  -3   9  -3    0.16    0.23
   3   9   3   -0.05    0.27
   3   9   3   -0.02    0.20
  -4  -9  -3   14.46    1.34
   4  -9   3   16.44    1.41
  -4  -9  -3   14.46    1.35
  -4   9  -3   15.66    1.55
   4   9   3   12.72    1.38
   4   9   3   15.43    1.47
  -5  -9  -3    1.44    0.30
   5  -9   3    1.59    0.21
  -5  -9  -3    1.55    0.28
   5  -9   3    1.31    0.33
   5   9   3    1.47    0.30
   5   9   3    1.59    0.36
   5   9   3    1.24    0.45
  -5   9  -3    2.14    0.34
   6  -9   3    1.06    0.29
  -6  -9  -3    1.35    0.31
  -6  -9  -3    1.49    0.32
  -6   9  -3    1.87    0.34
   6   9   3    1.04    0.41
   6   9   3    1.40    0.35
   7  -9   3   -0.52    0.35
  -7  -9  -3    0.10    0.30
  -7  -9  -3    0.23    0.30
  -7   9  -3   -0.10    0.31
   7   9   3   -0.27    0.33
   7   9   3    0.23    0.52
   8  -9   3    1.91    0.41
  -8  -9  -3    2.46    0.42
  -8  -9  -3    1.90    0.37
   8   9   3    1.89    0.64
   8   9   3    2.51    0.50
  -8   9  -3    2.57    0.46
  -9 -10   3   -0.26    0.34
  -9 -10   3   -0.35    0.32
   9 -10  -3    0.03    0.42
  -9  10   3    0.10    0.41
  -8 -10   3    0.86    0.29
  -8 -10   3    0.16    0.32
   8 -10  -3    1.24    0.34
   8  10  -3    0.51    0.50
  -8  10   3    0.61    0.40
  -7 -10   3    0.19    0.29
  -7 -10   3   -0.09    0.22
   7  10  -3   -0.07    0.27
  -7  10   3    0.25    0.28
   7  10  -3    0.58    0.44
  -6 -10   3    2.48    0.39
  -6 -10   3    2.88    0.36
  -6  10   3    2.61    0.47
   6  10  -3    1.92    0.47
   6  10  -3    2.14    0.45
   6  10  -3    3.59    0.39
  -5 -10   3    0.91    0.26
   5 -10  -3    0.96    0.17
  -5 -10   3    0.55    0.21
   5  10  -3    0.19    0.33
   5  10  -3   -0.05    0.35
  -5  10   3    0.41    0.24
   5  10  -3    0.51    0.26
  -4 -10   3    1.07    0.20
  -4 -10   3    0.84    0.25
   4 -10  -3    1.16    0.24
   4  10  -3    0.51    0.27
  -4  10   3    0.73    0.30
   4  10  -3    0.99    0.31
   4  10  -3    1.50    0.29
   3 -10  -3    8.08    0.73
  -3 -10   3    7.04    0.67
  -3 -10   3    6.59    0.70
  -3  10   3    7.85    0.78
   3  10  -3    7.71    0.80
   3  10  -3    7.31    0.68
  -2 -10   3    0.62    0.14
  -2 -10   3    0.60    0.23
   2 -10  -3    0.59    0.25
   2  10  -3    0.58    0.19
   2  10  -3    0.34    0.19
   2  10  -3    0.33    0.24
  -2  10   3    0.19    0.15
  -2  10   3    0.88    0.27
  -1 -10   3    4.88    0.49
  -1 -10   3    5.25    0.45
   1 -10  -3    5.02    0.50
  -1  10   3    3.60    0.50
   1  10  -3    5.13    0.48
   1  10  -3    4.40    0.51
  -1  10   3    5.28    0.55
   1  10  -3    5.31    0.55
   0 -10   3    3.27    0.39
   0 -10  -3    3.61    0.41
   0 -10   3    4.25    0.34
   0  10  -3    3.85    0.40
   0  10  -3    3.53    0.47
   0  10   3    3.41    0.45
   1 -10   3    3.08    0.35
  -1 -10  -3    2.93    0.36
   1  10   3    2.11    0.31
   1  10   3    3.50    0.42
   1  10   3    3.41    0.41
  -1  10  -3    3.36    0.41
  -2 -10  -3   -0.19    0.22
   2 -10   3    0.30    0.19
  -2  10  -3    0.33    0.36
   2  10   3   -0.16    0.28
   2  10   3    0.21    0.30
  -3 -10  -3    1.06    0.22
   3 -10   3    1.45    0.22
  -3 -10  -3    1.58    0.29
   3  10   3    1.05    0.33
  -3  10  -3    1.76    0.29
   3  10   3    1.05    0.35
   4 -10   3    0.77    0.20
  -4 -10  -3    0.55    0.27
  -4 -10  -3    0.57    0.22
   4  10   3    0.28    0.25
  -4  10  -3    0.75    0.29
   4  10   3    0.63    0.25
  -5 -10  -3    1.83    0.32
   5 -10   3    2.25    0.27
  -5 -10  -3    1.82    0.35
   5  10   3    2.03    0.41
   5  10   3    1.26    0.33
  -5  10  -3    2.15    0.37
   6 -10   3   -0.19    0.30
  -6 -10  -3   -0.33    0.28
  -6 -10  -3   -0.11    0.31
   6  10   3    0.06    0.36
   6  10   3   -0.21    0.48
   6  10   3    0.17    0.29
  -6  10  -3   -0.16    0.32
  -7 -10  -3    0.20    0.33
   7 -10   3    0.95    0.40
  -7 -10  -3    0.21    0.33
   7  10   3    0.01    0.56
   7  10   3    0.01    0.46
  -7  10  -3    0.70    0.36
  -8 -10  -3   -0.11    0.37
  -8 -10  -3   -0.11    0.38
   8 -10   3    0.07    0.46
   8  10   3    0.02    0.67
  -8  10  -3    0.49    0.45
  -8 -11   3   -0.15    0.36
  -8 -11   3   -0.06    0.36
  -8  11   3    0.18    0.36
   8  11  -3   -0.04    0.54
  -7 -11   3    0.00    0.29
  -7 -11   3    0.09    0.32
  -7  11   3    0.19    0.30
   7  11  -3    1.16    0.50
   7  11  -3    1.07    0.45
  -6 -11   3    0.04    0.30
  -6 -11   3    0.21    0.26
   6  11  -3   -0.40    0.38
  -6  11   3   -0.04    0.33
   6  11  -3    0.75    0.38
   6  11  -3    0.17    0.43
  -5 -11   3    2.60    0.46
   5 -11  -3    3.64    0.37
  -5 -11   3    2.77    0.37
  -5  11   3    2.86    0.43
   5  11  -3    2.74    0.49
   5  11  -3    3.86    0.52
   5  11  -3    2.97    0.42
  -4 -11   3    8.82    0.81
   4 -11  -3    9.51    0.90
  -4 -11   3    8.42    0.85
   4  11  -3    9.16    0.86
   4  11  -3    8.24    0.90
  -4  11   3    8.31    0.93
   3 -11  -3    7.68    0.78
  -3 -11   3    8.59    0.72
  -3 -11   3    7.33    0.74
  -3  11   3    7.25    0.77
   3  11  -3    7.57    0.80
   2 -11  -3    2.25    0.31
  -2 -11   3    2.16    0.32
  -2 -11   3    2.12    0.25
   2  11  -3    2.23    0.28
   2  11  -3    1.94    0.36
  -2  11   3    2.15    0.37
  -1 -11   3    2.62    0.33
   1 -11  -3    2.14    0.37
  -1 -11   3    2.69    0.26
  -1  11   3    2.36    0.39
   1  11  -3    2.69    0.43
   1  11  -3    2.22    0.33
   0 -11   3    3.01    0.35
   0 -11   3    3.45    0.27
   0 -11  -3    2.64    0.38
   0  11  -3    2.81    0.35
   0  11  -3    2.89    0.41
   0  11   3    1.93    0.39
   1 -11   3    1.31    0.23
  -1 -11  -3    0.55    0.26
   1  11   3    0.89    0.35
   1  11   3    1.25    0.36
  -1  11  -3    1.06    0.34
  -2 -11  -3    0.00    0.26
   2 -11   3    0.27    0.19
   2  11   3   -0.05    0.34
   2  11   3    0.41    0.36
  -2  11  -3   -0.11    0.29
  -3 -11  -3   -0.21    0.16
   3 -11   3    0.33    0.23
  -3 -11  -3    0.02    0.26
  -3  11  -3   -0.11    0.29
   3  11   3   -0.13    0.34
   3  11   3   -0.36    0.37
   4 -11   3    0.24    0.23
  -4 -11  -3    0.16    0.29
  -4 -11  -3    0.40    0.26
   4  11   3    0.61    0.37
  -4  11  -3    0.54    0.27
   4  11   3    0.64    0.39
  -5 -11  -3    3.88    0.48
  -5 -11  -3    3.14    0.42
   5  11   3    3.08    0.53
  -5  11  -3    3.69    0.49
  -6 -11  -3   -0.27    0.35
  -6 -11  -3   -0.13    0.29
  -6  11  -3   -0.02    0.36
   6  11   3    0.34    0.55
   6  11   3   -0.67    0.41
  -7 -11  -3    0.08    0.35
  -7 -11  -3    0.02    0.40
  -7  11  -3   -0.07    0.42
   7  11   3   -0.07    0.42
   7  11   3   -0.06    0.63
  -7 -12   3    0.13    0.37
  -7 -12   3    0.19    0.32
   7  12  -3    1.91    0.63
   7  12  -3    0.49    0.54
  -7  12   3   -0.02    0.43
  -6 -12   3   -0.04    0.33
  -6 -12   3    0.21    0.28
   6  12  -3    0.12    0.43
  -6  12   3    0.17    0.41
   6  12  -3   -0.14    0.46
  -5 -12   3    1.52    0.28
  -5 -12   3    0.44    0.34
   5  12  -3    0.61    0.51
  -5  12   3    0.82    0.38
   5  12  -3    1.87    0.37
  -4 -12   3    2.01    0.28
   4 -12  -3    2.42    0.31
  -4 -12   3    2.10    0.36
  -4  12   3    1.99    0.43
   4  12  -3    1.19    0.43
   4  12  -3    1.24    0.41
  -3 -12   3    0.74    0.29
  -3 -12   3    1.41    0.23
   3 -12  -3    1.37    0.28
   3  12  -3    1.13    0.40
  -3  12   3    0.73    0.36
   2 -12  -3   13.01    1.24
  -2 -12   3   13.07    1.25
  -2 -12   3   13.98    1.22
  -2  12   3   13.66    1.31
   2  12  -3   13.12    1.35
   1 -12  -3    6.44    0.66
  -1 -12   3    5.66    0.67
   1  12  -3    7.79    0.75
  -1  12   3    6.50    0.69
   0 -12   3    1.47    0.29
   0 -12  -3    1.61    0.32
   0  12  -3    1.90    0.42
   0  12   3    1.35    0.40
   0  12  -3    1.59    0.30
   1 -12   3    2.42    0.32
  -1 -12  -3    2.03    0.36
   1  12   3    2.56    0.48
   1  12   3    1.90    0.39
  -1  12  -3    2.46    0.45
   2 -12   3    0.21    0.27
  -2 -12  -3   -0.17    0.28
  -2  12  -3    0.36    0.28
   2  12   3    0.34    0.41
   2  12   3    0.75    0.41
  -3 -12  -3    0.86    0.32
   3 -12   3    0.71    0.23
  -3  12  -3    0.87    0.30
   3  12   3    0.29    0.42
   3  12   3    0.65    0.44
   4 -12   3   -0.26    0.26
  -4 -12  -3    0.10    0.32
  -4 -12  -3    0.03    0.24
   4  12   3   -0.47    0.34
   4  12   3   -0.29    0.43
  -4  12  -3    0.43    0.35
  -5 -12  -3    2.10    0.36
  -5 -12  -3    1.85    0.43
  -5  12  -3    2.71    0.40
   5  12   3    1.74    0.50
   5  12   3    1.99    0.51
  -6 -12  -3   -0.14    0.40
  -6 -12  -3   -0.16    0.39
   6  12   3   -0.84    0.44
  -6  12  -3    0.20    0.31
   6  12   3   -0.31    0.51
  -6 -13   3    0.61    0.30
  -6 -13   3    0.79    0.39
   6  13  -3    0.93    0.55
   6  13  -3    0.34    0.51
  -6  13   3    0.34    0.46
  -5 -13   3    0.10    0.24
  -5 -13   3   -0.17    0.34
   5  13  -3    0.23    0.39
   5  13  -3    0.06    0.43
  -5  13   3    0.17    0.36
   4 -13  -3    0.75    0.33
  -4 -13   3    0.52    0.34
   4  13  -3    0.77    0.44
   4  13  -3    0.79    0.42
  -4  13   3    0.24    0.53
   3 -13  -3   -0.15    0.27
  -3 -13   3   -0.33    0.30
   3  13  -3   -0.42    0.40
  -3  13   3    0.03    0.37
  -2 -13   3   -0.15    0.28
   2 -13  -3   -0.05    0.28
   2  13  -3    0.02    0.35
  -2  13   3   -0.01    0.36
   1 -13  -3    1.18    0.30
  -1 -13   3    0.12    0.27
   1  13  -3    0.80    0.39
  -1  13   3    0.20    0.39
   0 -13   3    0.87    0.28
   0 -13  -3    0.95    0.32
   0  13  -3    0.81    0.43
   0  13   3    0.36    0.42
  -1 -13  -3    0.09    0.31
   1 -13   3    0.10    0.25
  -1  13  -3    0.07    0.34
   1  13   3    0.30    0.34
   1  13   3    0.02    0.41
   2 -13   3   10.52    1.02
  -2 -13  -3    8.93    1.03
   2  13   3   10.16    1.11
  -2  13  -3   11.58    1.03
   2  13   3   10.49    1.09
  -3 -13  -3    0.63    0.35
   3 -13   3   -0.11    0.31
   3  13   3   -0.14    0.48
   3  13   3   -0.11    0.39
  -3  13  -3    0.36    0.39
   4 -13   3    5.31    0.55
  -4 -13  -3    3.57    0.55
  -4  13  -3    4.23    0.59
   4  13   3    3.53    0.58
   4  13   3    3.81    0.55
  -5 -13  -3    0.10    0.27
  -5 -13  -3    0.08    0.42
   5  13   3    0.12    0.50
  -5  13  -3    0.09    0.40
  -5 -14   3   -0.03    0.91
  -5  14   3   -0.54    0.45
   5  14  -3    0.16    0.50
  -4 -14   3   -0.02    0.35
  -4  14   3    0.27    0.36
   4  14  -3    0.13    0.47
   4  14  -3    0.11    0.47
  -3 -14   3    1.27    0.38
   3 -14  -3    1.72    0.37
  -3  14   3    1.24    0.47
   3  14  -3    3.74    1.47
   2 -14  -3    1.42    0.36
  -2 -14   3    0.49    0.43
  -2  14   3    0.79    0.46
   2  14  -3    1.14    0.43
   1 -14  -3    0.91    0.35
  -1 -14   3    0.09    0.32
  -1  14   3    0.17    0.44
   1  14  -3    0.45    0.42
   0 -14  -3    1.49    0.39
   0 -14   3    1.32    0.41
   0  14   3    1.99    0.53
   0  14  -3    1.75    0.52
  -1 -14  -3    0.22    0.35
   1 -14   3    0.03    0.30
  -1  14  -3    0.79    0.40
   1  14   3    0.57    0.49
   1  14   3   -0.44    0.38
   2 -14   3    4.20    0.53
  -2 -14  -3    3.01    0.52
   2  14   3    2.78    0.64
   2  14   3    3.96    0.70
  -2  14  -3    4.77    0.58
  -3 -14  -3    0.53    0.40
   3 -14   3    0.79    0.37
   3  14   3    0.88    0.47
   3  14   3    0.81    0.55
  -3  14  -3    0.51    0.44
  -4 -14  -3    0.93    1.23
  -4  14  -3    1.37    0.49
   4  14   3    0.41    0.40
   4  14   3    0.18    0.45
   3 -15  -3    1.97    0.50
  -3 -15   3    1.62    0.41
  -3  15   3    1.07    0.53
   3  15  -3    0.89    0.68
  -2 -15   3   -0.28    0.35
   2 -15  -3    0.14    0.37
   2  15  -3   -0.59    0.46
  -2  15   3    0.17    0.51
  -1 -15   3    0.51    0.36
   1 -15  -3    1.32    0.41
   1  15  -3    0.46    0.56
  -1  15   3    0.13    0.53
   0 -15  -3    1.24    0.41
   0 -15   3    0.55    0.35
   0  15  -3    0.57    0.44
   0  15   3    0.52    0.56
  -1 -15  -3    0.79    0.42
   1 -15   3   -0.57    0.42
   1  15   3    0.33    0.47
   1  15   3    0.35    0.56
  -1  15  -3    0.38    0.44
  -2 -15  -3    0.03    0.43
   2 -15   3    1.16    0.42
   2  15   3    0.84    0.65
  -2  15  -3    0.18    0.42
   2  15   3   -0.01    0.57
  11   0  -4   -0.28    0.45
 -11   0   4   -0.16    0.29
  10   0  -4    0.41    0.38
 -10   0   4    0.15    0.24
  -9   0   4    0.12    0.23
   9   0  -4   -0.27    0.29
  -8   0   4   -0.02    0.09
   8   0  -4    0.25    0.20
  -8   0   4    0.13    0.16
   8   0  -4    0.03    0.06
   7   0  -4   -0.01    0.04
  -7   0   4   -0.08    0.10
  -7   0   4    0.08    0.13
  -7   0   4   -0.09    0.07
   7   0  -4    0.19    0.20
  -6   0   4   53.21    4.93
  -6   0   4   60.73    4.98
   6   0  -4   55.88    5.64
  -6   0   4   57.78    5.06
  -5   0   4   -0.03    0.11
   5   0  -4   -0.05    0.11
  -5   0   4    0.17    0.13
   5   0  -4   -0.13    0.12
  -5   0   4    0.00    0.06
  -5   0   4    0.16    0.12
  -5   0   4   -0.06    0.06
  -4   0   4    0.23    0.06
   4   0  -4    0.52    0.10
  -4   0   4    0.42    0.10
   4   0  -4    0.37    0.12
  -4   0   4    0.32    0.09
  -4   0   4    0.36    0.11
  -4   0   4    0.18    0.05
   4   0  -4    0.30    0.11
  -3   0   4    3.41    0.77
  -2   0   4  113.07   10.92
  -2   0   4  124.23   10.91
  -2   0   4  157.60   12.90
   2   0  -4  122.73   11.37
   2   0  -4  139.61   14.48
  -2   0   4  145.01   11.52
   2   0  -4  112.46   10.94
  -1   0   4   -0.13    0.03
   1   0  -4   -0.19    0.04
  -1   0   4   -0.17    0.04
  -1   0   4   -0.16    0.04
   1   0  -4   -0.15    0.02
  -1   0   4   -0.18    0.05
  -1   0   4   -0.23    0.06
   1   0  -4   -0.28    0.06
   0   0  -4   14.97    1.56
   0   0   4   20.55    1.86
   0   0   4   18.57    1.66
   0   0  -4   19.40    2.03
   1   0   4   -0.18    0.07
   1   0   4   -0.03    0.03
  -1   0  -4   -0.05    0.03
   1   0   4   -0.17    0.07
  -1   0  -4   -0.04    0.07
  -2   0  -4    0.16    0.09
  -2   0  -4    0.16    0.08
   2   0   4    0.31    0.09
   2   0   4    0.34    0.11
   2   0   4    0.24    0.07
   2   0   4    0.28    0.09
  -2   0  -4    0.23    0.05
   3   0   4    0.01    0.10
  -3   0  -4    0.09    0.10
  -3   0  -4   -0.01    0.08
  -3   0  -4    0.02    0.05
   3   0   4   -0.19    0.10
   3   0   4    0.00    0.07
   3   0   4   -0.06    0.09
  -3   0  -4    0.02    0.09
  -4   0  -4    0.69    0.15
  -4   0  -4    0.80    0.14
   4   0   4    0.90    0.16
   4   0   4    0.93    0.13
   4   0   4    0.82    0.19
  -4   0  -4    0.58    0.16
   4   0   4    0.78    0.14
  -4   0  -4    0.76    0.11
  -5   0  -4    0.08    0.12
   5   0   4   -0.03    0.10
   5   0   4   -0.21    0.16
   5   0   4   -0.25    0.15
  -5   0  -4    0.02    0.09
  -6   0  -4    4.06    0.42
   6   0   4    3.79    0.45
  -6   0  -4    4.34    0.42
   6   0   4    4.68    0.45
   6   0   4    3.98    0.42
   7   0   4   -0.21    0.25
  -7   0  -4   -0.10    0.17
   7   0   4    0.06    0.23
  -7   0  -4    0.14    0.17
   7   0   4    0.37    0.17
   8   0   4    6.10    0.76
  -8   0  -4    6.70    0.70
  -8   0  -4    7.67    0.70
   8   0   4    7.74    0.76
  -9   0  -4    0.10    0.29
  -9   0  -4    0.05    0.25
   9   0   4    0.14    0.34
   9   0   4    0.04    0.27
  10   0   4    0.39    0.42
 -10   0  -4    0.26    0.29
  10   0   4    0.30    0.33
  11  -1  -4    0.09    0.35
 -11  -1   4    0.40    0.31
 -11   1   4    0.41    0.41
 -11   1   4    0.56    0.35
  11   1  -4    0.00    0.37
 -10  -1   4    0.03    0.24
  10  -1  -4   -0.41    0.38
 -10   1   4   -0.17    0.28
  10   1  -4    0.13    0.38
 -10   1   4   -0.17    0.31
  -9  -1   4    1.68    0.27
   9  -1  -4    1.69    0.30
   9   1  -4    1.61    0.32
  -9   1   4    1.75    0.27
   8  -1  -4    3.78    0.45
  -8  -1   4    4.54    0.46
  -8  -1   4    4.16    0.40
  -8   1   4    4.17    0.45
   8   1  -4    4.67    0.40
   8   1  -4    4.01    0.46
  -7  -1   4   33.56    3.28
  -7  -1   4   33.39    2.86
  -7  -1   4   34.41    2.91
   7  -1  -4   30.20    3.05
  -7   1   4   32.80    2.92
  -7   1   4   33.71    2.86
   7   1  -4   30.14    2.84
   7   1  -4   28.67    3.26
  -7   1   4   30.04    2.92
  -6  -1   4    0.90    0.12
   6  -1  -4    0.97    0.18
  -6  -1   4    0.82    0.10
  -6  -1   4    0.92    0.17
  -6   1   4    0.70    0.09
  -6   1   4    0.61    0.11
   6   1  -4    0.82    0.09
  -6   1   4    0.54    0.16
   6   1  -4    0.92    0.17
  -5  -1   4   29.41    2.47
   5  -1  -4   26.21    2.42
  -5  -1   4   26.10    2.28
  -5  -1   4   28.61    2.85
  -5  -1   4   27.19    2.28
  -5  -1   4   30.86    3.05
   5  -1  -4   25.46    2.48
   5   1  -4   25.19    2.61
  -5   1   4   26.26    2.46
   5   1  -4   26.30    2.57
  -5   1   4   24.42    2.28
  -5   1   4   29.54    2.62
  -5   1   4   27.53    2.28
  -5   1   4   23.73    2.27
  -4  -1   4   42.67    3.74
  -4  -1   4   33.65    3.10
   4  -1  -4   35.32    3.22
   4  -1  -4   33.27    3.24
  -4  -1   4   33.14    3.09
  -4  -1   4   38.12    3.34
  -4   1   4   42.75    3.56
   4   1  -4   38.57    3.36
   4   1  -4   35.41    3.51
  -4   1   4   37.89    3.12
  -4   1   4   39.10    3.22
   4   1  -4   37.10    3.34
  -4   1   4   32.06    3.10
  -3  -1   4   51.58    4.37
   3  -1  -4   43.98    4.12
   3  -1  -4   45.35    4.18
  -3  -1   4   51.46    4.30
  -3  -1   4   56.78    4.76
   3  -1  -4   45.77    4.33
  -3  -1   4   44.19    4.06
  -3   1   4   47.83    4.15
  -3   1   4   54.82    4.50
   3   1  -4   40.47    4.33
  -3   1   4   44.08    4.07
   3   1  -4   50.38    4.50
   3   1  -4   51.29    5.65
   2  -1  -4   34.55    3.66
   2  -1  -4   47.19    4.62
  -2  -1   4   49.90    3.94
  -2  -1   4   38.82    3.60
   2  -1  -4   40.55    3.65
  -2  -1   4   50.15    3.95
  -2  -1   4   36.53    3.59
   2   1  -4   46.32    4.55
  -2   1   4   42.78    3.61
   2   1  -4   50.56    4.54
   2   1  -4   39.07    3.76
   2   1  -4   39.44    3.74
  -2   1   4   41.15    3.64
  -2   1   4   48.45    3.89
  -2   1   4   42.65    4.11
  -1  -1   4    0.47    0.07
  -1  -1   4    0.32    0.05
   1  -1  -4    0.36    0.07
   1  -1  -4    0.26    0.07
  -1  -1   4    0.29    0.04
  -1  -1   4    0.26    0.07
  -1  -1   4    0.23    0.07
  -1   1   4    0.42    0.07
  -1   1   4    0.29    0.05
   1   1  -4    0.27    0.03
   1   1  -4    0.33    0.07
   1   1  -4    0.33    0.05
   1   1  -4    0.16    0.07
  -1   1   4    0.28    0.06
   0  -1   4   63.17    5.67
   0  -1   4   71.89    6.42
   0  -1  -4   66.74    7.46
   0  -1  -4   55.01    5.74
   0  -1   4   62.23    5.65
   0   1   4   65.64    5.64
   0   1  -4   66.89    6.40
   0   1  -4   57.35    5.65
   0   1  -4   65.57    5.83
   0   1   4   61.80    5.76
   0   1   4   72.45    6.85
   1  -1   4   38.02    4.39
  -1  -1  -4   36.71    3.66
   1  -1   4   31.54    3.27
   1  -1   4   39.37    3.54
   1   1   4   34.84    3.16
   1   1   4   39.20    4.15
  -1   1  -4   30.12    3.20
  -1   1  -4   35.90    3.56
   1   1   4   34.15    3.42
  -1   1  -4   37.39    3.18
  -2  -1  -4    5.44    0.53
   2  -1   4    6.24    0.59
  -2  -1  -4    5.94    0.59
  -2  -1  -4    5.64    0.52
   2  -1   4    6.34    0.61
   2  -1   4    5.80    0.62
   2  -1   4    6.85    0.68
  -2   1  -4    6.31    0.56
   2   1   4    5.89    0.59
   2   1   4    6.33    0.62
   2   1   4    6.61    0.63
  -2   1  -4    5.39    0.54
  -2   1  -4    6.30    0.59
   2   1   4    6.42    0.56
   3  -1   4   10.52    0.99
  -3  -1  -4   10.54    1.05
   3  -1   4    9.67    0.91
   3  -1   4    8.70    0.97
  -3  -1  -4    9.44    0.87
   3  -1   4   11.58    0.90
  -3  -1  -4    9.25    0.94
   3   1   4    9.99    0.98
  -3   1  -4    9.94    0.92
  -3   1  -4    9.31    1.01
  -3   1  -4    9.84    1.03
  -3   1  -4   10.05    0.89
   3   1   4    9.88    0.93
   3   1   4   10.44    1.13
   3   1   4    9.62    0.93
  -4  -1  -4    0.14    0.12
  -4  -1  -4    0.19    0.13
   4  -1   4    0.17    0.09
   4  -1   4   -0.04    0.12
   4  -1   4    0.23    0.13
   4  -1   4    0.29    0.14
  -4  -1  -4    0.18    0.08
  -4  -1  -4    0.22    0.11
   4   1   4    0.27    0.13
  -4   1  -4    0.23    0.09
  -4   1  -4    0.16    0.11
  -4   1  -4    0.27    0.12
   4   1   4    0.39    0.13
  -4   1  -4    0.27    0.12
   4   1   4    0.39    0.13
   4   1   4    0.05    0.11
   5  -1   4   48.47    5.44
  -5  -1  -4   46.15    5.38
  -5  -1  -4   49.92    4.38
   5  -1   4   51.32    5.42
   5  -1   4   49.84    4.63
   5   1   4   48.87    5.44
  -5   1  -4   46.78    5.51
  -5   1  -4   53.43    4.42
   5   1   4   47.42    5.34
   5   1   4   49.05    4.87
  -6  -1  -4    1.57    0.21
   6  -1   4    1.63    0.24
   6  -1   4    1.51    0.28
  -6  -1  -4    1.84    0.24
  -6  -1  -4    2.05    0.25
   6  -1   4    2.10    0.21
   6   1   4    1.94    0.26
   6   1   4    1.53    0.28
  -6   1  -4    2.17    0.26
  -6   1  -4    1.73    0.22
   6   1   4    1.55    0.22
  -7  -1  -4    4.20    0.44
  -7  -1  -4    3.22    0.44
   7  -1   4    3.70    0.43
   7  -1   4    3.53    0.49
   7  -1   4    5.22    0.48
  -7  -1  -4    4.81    0.43
   7   1   4    4.63    0.48
   7   1   4    4.12    0.44
  -7   1  -4    4.80    0.45
  -7   1  -4    4.12    0.43
   7   1   4    4.24    0.48
   8  -1   4    0.48    0.24
  -8  -1  -4    0.40    0.21
  -8  -1  -4    0.37    0.22
   8  -1   4    0.41    0.27
   8   1   4    0.38    0.37
   8   1   4    0.30    0.28
  -8   1  -4    0.35    0.20
  -8   1  -4    0.33    0.22
  -9  -1  -4    0.23    0.27
   9  -1   4    0.51    0.28
  -9  -1  -4    0.28    0.25
   9  -1   4    1.06    0.42
   9   1   4   -0.45    0.37
  -9   1  -4    0.12    0.23
  -9   1  -4    0.56    0.31
   9   1   4    0.60    0.31
  10  -1   4    0.16    0.34
  10  -1   4    0.02    0.50
 -10  -1  -4    0.04    0.36
  10   1   4    0.42    0.42
 -10   1  -4   -0.38    0.32
  10   1   4    0.13    0.32
 -11  -2   4    0.24    0.31
  11  -2  -4    0.50    0.35
 -11   2   4    0.08    0.34
  11   2  -4    0.23    0.47
 -11   2   4    0.27    0.38
 -10  -2   4   -0.49    0.25
  10  -2  -4    0.20    0.35
 -10   2   4    0.71    0.41
 -10   2   4   -0.51    0.27
  10   2  -4   -0.10    0.38
  -9  -2   4    0.37    0.26
   9  -2  -4   -0.51    0.27
  -9   2   4   -0.13    0.22
   9   2  -4    0.08    0.27
  -9   2   4    0.05    0.24
   8  -2  -4    0.90    0.21
  -8  -2   4    0.72    0.20
  -8  -2   4    0.60    0.15
  -8   2   4    0.90    0.24
   8   2  -4    1.14    0.13
  -8   2   4    0.61    0.20
   8   2  -4    1.08    0.25
  -7  -2   4    1.92    0.26
  -7  -2   4    1.48    0.19
   7  -2  -4    1.91    0.24
  -7  -2   4    1.79    0.20
  -7   2   4    1.24    0.20
   7   2  -4    1.71    0.28
  -7   2   4    2.30    0.42
   7   2  -4    2.12    0.18
  -6  -2   4    6.03    0.61
  -6  -2   4    6.14    0.58
  -6  -2   4    6.44    0.56
   6  -2  -4    6.27    0.60
  -6   2   4    5.92    0.54
  -6   2   4    6.54    0.58
  -6   2   4    6.54    0.59
   6   2  -4    5.90    0.54
   6   2  -4    6.36    0.65
   5  -2  -4    1.04    0.16
   5  -2  -4    1.26    0.18
  -5  -2   4    1.24    0.19
  -5  -2   4    1.33    0.19
  -5  -2   4    1.16    0.15
  -5  -2   4    1.52    0.18
  -5  -2   4    1.42    0.17
  -5   2   4    1.48    0.20
   5   2  -4    1.04    0.19
  -5   2   4    0.85    0.13
  -5   2   4    1.15    0.12
  -5   2   4    1.61    0.20
   5   2  -4    1.55    0.20
  -5   2   4    1.44    0.16
   5   2  -4    1.42    0.18
   5   2  -4    1.28    0.11
  -4  -2   4   55.83    5.28
  -4  -2   4   55.46    4.68
   4  -2  -4   46.65    4.56
  -4  -2   4   52.64    4.36
   4  -2  -4   44.32    4.51
  -4  -2   4   55.54    4.96
  -4  -2   4   47.32    4.36
   4   2  -4   51.26    4.85
  -4   2   4   52.07    4.45
  -4   2   4   53.35    4.43
  -4   2   4   56.36    5.12
   4   2  -4   51.69    4.55
   4   2  -4   49.58    4.82
  -4   2   4   53.50    4.56
  -4   2   4   45.80    4.38
  -3  -2   4   16.56    1.36
   3  -2  -4   12.16    1.22
   3  -2  -4   12.74    1.24
  -3  -2   4   14.30    1.21
  -3  -2   4   15.97    1.43
   3  -2  -4   12.34    1.30
  -3  -2   4   16.54    1.33
  -3  -2   4   13.61    1.20
  -3   2   4   14.25    1.24
   3   2  -4   14.48    1.40
   3   2  -4   13.76    1.28
  -3   2   4   13.54    1.21
  -3   2   4   13.85    1.20
   3   2  -4   14.05    1.27
  -3   2   4   13.92    1.25
   2  -2  -4    5.38    0.50
  -2  -2   4    6.78    0.54
  -2  -2   4    5.20    0.49
  -2  -2   4    4.78    0.50
  -2  -2   4    7.05    0.57
   2  -2  -4    5.78    0.55
   2   2  -4    6.22    0.56
  -2   2   4    5.19    0.50
   2   2  -4    6.27    0.64
   2   2  -4    6.68    0.61
  -2   2   4    5.19    0.50
   2   2  -4    5.23    0.51
   2   2  -4    5.65    0.52
  -2   2   4    6.51    0.52
  -2   2   4    5.84    0.52
  -1  -2   4   27.58    2.55
   1  -2  -4   27.10    2.70
  -1  -2   4   27.09    2.53
  -1  -2   4   32.62    2.57
  -1  -2   4   32.34    2.68
  -1   2   4   29.26    2.89
  -1   2   4   28.54    2.66
   1   2  -4   29.45    2.81
  -1   2   4   28.87    2.74
  -1   2   4   27.74    2.56
   1   2  -4   31.42    2.75
  -1   2   4   25.46    2.61
   1   2  -4   29.67    2.67
   1   2  -4   31.06    2.72
   0  -2   4   41.05    3.77
   0  -2   4   43.99    3.86
   0  -2  -4   38.81    3.90
   0  -2  -4   41.83    4.37
   0  -2  -4   38.14    3.71
   0   2  -4   39.05    3.65
   0   2   4   41.01    3.56
   0   2  -4   41.48    4.11
   0   2   4   39.39    3.84
   0   2   4   37.85    3.59
   0   2   4   46.25    4.26
   0   2  -4   41.67    3.52
   0   2  -4   42.70    3.73
  -1  -2  -4   64.89    5.96
   1  -2   4   78.69    6.20
  -1  -2  -4   56.67    5.94
   1  -2   4   77.34    6.53
   1  -2   4   78.10    7.02
  -1  -2  -4   61.61    5.94
  -1  -2  -4   74.34    7.38
   1   2   4   57.35    5.82
   1   2   4   69.15    6.68
  -1   2  -4   70.28    5.87
   1   2   4   64.92    5.91
  -1   2  -4   70.57    6.56
   1   2   4   79.89    7.95
  -1   2  -4   72.33    6.05
   2  -2   4    0.01    0.20
  -2  -2  -4    0.02    0.09
   2  -2   4    0.10    0.07
   2  -2   4    0.00    0.08
  -2  -2  -4    0.04    0.04
  -2  -2  -4    0.01    0.06
  -2  -2  -4   -0.03    0.06
   2  -2   4   -0.02    0.07
   2   2   4   -0.11    0.10
   2   2   4   -0.03    0.08
   2   2   4   -0.06    0.09
   2   2   4   -0.10    0.12
  -2   2  -4    0.07    0.07
  -2   2  -4   -0.01    0.07
  -2   2  -4    0.06    0.07
   3  -2   4   17.88    1.74
   3  -2   4   19.70    1.92
  -3  -2  -4   18.27    1.60
   3  -2   4   18.99    1.83
  -3  -2  -4   18.67    2.22
  -3  -2  -4   18.11    1.82
   3  -2   4   17.99    1.75
  -3  -2  -4   16.70    1.64
  -3   2  -4   20.04    1.70
  -3   2  -4   19.65    1.85
   3   2   4   18.53    1.73
   3   2   4   19.93    2.04
   3   2   4   19.96    2.30
   3   2   4   16.92    1.66
  -3   2  -4   17.87    1.68
  -4  -2  -4    2.78    0.37
  -4  -2  -4    3.37    0.31
   4  -2   4    2.87    0.34
   4  -2   4    3.59    0.35
  -4  -2  -4    2.91    0.31
  -4  -2  -4    3.54    0.34
   4  -2   4    3.71    0.35
   4   2   4    3.16    0.33
  -4   2  -4    3.26    0.34
  -4   2  -4    3.52    0.32
  -4   2  -4    2.96    0.35
   4   2   4    2.99    0.37
  -4   2  -4    3.80    0.35
   4   2   4    3.55    0.39
   5  -2   4    3.15    0.38
   5  -2   4    4.75    0.42
  -5  -2  -4    3.60    0.37
  -5  -2  -4    3.32    0.40
   5  -2   4    3.57    0.39
  -5  -2  -4    3.94    0.37
   5   2   4    3.69    0.37
  -5   2  -4    3.70    0.36
   5   2   4    3.56    0.41
   5   2   4    3.20    0.40
  -5   2  -4    3.73    0.40
  -6  -2  -4    0.08    0.12
  -6  -2  -4    0.08    0.19
   6  -2   4   -0.07    0.14
  -6  -2  -4    0.13    0.14
   6  -2   4    0.00    0.17
   6  -2   4    0.17    0.13
   6   2   4   -0.19    0.21
   6   2   4   -0.12    0.26
  -6   2  -4   -0.14    0.15
  -6   2  -4    0.01    0.15
   6   2   4    0.07    0.17
  -7  -2  -4    2.37    0.32
   7  -2   4    2.02    0.36
   7  -2   4    2.26    0.30
  -7  -2  -4    1.48    0.28
   7   2   4    1.99    0.29
  -7   2  -4    2.64    0.29
  -7   2  -4    2.53    0.29
   7   2   4    1.32    0.35
  -8  -2  -4    0.73    0.27
   8  -2   4    0.44    0.24
  -8  -2  -4    0.31    0.27
   8  -2   4    0.63    0.29
   8   2   4    0.38    0.29
   8   2   4    0.20    0.31
  -8   2  -4    0.09    0.22
  -8   2  -4    0.47    0.25
   9  -2   4    0.33    0.34
  -9  -2  -4   -0.14    0.30
   9  -2   4    0.61    0.53
  -9   2  -4    0.07    0.26
   9   2   4    0.25    0.37
  -9   2  -4   -0.16    0.29
   9   2   4    0.02    0.32
  10  -2   4   -0.20    0.34
  10  -2   4   -0.35    0.39
 -10  -2  -4    0.27    0.31
  10   2   4   -0.17    0.35
 -10   2  -4   -0.24    0.30
  10   2   4    0.33    0.58
  11  -3  -4    0.61    0.41
 -11  -3   4    0.78    0.40
  11   3  -4    0.76    0.43
 -11   3   4    0.17    0.33
 -11   3   4    0.01    0.38
  10  -3  -4    0.24    0.35
 -10  -3   4    0.21    0.32
 -10   3   4    0.19    0.27
 -10   3   4    0.18    0.33
  10   3  -4    0.06    0.34
   9  -3  -4   -0.05    0.22
  -9  -3   4    0.26    0.21
  -9   3   4    0.23    0.25
  -9   3   4   -0.12    0.22
   9   3  -4   -0.17    0.29
   8  -3  -4   -0.17    0.19
  -8  -3   4   -0.06    0.15
  -8  -3   4    0.33    0.19
  -8   3   4    0.08    0.21
   8   3  -4    0.09    0.09
   8   3  -4    0.09    0.28
  -8   3   4    0.38    0.18
  -7  -3   4    3.03    0.39
   7  -3  -4    3.20    0.33
  -7  -3   4    2.70    0.29
   7   3  -4    2.88    0.26
  -7   3   4    2.73    0.31
   7   3  -4    2.63    0.33
  -7   3   4    2.55    0.34
  -6  -3   4    2.41    0.28
  -6  -3   4    2.62    0.27
   6  -3  -4    2.67    0.29
   6  -3  -4    2.50    0.28
   6   3  -4    2.58    0.23
   6   3  -4    2.72    0.30
  -6   3   4    2.85    0.28
  -6   3   4    2.07    0.26
  -6   3   4    2.95    0.31
  -5  -3   4    2.46    0.23
   5  -3  -4    2.14    0.24
  -5  -3   4    2.27    0.24
  -5  -3   4    1.88    0.24
  -5  -3   4    2.05    0.22
   5  -3  -4    1.78    0.22
  -5   3   4    1.96    0.22
  -5   3   4    1.96    0.25
   5   3  -4    1.99    0.19
  -5   3   4    1.66    0.22
  -5   3   4    2.25    0.19
   5   3  -4    2.49    0.25
   5   3  -4    1.84    0.25
  -4  -3   4    0.85    0.14
  -4  -3   4    0.73    0.13
  -4  -3   4    1.04    0.14
  -4  -3   4    1.14    0.18
   4  -3  -4    1.04    0.15
   4  -3  -4    0.84    0.13
  -4   3   4    1.01    0.16
  -4   3   4    0.69    0.12
   4   3  -4    0.98    0.18
   4   3  -4    0.77    0.15
  -4   3   4    1.11    0.16
   4   3  -4    0.70    0.15
  -4   3   4    0.97    0.16
   4   3  -4    0.94    0.09
  -4   3   4    1.07    0.10
  -4   3   4    0.78    0.13
  -3  -3   4   35.06    2.98
  -3  -3   4   40.58    3.20
   3  -3  -4   30.62    2.96
  -3  -3   4   30.96    2.96
   3  -3  -4   34.78    3.02
  -3  -3   4   41.76    3.56
  -3   3   4   36.12    3.06
   3   3  -4   30.12    3.00
   3   3  -4   32.66    3.32
   3   3  -4   37.24    3.50
   3   3  -4   35.06    3.61
   3   3  -4   39.75    3.93
  -3   3   4   36.76    3.13
  -3   3   4   34.03    3.04
  -3   3   4   32.31    2.97
  -3   3   4   40.26    3.58
   2  -3  -4    0.57    0.10
  -2  -3   4    0.55    0.09
  -2  -3   4    0.67    0.12
   2  -3  -4    0.59    0.08
  -2  -3   4    0.68    0.10
  -2  -3   4    1.09    0.86
   2   3  -4    0.84    0.13
   2   3  -4    0.56    0.10
  -2   3   4    0.37    0.09
   2   3  -4    0.45    0.09
  -2   3   4    0.61    0.08
   2   3  -4    0.58    0.10
  -2   3   4    0.40    0.08
  -2   3   4    0.49    0.10
   2   3  -4    0.50    0.07
  -2   3   4    0.57    0.09
   1  -3  -4    4.03    0.47
   1  -3  -4    3.84    0.49
  -1  -3   4    5.58    0.45
  -1  -3   4    4.34    0.41
  -1  -3   4    4.94    0.42
   1  -3  -4    4.30    0.45
   1   3  -4    5.18    0.46
  -1   3   4    4.44    0.46
  -1   3   4    5.41    0.51
  -1   3   4    4.60    0.43
  -1   3   4    4.20    0.42
   1   3  -4    4.92    0.43
   1   3  -4    5.24    0.42
   1   3  -4    4.82    0.46
   0  -3  -4    3.00    0.30
   0  -3   4    3.21    0.30
   0  -3   4    3.61    0.31
   0  -3  -4    2.70    0.31
   0  -3   4    3.72    0.30
   0  -3  -4    2.83    0.30
   0   3   4    2.88    0.29
   0   3   4    2.84    0.30
   0   3  -4    3.07    0.32
   0   3   4    3.15    0.30
   0   3  -4    3.70    0.29
   0   3  -4    3.58    0.29
   0   3   4    3.42    0.33
   1  -3   4   23.84    2.03
   1  -3   4   25.02    2.96
  -1  -3  -4   21.59    2.03
  -1  -3  -4   22.10    2.10
   1  -3   4   25.79    2.31
  -1  -3  -4   22.75    2.16
  -1  -3  -4   19.05    2.02
   1   3   4   19.33    2.02
  -1   3  -4   24.73    2.15
   1   3   4   26.66    2.40
   1   3   4   23.38    2.06
  -1   3  -4   24.58    2.00
  -1   3  -4   25.55    2.06
   1   3   4   22.45    2.17
  -2  -3  -4   61.93    6.47
  -2  -3  -4   53.17    5.01
   2  -3   4   58.98    5.59
   2  -3   4   59.50    5.41
  -2  -3  -4   55.44    5.22
   2  -3   4   59.16    5.86
   2  -3   4   68.47    6.85
   2   3   4   50.30    5.27
   2   3   4   54.77    5.47
  -2   3  -4   60.11    5.43
  -2   3  -4   62.07    5.03
  -2   3  -4   59.51    5.69
   2   3   4   54.00    5.31
   2   3   4   56.68    5.24
   3  -3   4   13.44    1.30
  -3  -3  -4   11.03    1.14
   3  -3   4   12.62    1.19
   3  -3   4   15.59    1.36
  -3  -3  -4   14.00    1.15
  -3  -3  -4   12.22    1.32
  -3  -3  -4   12.95    1.17
   3  -3   4   13.19    1.45
  -3   3  -4   13.86    1.21
   3   3   4   11.52    1.18
   3   3   4   12.01    1.16
  -3   3  -4   13.23    1.25
   3   3   4   12.63    1.42
   3   3   4   13.53    1.43
  -3   3  -4   14.15    1.18
  -4  -3  -4    0.19    0.10
   4  -3   4   -0.11    0.14
  -4  -3  -4   -0.05    0.14
   4  -3   4    0.39    0.13
   4  -3   4    0.21    0.14
  -4  -3  -4    0.15    0.14
  -4  -3  -4    0.07    0.08
   4  -3   4    0.00    0.14
   4   3   4    0.18    0.17
  -4   3  -4   -0.03    0.11
  -4   3  -4    0.17    0.14
  -4   3  -4   -0.01    0.06
   4   3   4    0.05    0.14
   4   3   4   -0.04    0.15
  -5  -3  -4    2.28    0.30
   5  -3   4    2.52    0.33
  -5  -3  -4    3.36    0.30
   5  -3   4    3.51    0.32
   5  -3   4    2.65    0.30
  -5  -3  -4    3.13    0.33
   5  -3   4    3.42    0.28
   5   3   4    2.37    0.34
   5   3   4    2.57    0.32
   5   3   4    2.80    0.33
  -5   3  -4    2.75    0.30
  -5   3  -4    2.95    0.31
   6  -3   4    2.55    0.30
   6  -3   4    2.25    0.33
  -6  -3  -4    2.44    0.28
   6  -3   4    2.80    0.25
  -6  -3  -4    1.96    0.29
  -6  -3  -4    3.16    0.33
   6   3   4    1.83    0.33
  -6   3  -4    2.31    0.28
   6   3   4    2.45    0.38
  -6   3  -4    2.61    0.30
   7  -3   4    0.56    0.22
  -7  -3  -4    0.42    0.16
   7  -3   4    0.70    0.24
  -7  -3  -4    0.75    0.25
  -7   3  -4    1.03    0.22
   7   3   4    0.61    0.36
   7   3   4    0.54    0.27
  -7   3  -4    0.34    0.18
   8  -3   4    0.32    0.29
   8  -3   4    0.22    0.25
  -8  -3  -4    0.13    0.22
  -8  -3  -4   -0.03    0.12
  -8   3  -4   -0.02    0.20
   8   3   4    0.55    0.35
   8   3   4    0.89    0.34
  -8   3  -4    0.35    0.26
  -9  -3  -4    0.87    0.52
   9  -3   4    0.84    0.42
   9  -3   4    1.80    0.39
  -9   3  -4    0.71    0.33
  -9   3  -4    0.78    0.28
   9   3   4    1.03    0.36
   9   3   4    0.41    0.65
 -10  -3  -4    0.18    0.39
  10  -3   4    0.17    0.33
  10  -3   4   -0.42    0.38
 -10   3  -4   -0.06    0.31
  10   3   4    0.20    0.35
  10   3   4   -0.07    0.57
 -11  -4   4    0.28    0.35
  11  -4  -4   -0.30    0.43
 -11   4   4   -0.10    0.31
 -11   4   4    0.14    0.40
  11   4  -4    0.05    0.45
 -10  -4   4    5.63    0.62
  10  -4  -4    5.07    0.60
 -10   4   4    5.47    0.65
  10   4  -4    5.54    0.70
 -10   4   4    4.89    0.57
  -9  -4   4    0.02    0.23
  -9  -4   4    0.09    0.21
   9  -4  -4   -0.05    0.28
  -9   4   4    0.23    0.71
   9   4  -4    0.27    0.30
  -9   4   4    0.10    0.32
  -8  -4   4    8.12    0.79
   8  -4  -4    8.66    0.88
  -8  -4   4    7.84    0.77
   8   4  -4    7.96    0.73
   8   4  -4    8.55    0.86
  -8   4   4    8.71    0.91
  -8   4   4    8.88    0.83
   7  -4  -4    0.78    0.18
  -7  -4   4    0.95    0.19
  -7  -4   4    0.56    0.17
   7   4  -4    0.87    0.11
  -7   4   4    0.49    0.25
   7   4  -4    0.89    0.27
  -7   4   4    0.62    0.16
  -6  -4   4   10.40    0.95
   6  -4  -4    9.21    0.97
   6  -4  -4   11.18    0.98
  -6  -4   4   10.49    0.95
   6   4  -4    9.64    0.99
  -6   4   4   12.35    1.09
   6   4  -4   11.06    1.04
  -6   4   4    9.99    0.94
  -6   4   4   11.42    0.95
  -5  -4   4    0.42    0.15
  -5  -4   4    0.55    0.13
  -5  -4   4    0.23    0.11
   5  -4  -4    0.42    0.13
   5  -4  -4    0.54    0.11
  -5   4   4    0.43    0.12
   5   4  -4    0.36    0.19
   5   4  -4    0.69    0.16
  -5   4   4    0.51    0.23
   5   4  -4    0.56    0.09
  -5   4   4    0.35    0.07
  -5   4   4    0.32    0.11
  -4  -4   4   29.94    3.13
   4  -4  -4   23.43    2.41
  -4  -4   4   31.85    2.68
  -4  -4   4   26.28    2.41
  -4  -4   4   27.72    2.40
   4  -4  -4   27.20    2.45
   4   4  -4   27.09    2.71
  -4   4   4   27.13    2.48
   4   4  -4   29.39    3.13
  -4   4   4   29.36    2.51
  -4   4   4   29.43    2.71
   4   4  -4   28.19    3.00
  -4   4   4   26.46    2.39
  -4   4   4   28.50    2.69
   4   4  -4   29.46    2.80
  -4   4   4   27.32    2.46
   4   4  -4   29.64    2.85
  -3  -4   4    1.01    0.13
   3  -4  -4    0.84    0.11
  -3  -4   4    0.84    0.12
  -3  -4   4    0.58    0.16
   3  -4  -4    0.58    0.13
  -3  -4   4    0.49    0.13
  -3   4   4    0.72    0.11
  -3   4   4    0.72    0.14
   3   4  -4    0.94    0.14
   3   4  -4    1.04    0.15
   3   4  -4    0.95    0.10
   3   4  -4    0.55    0.16
  -3   4   4    0.75    0.13
  -3   4   4    0.95    0.14
   3   4  -4    0.69    0.14
  -3   4   4    0.93    0.10
   2  -4  -4   30.26    2.89
   2  -4  -4   30.06    3.60
  -2  -4   4   38.85    3.07
  -2  -4   4   33.17    2.82
  -2  -4   4   37.73    3.01
  -2  -4   4   32.71    2.83
  -2   4   4   29.42    2.86
  -2   4   4   30.40    2.91
   2   4  -4   35.56    3.16
   2   4  -4   35.81    3.30
   2   4  -4   33.24    2.92
   2   4  -4   34.03    3.02
  -2   4   4   32.22    2.99
  -2   4   4   31.62    3.03
  -2   4   4   29.94    2.84
  -1  -4   4    5.48    0.50
   1  -4  -4    3.97    0.47
   1  -4  -4    4.66    0.52
  -1  -4   4    5.25    0.44
  -1  -4   4    4.90    0.44
   1  -4  -4    4.82    0.48
  -1  -4   4    4.99    0.44
  -1   4   4    4.95    0.47
   1   4  -4    4.89    0.54
  -1   4   4    4.42    0.46
   1   4  -4    4.80    0.50
   1   4  -4    5.68    0.48
  -1   4   4    5.08    0.47
   0  -4  -4  200.81   21.62
   0  -4   4  243.21   20.11
   0  -4  -4  207.93   21.42
   0  -4  -4  233.13   22.56
   0  -4   4  225.62   19.91
   0  -4   4  214.47   19.80
   0  -4   4  235.14   19.87
   0   4  -4  254.29   19.97
   0   4   4  226.20   19.71
   0   4   4  224.17   20.31
   0   4  -4  228.84   21.57
   0   4   4  255.22   23.91
   0   4   4  218.09   21.67
   0   4   4  199.25   19.94
   0   4  -4  234.29   19.82
   1  -4   4   68.61    5.94
  -1  -4  -4   62.22    5.80
   1  -4   4   75.02    6.64
   1  -4   4   67.28    5.59
  -1  -4  -4   54.91    5.77
  -1  -4  -4   56.60    5.94
   1   4   4   74.94    7.75
  -1   4  -4   69.56    5.66
  -1   4  -4   71.85    5.98
  -1   4  -4   71.00    5.67
   1   4   4   61.78    5.73
   1   4   4   63.38    6.30
   1   4   4   57.15    5.77
  -2  -4  -4   25.47    2.62
  -2  -4  -4   28.42    3.25
  -2  -4  -4   30.13    2.71
   2  -4   4   32.00    2.87
  -2  -4  -4   28.16    2.65
   2  -4   4   31.06    2.70
   2  -4   4   32.02    2.71
   2  -4   4   34.90    2.85
   2   4   4   30.86    2.86
   2   4   4   26.79    2.77
  -2   4  -4   34.27    2.68
   2   4   4   27.13    2.73
  -2   4  -4   32.64    2.78
  -2   4  -4   32.78    2.65
   2   4   4   28.31    2.88
   3  -4   4    0.86    0.13
   3  -4   4    0.96    0.17
  -3  -4  -4    0.77    0.12
  -3  -4  -4    0.97    0.16
  -3  -4  -4    0.84    0.16
   3  -4   4    1.22    0.14
  -3  -4  -4    0.92    0.15
   3  -4   4    1.11    0.14
  -3   4  -4    0.98    0.15
   3   4   4    0.76    0.14
  -3   4  -4    0.89    0.15
   3   4   4    0.82    0.12
  -3   4  -4    0.78    0.14
   3   4   4    0.50    0.16
   3   4   4    0.96    0.15
  -4  -4  -4    5.27    0.59
   4  -4   4    6.44    0.61
  -4  -4  -4    6.46    0.62
   4  -4   4    7.29    0.65
   4  -4   4    6.80    0.63
   4  -4   4    7.40    0.60
  -4  -4  -4    6.84    0.60
  -4  -4  -4    4.88    0.76
   4   4   4    6.23    0.60
  -4   4  -4    6.85    0.60
   4   4   4    5.09    0.63
  -4   4  -4    6.39    0.63
   4   4   4    6.46    0.68
  -5  -4  -4    5.37    0.55
  -5  -4  -4    5.04    0.56
   5  -4   4    6.57    0.54
   5  -4   4    5.76    0.56
   5  -4   4    5.75    0.59
  -5  -4  -4    5.92    0.55
   5   4   4    5.30    0.60
   5   4   4    5.02    0.62
  -5   4  -4    7.09    0.63
  -6  -4  -4    3.22    0.43
   6  -4   4    4.43    0.49
   6  -4   4    5.18    0.41
  -6  -4  -4    4.07    0.45
  -6  -4  -4    4.44    0.42
   6  -4   4    4.50    0.44
  -6   4  -4    3.91    0.42
   6   4   4    4.47    0.52
  -6   4  -4    4.27    0.45
   6   4   4    4.22    0.64
  -7  -4  -4    0.58    0.25
  -7  -4  -4    0.17    0.16
   7  -4   4    0.22    0.22
   7  -4   4   -0.04    0.27
  -7   4  -4    0.07    0.16
   7   4   4    0.22    0.28
  -7   4  -4    0.34    0.18
   7   4   4   -0.28    0.35
  -8  -4  -4    4.33    0.50
   8  -4   4    5.89    0.56
  -8  -4  -4    5.07    0.55
   8  -4   4    3.55    0.55
   8   4   4    4.64    0.54
  -8   4  -4    4.74    0.53
  -8   4  -4    4.81    0.48
   8   4   4    4.31    0.64
   9  -4   4    0.59    0.30
  -9  -4  -4    0.00    0.34
   9  -4   4    0.22    0.32
   9   4   4   -0.11    0.40
  -9   4  -4   -0.04    0.31
   9   4   4   -0.22    0.44
  -9   4  -4    0.08    0.24
  10  -4   4   -0.07    0.35
  10  -4   4    0.13    0.47
 -10  -4  -4   -0.46    0.40
 -10   4  -4   -0.44    0.31
  10   4   4    1.73    0.59
  11  -5  -4    0.72    0.37
 -11  -5   4    0.71    0.37
  11   5  -4    0.40    0.59
 -11   5   4    0.25    0.45
 -10  -5   4    0.01    0.34
  10  -5  -4   -0.04    0.31
 -10   5   4    0.19    0.25
 -10   5   4   -0.48    0.43
  10   5  -4    0.33    0.46
   9  -5  -4    0.14    0.24
  -9  -5   4    0.28    0.24
  -9  -5   4    0.27    0.23
  -9   5   4   -0.07    0.29
  -9   5   4   -0.10    0.20
   9   5  -4    0.15    0.39
   8  -5  -4    0.38    0.21
  -8  -5   4    0.11    0.17
  -8  -5   4    0.02    0.23
   8   5  -4    0.36    0.33
  -8   5   4    0.33    0.24
  -8   5   4    0.18    0.16
  -7  -5   4    6.26    0.57
  -7  -5   4    6.50    0.57
   7  -5  -4    7.22    0.70
   7   5  -4    5.07    0.56
  -7   5   4    4.96    0.58
  -7   5   4    6.13    0.69
   7   5  -4    6.18    0.64
   6  -5  -4    2.49    0.28
  -6  -5   4    2.68    0.29
  -6  -5   4    2.69    0.30
   6  -5  -4    2.22    0.29
  -6   5   4    3.07    0.33
   6   5  -4    2.71    0.28
  -6   5   4    2.30    0.27
   6   5  -4    2.86    0.35
   5  -5  -4   56.96    5.39
  -5  -5   4   60.77    5.17
   5  -5  -4   52.90    5.24
  -5  -5   4   60.39    5.15
  -5  -5   4   61.85    5.57
  -5   5   4   59.02    5.24
  -5   5   4   63.43    6.15
   5   5  -4   56.83    6.26
   5   5  -4   59.28    5.80
  -5   5   4   60.00    5.52
  -5   5   4   57.87    5.30
   5   5  -4   58.53    6.06
  -4  -5   4    4.18    0.44
   4  -5  -4    5.46    0.46
  -4  -5   4    5.65    0.46
  -4  -5   4    4.59    0.45
   4  -5  -4    4.40    0.43
   4   5  -4    5.19    0.52
  -4   5   4    4.39    0.46
  -4   5   4    4.73    0.44
   4   5  -4    5.02    0.48
   4   5  -4    4.21    0.46
  -4   5   4    4.92    0.44
  -4   5   4    5.59    0.54
   4   5  -4    4.60    0.45
   4   5  -4    5.22    0.47
  -4   5   4    4.93    0.48
   4   5  -4    4.22    0.52
  -3  -5   4   52.23    4.83
  -3  -5   4   63.67    5.37
  -3  -5   4   51.40    4.85
   3  -5  -4   49.96    6.15
  -3  -5   4   69.29    6.29
   3  -5  -4   52.70    5.11
  -3   5   4   55.74    4.99
   3   5  -4   55.37    5.79
   3   5  -4   60.86    6.81
   3   5  -4   53.06    5.14
  -3   5   4   55.70    4.89
  -3   5   4   58.36    5.27
  -3   5   4   58.03    5.13
  -3   5   4   55.93    4.91
   3   5  -4   58.76    5.21
  -2  -5   4    0.48    0.14
   2  -5  -4    0.02    0.08
   2  -5  -4    0.10    0.11
  -2  -5   4   -0.02    0.08
  -2  -5   4    0.00    0.08
   2   5  -4    0.12    0.11
   2   5  -4   -0.04    0.14
   2   5  -4   -0.06    0.10
  -2   5   4    0.04    0.07
   2   5  -4   -0.09    0.07
  -2   5   4   -0.01    0.11
  -2   5   4    0.03    0.08
  -2   5   4    0.13    0.12
  -2   5   4    0.00    0.08
   1  -5  -4    2.38    0.24
  -1  -5   4    2.38    0.24
  -1  -5   4    3.00    0.28
   1  -5  -4    1.86    0.26
  -1  -5   4    2.53    0.22
   1   5  -4    2.52    0.24
   1   5  -4    2.38    0.28
   1   5  -4    2.54    0.24
  -1   5   4    2.02    0.24
  -1   5   4    2.10    0.23
   1   5  -4    2.24    0.24
  -1   5   4    2.19    0.25
   0  -5   4    3.63    0.31
   0  -5   4    3.36    0.30
   0  -5   4    3.20    0.33
   0  -5  -4    3.33    0.51
   0  -5  -4    3.30    0.32
   0  -5   4    3.42    0.31
   0   5  -4    3.12    0.36
   0   5   4    2.94    0.30
   0   5   4    3.00    0.32
   0   5  -4    3.37    0.31
   0   5   4    3.04    0.33
   0   5   4    3.17    0.33
   0   5  -4    3.94    0.32
   0   5   4    3.25    0.41
   1  -5   4   43.68    3.72
  -1  -5  -4   36.94    3.88
   1  -5   4   41.41    3.55
  -1  -5  -4   38.56    3.69
   1  -5   4   40.71    3.57
   1  -5   4   40.50    3.61
  -1   5  -4   43.77    3.58
   1   5   4   42.67    4.83
   1   5   4   37.53    3.70
  -1   5  -4   47.31    3.63
   1   5   4   38.91    3.64
  -1   5  -4   42.75    3.58
   1   5   4   36.21    3.65
   2  -5   4    0.83    0.12
  -2  -5  -4    0.54    0.12
  -2  -5  -4    0.64    0.07
   2  -5   4    0.61    0.13
   2  -5   4    0.60    0.18
  -2  -5  -4    0.33    0.12
   2  -5   4    0.79    0.11
  -2  -5  -4    0.67    0.14
   2  -5   4    0.76    0.13
  -2   5  -4    0.78    0.16
  -2   5  -4    1.22    0.14
   2   5   4    1.24    0.19
   2   5   4    0.72    0.14
   2   5   4    0.37    0.12
   2   5   4    0.42    0.12
  -3  -5  -4   30.41    2.73
   3  -5   4   36.02    3.39
   3  -5   4   31.90    2.90
   3  -5   4   30.84    2.74
  -3  -5  -4   29.87    3.00
  -3  -5  -4   27.80    3.26
   3  -5   4   30.16    2.80
   3  -5   4   32.55    3.00
  -3   5  -4   33.46    2.79
  -3   5  -4   32.24    2.91
   3   5   4   27.89    2.89
   3   5   4   33.87    3.58
   3   5   4   27.11    2.91
   4  -5   4    0.03    0.08
  -4  -5  -4    0.08    0.11
   4  -5   4   -0.77    0.40
  -4  -5  -4    0.22    0.13
   4  -5   4    0.13    0.16
   4  -5   4    0.08    0.13
   4  -5   4    0.15    0.11
  -4  -5  -4    0.04    0.13
   4   5   4   -0.37    0.26
   4   5   4   -0.06    0.07
   4   5   4    0.20    0.17
  -4   5  -4    0.18    0.15
   5  -5   4   30.56    3.05
   5  -5   4   29.99    2.71
  -5  -5  -4   28.18    2.94
   5  -5   4   28.41    2.59
   5  -5   4   29.41    2.83
  -5  -5  -4   29.95    2.62
   5   5   4   28.41    3.22
  -5   5  -4   31.61    2.73
   5   5   4   26.29    2.97
  -6  -5  -4    0.01    0.15
   6  -5   4   -0.27    0.23
  -6  -5  -4   -0.22    0.25
  -6  -5  -4    0.23    0.14
   6  -5   4    0.08    0.19
   6  -5   4    0.00    0.10
  -6  -5  -4    0.01    0.17
   6  -5   4   -0.02    0.13
   6   5   4    0.01    0.23
  -6   5  -4    0.20    0.19
   6   5   4   -0.16    0.32
   7  -5   4    0.68    0.23
   7  -5   4    0.17    0.27
  -7  -5  -4    0.26    0.22
  -7  -5  -4    0.31    0.21
   7   5   4    0.50    0.30
  -7   5  -4    0.05    0.25
   7   5   4    0.60    0.38
  -8  -5  -4    0.37    0.32
  -8  -5  -4    0.61    0.26
   8  -5   4    0.70    0.34
   8  -5   4   -0.01    0.27
   8   5   4    0.87    0.47
  -8   5  -4    0.53    0.27
   8   5   4    0.80    0.34
   9  -5   4    0.10    0.38
  -9  -5  -4    0.06    0.35
   9  -5   4    0.27    0.30
  -9   5  -4    0.01    0.15
   9   5   4   -0.09    0.34
  -9   5  -4   -0.26    0.29
   9   5   4    0.48    0.45
 -10  -5  -4    1.61    0.76
  10  -5   4    1.03    0.52
  10  -5   4    1.36    0.42
 -10  -6   4    0.34    0.38
  10  -6  -4    0.13    0.33
  10   6  -4    0.93    0.40
 -10   6   4    0.53    0.47
  -9  -6   4   -0.01    0.30
  -9  -6   4    1.39    0.39
   9  -6  -4   -0.53    0.32
   9   6  -4    0.14    0.42
  -9   6   4    0.38    0.37
  -9   6   4   -0.07    0.21
  -8  -6   4   -0.06    0.20
  -8  -6   4   -0.26    0.19
   8  -6  -4    0.05    0.26
  -8   6   4    0.16    0.24
  -8   6   4   -0.08    0.16
   8   6  -4    0.53    0.29
  -7  -6   4    0.04    0.20
   7  -6  -4    0.00    0.22
  -7  -6   4    0.14    0.21
   7   6  -4    0.13    0.13
  -7   6   4   -0.02    0.12
   7   6  -4    0.37    0.24
  -7   6   4    0.04    0.20
  -6  -6   4    1.24    0.20
   6  -6  -4    1.25    0.21
   6  -6  -4    1.15    0.17
  -6  -6   4    0.97    0.75
  -6  -6   4    1.57    0.20
  -6   6   4    1.19    0.23
   6   6  -4    1.52    0.18
   6   6  -4    1.51    0.29
  -6   6   4    0.95    0.12
  -6   6   4    1.02    0.17
  -5  -6   4   -0.03    0.15
   5  -6  -4   -0.08    0.17
   5  -6  -4    0.06    0.11
  -5  -6   4    0.03    0.13
  -5  -6   4    0.09    0.13
   5   6  -4    0.01    0.13
  -5   6   4   -0.01    0.09
   5   6  -4    0.02    0.14
  -5   6   4   -0.02    0.09
   5   6  -4   -0.05    0.22
  -5   6   4   -0.04    0.19
   5   6  -4    0.04    0.21
  -4  -6   4    2.97    0.28
   4  -6  -4    2.79    0.26
  -4  -6   4    3.17    0.28
  -4  -6   4    2.82    0.30
   4  -6  -4    2.26    0.28
  -4   6   4    2.39    0.25
  -4   6   4    2.53    0.26
   4   6  -4    2.71    0.32
   4   6  -4    2.70    0.35
   4   6  -4    2.13    0.28
   4   6  -4    3.03    0.28
  -4   6   4    2.44    0.31
  -4   6   4    2.23    0.29
   3  -6  -4    2.13    0.22
  -3  -6   4    2.04    0.23
  -3  -6   4    2.33    0.23
  -3  -6   4    3.05    0.56
  -3   6   4    1.97    0.27
   3   6  -4    1.74    0.24
  -3   6   4    2.60    0.22
   3   6  -4    2.01    0.28
   3   6  -4    1.74    0.25
  -3   6   4    1.93    0.24
  -3   6   4    1.85    0.23
   3   6  -4    2.39    0.22
   2  -6  -4    2.51    0.25
  -2  -6   4    2.86    0.31
  -2  -6   4    2.59    0.25
  -2  -6   4    2.34    0.26
   2  -6  -4    2.30    0.30
   2   6  -4    3.04    0.26
   2   6  -4    2.51    0.30
  -2   6   4    1.98    0.25
  -2   6   4    3.00    0.29
   2   6  -4    2.42    0.27
  -2   6   4    2.64    0.29
  -2   6   4    2.84    0.28
   2   6  -4    2.37    0.26
  -2   6   4    2.16    0.24
   1  -6  -4    0.25    0.12
  -1  -6   4    0.16    0.12
  -1  -6   4    0.27    0.13
   1  -6  -4    0.25    0.11
  -1  -6   4    0.38    0.08
   1   6  -4    0.29    0.11
  -1   6   4    0.33    0.11
   1   6  -4    0.40    0.10
  -1   6   4    0.11    0.13
   1   6  -4    0.27    0.16
  -1   6   4    0.19    0.08
   1   6  -4    0.18    0.09
  -1   6   4    0.26    0.07
   0  -6   4    4.27    0.37
   0  -6   4    4.24    0.40
   0  -6   4    4.40    0.35
   0  -6  -4    4.08    0.38
   0  -6  -4    3.24    0.38
   0   6   4    3.31    0.36
   0   6   4    3.45    0.37
   0   6  -4    4.10    0.40
   0   6   4    4.10    0.39
   0   6   4    3.63    0.38
   0   6  -4    4.52    0.38
   0   6   4    3.50    0.36
  -1  -6  -4    6.16    0.73
   1  -6   4    8.39    0.74
   1  -6   4    7.85    0.70
  -1  -6  -4    7.32    0.76
   1  -6   4    7.94    0.69
   1  -6   4    7.66    0.70
   1   6   4    6.82    0.74
  -1   6  -4    8.39    0.71
  -1   6  -4    9.21    0.78
   1   6   4    8.13    0.84
  -1   6  -4    9.18    0.73
   1   6   4    7.35    0.72
   1   6   4    7.63    0.72
   2  -6   4    0.39    0.12
  -2  -6  -4    0.26    0.14
   2  -6   4    0.50    0.12
  -2  -6  -4    0.28    0.12
  -2  -6  -4    0.48    0.13
   2  -6   4    0.36    0.09
   2  -6   4    0.81    0.19
   2  -6   4    0.58    0.11
   2   6   4    0.40    0.14
  -2   6  -4    0.62    0.14
  -2   6  -4    0.62    0.12
   2   6   4    0.34    0.13
   2   6   4    0.76    0.19
  -3  -6  -4    0.19    0.14
   3  -6   4   -0.03    0.09
   3  -6   4   -0.02    0.09
  -3  -6  -4    0.08    0.10
   3  -6   4    0.18    0.13
   3  -6   4   -0.05    0.14
  -3  -6  -4   -0.02    0.10
  -3  -6  -4   -0.03    0.03
  -3   6  -4    0.22    0.14
   3   6   4    0.02    0.13
   3   6   4   -0.11    0.15
  -3   6  -4   -0.05    0.16
   4  -6   4   11.20    0.88
  -4  -6  -4    9.13    0.93
  -4  -6  -4    8.25    0.88
   4  -6   4    9.67    1.02
  -4  -6  -4    9.04    0.92
  -4  -6  -4    9.93    0.90
   4  -6   4   10.83    0.89
   4  -6   4   10.67    0.93
  -4   6  -4   10.43    0.92
   4   6   4    9.41    0.95
   4   6   4    9.29    0.98
   4   6   4    8.55    1.01
  -5  -6  -4    7.83    0.83
   5  -6   4    9.11    0.90
   5  -6   4    9.45    0.83
   5  -6   4    9.62    0.80
   5  -6   4    9.35    0.83
  -5  -6  -4    8.37    0.82
  -5  -6  -4    8.38    0.82
  -5  -6  -4    7.85    0.81
  -5   6  -4   10.97    0.97
   5   6   4    8.49    0.87
   5   6   4    8.35    0.87
  -6  -6  -4    0.16    0.23
   6  -6   4    0.32    0.11
   6  -6   4    0.28    0.16
   6  -6   4    0.29    0.25
  -6  -6  -4   -0.19    0.22
  -6   6  -4    0.22    0.20
   6   6   4    0.68    0.36
   6   6   4   -0.07    0.25
  -7  -6  -4    0.04    0.21
   7  -6   4    0.09    0.25
  -7  -6  -4    0.09    0.27
   7  -6   4   -0.24    0.22
   7   6   4    0.10    0.27
   7   6   4   -0.21    0.32
  -7   6  -4   -0.01    0.23
   8  -6   4    0.95    0.25
  -8  -6  -4    0.67    0.34
  -8  -6  -4    0.96    0.30
   8  -6   4    0.82    0.37
  -8   6  -4    1.06    0.30
   8   6   4    0.38    0.48
   8   6   4    1.22    0.39
   9  -6   4    0.80    0.35
   9  -6   4    0.23    0.43
  -9  -6  -4    0.26    0.32
   9   6   4    0.80    0.59
  -9   6  -4    0.61    0.35
   9   6   4    0.57    0.37
 -10  -7   4    0.14    0.33
  10  -7  -4    0.02    0.31
  10   7  -4    0.38    0.56
 -10   7   4    1.03    0.44
  -9  -7   4   -0.16    0.23
   9  -7  -4    0.00    0.32
  -9  -7   4    0.06    0.26
   9   7  -4   -0.08    0.37
  -9   7   4    0.19    0.42
   8  -7  -4    0.40    0.22
  -8  -7   4    0.20    0.23
  -8  -7   4    0.08    0.21
  -8   7   4    0.45    0.33
   8   7  -4    0.12    0.31
  -7  -7   4    0.08    0.23
  -7  -7   4   -0.07    0.18
   7  -7  -4    0.05    0.19
   7   7  -4   -0.02    0.33
  -7   7   4    0.06    0.14
  -7   7   4    0.09    0.23
   7   7  -4   -0.04    0.14
   6  -7  -4    0.37    0.18
  -6  -7   4   -0.01    0.14
  -6  -7   4    0.12    0.19
   6  -7  -4    0.13    0.13
  -6  -7   4    0.18    0.17
   6   7  -4    0.16    0.14
  -6   7   4    0.16    0.11
   6   7  -4    0.09    0.20
  -6   7   4    0.25    0.21
   6   7  -4   -0.08    0.29
  -5  -7   4    0.04    0.14
  -5  -7   4    0.24    0.19
  -5  -7   4    0.09    0.16
   5  -7  -4    0.11    0.09
   5  -7  -4    0.37    0.15
   5   7  -4   -0.09    0.25
  -5   7   4   -0.06    0.11
   5   7  -4    0.04    0.17
   5   7  -4   -0.13    0.24
  -5   7   4    0.00    0.18
   5   7  -4    0.28    0.19
  -5   7   4    0.00    0.10
   4  -7  -4    0.30    0.12
  -4  -7   4    0.45    0.15
  -4  -7   4    0.30    0.14
  -4  -7   4    0.14    0.13
   4   7  -4    0.49    0.13
  -4   7   4    0.05    0.16
   4   7  -4    0.19    0.22
  -4   7   4    0.32    0.12
   4   7  -4    0.35    0.25
  -4   7   4    0.31    0.09
   4   7  -4    0.12    0.17
   3  -7  -4    3.22    0.28
  -3  -7   4    2.77    0.30
  -3  -7   4    2.33    0.27
  -3   7   4    2.30    0.30
   3   7  -4    3.01    0.28
   3   7  -4    3.02    0.30
  -3   7   4    2.65    0.28
  -3   7   4    2.82    0.33
   3   7  -4    2.19    0.33
  -3   7   4    2.61    0.26
   3   7  -4    2.56    0.30
   2  -7  -4   16.11    1.52
  -2  -7   4   15.68    1.42
  -2  -7   4   16.77    1.47
  -2   7   4   15.66    1.46
  -2   7   4   17.46    1.60
   2   7  -4   17.66    1.46
   2   7  -4   15.21    1.69
  -2   7   4   17.05    1.57
  -2   7   4   13.69    1.44
   2   7  -4   16.71    1.61
   2   7  -4   18.84    1.64
  -2   7   4   16.36    1.56
  -1  -7   4    1.61    0.18
   1  -7  -4    1.38    0.20
   1  -7  -4    1.37    0.23
  -1  -7   4    1.84    0.16
   1   7  -4    1.32    0.17
   1   7  -4    1.58    0.20
   1   7  -4    1.47    0.24
  -1   7   4    1.10    0.16
   1   7  -4    1.73    0.19
  -1   7   4    1.12    0.21
  -1   7   4    1.61    0.19
  -1   7   4    1.17    0.15
   0  -7   4   11.08    0.89
   0  -7  -4    9.56    0.92
   0  -7   4   10.33    0.90
   0  -7  -4    9.77    1.05
   0   7  -4   10.56    0.94
   0   7   4    9.53    0.92
   0   7   4    9.48    0.92
   0   7  -4   11.02    0.96
   0   7  -4   12.83    1.15
   0   7   4    8.71    0.91
  -1  -7  -4    0.21    0.14
   1  -7   4    0.30    0.12
  -1  -7  -4    0.14    0.14
   1  -7   4    0.20    0.06
  -1   7  -4    0.40    0.10
   1   7   4    0.05    0.11
   1   7   4   -0.06    0.17
   1   7   4    0.09    0.13
  -1   7  -4    0.15    0.18
  -2  -7  -4    1.07    0.18
   2  -7   4    1.26    0.20
  -2  -7  -4    1.57    0.22
   2  -7   4    1.50    0.14
   2  -7   4    1.69    0.18
   2  -7   4    1.60    0.15
   2   7   4    1.34    0.25
  -2   7  -4    1.33    0.19
   2   7   4    1.07    0.21
  -2   7  -4    1.73    0.22
   2   7   4    1.14    0.20
   3  -7   4   14.93    1.34
  -3  -7  -4   13.23    1.36
   3  -7   4   15.69    1.32
  -3  -7  -4   13.99    1.46
   3  -7   4   15.54    1.35
   3  -7   4   16.19    1.33
   3   7   4   14.15    1.54
  -3   7  -4   16.58    1.53
   3   7   4   12.10    1.38
   4  -7   4    5.32    0.51
  -4  -7  -4    4.31    0.49
  -4  -7  -4    5.06    0.51
  -4  -7  -4    4.40    0.49
   4  -7   4    6.26    0.49
   4  -7   4    5.67    0.52
   4   7   4    4.35    0.55
  -4   7  -4    6.64    0.55
   4   7   4    4.33    0.57
   5  -7   4    1.45    0.19
  -5  -7  -4    1.32    0.17
   5  -7   4    1.96    0.20
  -5  -7  -4    1.38    0.25
  -5  -7  -4    1.72    0.27
   5  -7   4    1.71    0.25
   5  -7   4    1.59    0.25
  -5  -7  -4    1.70    0.27
   5   7   4    1.16    0.31
  -5   7  -4    1.45    0.27
   5   7   4    0.76    0.31
  -6  -7  -4    0.98    0.26
  -6  -7  -4    0.54    0.24
   6  -7   4    0.71    0.23
   6  -7   4    0.53    0.15
   6  -7   4    0.29    0.23
   6   7   4    0.95    0.29
  -6   7  -4    0.57    0.25
   6   7   4    0.27    0.41
   7  -7   4   -0.13    0.32
   7  -7   4    0.47    0.21
  -7  -7  -4    0.27    0.24
  -7  -7  -4    0.56    0.29
   7   7   4    0.50    0.32
  -7   7  -4    0.20    0.26
   7   7   4   -0.08    0.43
   8  -7   4    0.51    0.38
  -8  -7  -4   -0.19    0.27
   8  -7   4    0.95    0.31
  -8  -7  -4    0.31    0.26
   8   7   4    0.17    0.37
  -8   7  -4   -0.19    0.29
   8   7   4    0.44    0.44
   9  -7   4    0.08    0.37
  -9  -7  -4    0.08    0.30
   9  -7   4   -0.05    0.37
  -9  -7  -4    0.41    0.34
   9   7   4    0.08    0.39
   9   7   4    0.19    0.50
  -9   7  -4    0.16    0.37
 -10  -8   4    1.74    0.45
  10  -8  -4    0.76    0.35
  10   8  -4    0.46    0.46
 -10   8   4    1.46    0.48
   9  -8  -4    0.25    0.34
  -9  -8   4    0.10    0.29
  -9  -8   4    0.08    0.34
  -9   8   4    0.21    0.46
   9   8  -4   -0.41    0.48
   8  -8  -4    9.38    1.05
  -8  -8   4   10.56    0.97
  -8  -8   4   10.71    1.00
   8   8  -4    9.36    1.06
  -8   8   4   10.49    1.14
  -7  -8   4    0.13    0.24
   7  -8  -4   -0.03    0.24
  -7  -8   4    0.24    0.21
   7   8  -4   -0.14    0.33
  -7   8   4    0.28    0.32
   7   8  -4    0.33    0.18
   6  -8  -4    2.08    0.31
  -6  -8   4    2.06    0.28
  -6  -8   4    1.82    0.30
   6   8  -4    2.47    0.38
  -6   8   4    2.28    0.35
   6   8  -4    1.88    0.28
  -6   8   4    1.63    0.22
   6   8  -4    1.63    0.35
  -5  -8   4    0.85    0.19
  -5  -8   4    0.66    0.17
  -5  -8   4    0.58    0.24
   5  -8  -4    1.25    0.16
   5   8  -4    0.84    0.29
  -5   8   4    1.00    0.22
   5   8  -4    0.66    0.18
   5   8  -4    0.43    0.28
  -5   8   4    0.66    0.12
   4  -8  -4    8.94    0.74
  -4  -8   4    7.87    0.77
  -4  -8   4    7.65    0.73
   4   8  -4    8.92    0.75
  -4   8   4    8.04    0.93
   4   8  -4    7.22    0.80
   4   8  -4    7.72    0.77
  -4   8   4    7.44    0.73
  -4   8   4    7.96    0.73
   3  -8  -4    0.38    0.16
  -3  -8   4    0.23    0.12
  -3  -8   4    0.50    0.69
   3   8  -4    0.03    0.17
  -3   8   4   -0.06    0.05
  -3   8   4    0.35    0.20
  -3   8   4    0.03    0.15
   3   8  -4    0.47    0.17
   3   8  -4   -0.14    0.17
   3   8  -4    0.07    0.22
  -3   8   4   -0.16    0.17
  -3   8   4    0.11    0.09
  -2  -8   4   48.72    4.49
   2  -8  -4   52.29    4.79
  -2  -8   4   48.02    4.42
  -2   8   4   47.36    4.75
  -2   8   4   47.66    4.47
  -2   8   4   50.68    4.52
  -2   8   4   49.13    4.52
   2   8  -4   51.82    4.95
   2   8  -4   47.87    5.62
   2   8  -4   50.26    5.19
   2   8  -4   53.52    4.58
  -2   8   4   45.40    4.46
   1  -8  -4    0.31    0.15
  -1  -8   4    0.18    0.09
  -1  -8   4    0.39    0.16
  -1   8   4    0.14    0.10
   1   8  -4   -0.16    0.16
  -1   8   4    0.01    0.19
   1   8  -4    0.53    0.22
  -1   8   4    0.05    0.07
   1   8  -4    0.14    0.14
   0  -8   4   33.21    2.90
   0  -8  -4   31.93    2.98
   0  -8   4   32.73    2.85
   0   8  -4   34.40    3.25
   0   8   4   32.87    2.93
   0   8   4   30.00    3.09
   0   8   4   31.12    3.02
   0   8  -4   35.86    3.26
  -1  -8  -4    1.86    0.29
  -1  -8  -4    2.01    0.28
   1  -8   4    2.67    0.21
   1  -8   4    2.55    0.26
   1   8   4    1.81    0.25
  -1   8  -4    2.75    0.30
  -1   8  -4    2.30    0.28
   1   8   4    1.74    0.31
   1   8   4    1.93    0.29
   2  -8   4   12.48    1.08
   2  -8   4   13.28    1.02
   2  -8   4   13.48    1.09
  -2  -8  -4    9.54    1.10
  -2  -8  -4   11.24    1.13
  -2   8  -4   13.13    1.13
   2   8   4   11.24    1.20
   2   8   4   10.34    1.08
   2   8   4    9.45    1.14
  -3  -8  -4   -0.02    0.15
  -3  -8  -4    0.19    0.18
   3  -8   4    0.49    0.14
  -3  -8  -4    0.20    0.19
   3  -8   4    0.07    0.06
   3  -8   4   -0.15    0.11
   3  -8   4    0.14    0.13
   3   8   4    0.12    0.25
  -3   8  -4    0.24    0.18
   3   8   4   -0.05    0.20
  -4  -8  -4    4.36    0.42
   4  -8   4    4.57    0.46
   4  -8   4    4.15    0.37
   4  -8   4    3.90    0.43
  -4  -8  -4    3.30    0.41
   4  -8   4    5.03    0.40
   4   8   4    3.16    0.46
   4   8   4    3.26    0.43
   5  -8   4    1.35    0.22
  -5  -8  -4    1.12    0.26
   5  -8   4    1.33    0.29
   5  -8   4    1.54    0.20
  -5  -8  -4    1.27    0.26
  -5   8  -4    1.59    0.29
   5   8   4    1.25    0.35
   5   8   4    0.62    0.22
   5   8   4    1.05    0.25
   6  -8   4    0.14    0.23
  -6  -8  -4    0.40    0.22
  -6  -8  -4   -0.06    0.22
   6  -8   4    0.21    0.29
   6   8   4   -0.43    0.44
  -6   8  -4    0.46    0.22
   6   8   4    0.35    0.31
   7  -8   4    0.58    0.28
   7  -8   4    0.41    0.35
  -7  -8  -4   -0.11    0.25
  -7  -8  -4    0.16    0.27
  -7   8  -4    0.58    0.30
   7   8   4    0.47    0.50
   7   8   4   -0.09    0.32
  -8  -8  -4    4.54    0.51
  -8  -8  -4    4.06    0.51
   8  -8   4    3.34    0.51
   8  -8   4    5.49    0.54
   8   8   4    3.93    0.70
  -8   8  -4    3.73    0.63
   8   8   4    3.30    0.58
   9  -8   4   -0.04    0.36
  -9  -8  -4   -0.08    0.41
  -9  -8  -4   -0.17    0.36
   9  -8   4    0.32    0.47
  -9   8  -4    0.66    0.46
  -9  -9   4   -0.42    0.31
   9  -9  -4   -0.09    0.35
  -9  -9   4   -0.16    0.36
   9   9  -4    0.23    0.50
  -9   9   4    0.64    0.47
  -8  -9   4    0.27    0.35
  -8  -9   4    0.62    0.33
   8  -9  -4    0.15    0.32
   8   9  -4    0.78    0.46
  -8   9   4   -0.04    0.32
   7  -9  -4    0.46    0.30
  -7  -9   4    0.22    0.26
  -7  -9   4    0.54    0.27
  -7   9   4    0.74    0.34
   7   9  -4    0.75    0.38
   6  -9  -4    0.56    0.12
  -6  -9   4    0.57    0.23
  -6  -9   4    0.51    0.23
  -6   9   4    0.89    0.26
   6   9  -4    0.50    0.32
   6   9  -4    1.01    0.36
  -5  -9   4    6.83    0.64
  -5  -9   4    6.06    0.60
   5  -9  -4    6.88    0.61
   5   9  -4    6.11    0.67
   5   9  -4    5.90    0.67
   5   9  -4    5.57    0.62
  -5   9   4    6.61    0.68
   4  -9  -4    0.13    0.15
  -4  -9   4    0.08    0.15
  -4  -9   4    0.23    0.24
   4   9  -4    0.18    0.15
   4   9  -4   -0.08    0.26
  -4   9   4    0.55    0.18
  -4   9   4   -0.42    0.24
   3  -9  -4   23.59    1.98
  -3  -9   4   23.58    2.10
  -3  -9   4   21.61    1.96
   3   9  -4   20.88    2.00
  -3   9   4   19.75    1.97
  -3   9   4   24.17    2.12
  -3   9   4   20.54    1.97
   3   9  -4   18.91    2.37
  -3   9   4   20.45    2.03
   3   9  -4   24.44    1.95
  -2  -9   4    0.70    0.14
   2  -9  -4    0.81    0.19
  -2  -9   4    0.94    0.19
   2   9  -4    0.64    0.18
  -2   9   4    0.58    0.12
   2   9  -4    0.76    0.18
  -2   9   4    0.71    0.23
   2   9  -4    0.69    0.28
  -2   9   4    0.51    0.15
  -1  -9   4    0.17    0.15
  -1  -9   4   -0.11    0.10
   1  -9  -4   -0.03    0.18
   1   9  -4    0.09    0.16
   1   9  -4   -0.25    0.17
  -1   9   4    0.21    0.12
   1   9  -4    0.27    0.25
  -1   9   4    0.02    0.17
  -1   9   4    0.04    0.09
   0  -9   4    1.53    0.14
   0  -9  -4    1.54    0.24
   0  -9   4    1.40    0.20
   0   9   4    0.95    0.25
   0   9   4    1.16    0.17
   0   9   4    1.11    0.14
   0   9  -4    0.98    0.22
   0   9  -4    1.60    0.30
   1  -9   4   18.89    1.60
   1  -9   4   18.59    1.60
  -1  -9  -4   17.17    1.68
   1  -9   4   18.34    1.63
   1   9   4   18.45    1.77
   1   9   4   16.08    1.71
   1   9   4   14.67    1.66
  -1   9  -4   20.31    1.67
  -2  -9  -4    0.29    0.21
   2  -9   4    0.09    0.13
   2   9   4   -0.07    0.22
   2   9   4    0.50    0.27
  -2   9  -4    0.09    0.20
  -3  -9  -4    9.55    0.94
  -3  -9  -4   10.61    1.18
   3  -9   4   10.77    0.99
   3   9   4    9.43    0.97
  -3   9  -4   10.88    1.05
   3   9   4    9.92    0.97
  -4  -9  -4    3.97    0.46
   4  -9   4    4.77    0.44
  -4  -9  -4    4.06    0.44
   4   9   4    3.24    0.45
   4   9   4    4.31    0.50
  -4   9  -4    4.38    0.50
   5  -9   4   10.69    1.12
   5  -9   4   12.62    1.08
  -5  -9  -4   11.36    1.04
  -5  -9  -4   11.19    1.07
  -5   9  -4   12.81    1.27
   5   9   4   10.14    1.16
   5   9   4   10.46    1.13
   5   9   4    9.94    1.06
  -6  -9  -4    0.15    0.27
  -6  -9  -4    0.52    0.28
   6  -9   4    0.45    0.32
   6   9   4    0.14    0.33
  -6   9  -4    0.51    0.25
   6   9   4    0.18    0.47
   7  -9   4    1.09    0.97
  -7  -9  -4    0.07    0.67
  -7  -9  -4   -0.03    0.31
   7   9   4   -0.26    0.43
  -7   9  -4    0.08    0.31
   7   9   4   -0.40    0.52
  -8  -9  -4    0.17    0.34
  -8  -9  -4    0.44    0.38
   8  -9   4    0.04    0.42
  -8   9  -4    0.74    0.40
   8   9   4    0.49    0.50
   8   9   4   -0.27    0.47
   9 -10  -4    0.33    0.41
  -9 -10   4    0.44    0.36
  -9 -10   4   -0.03    0.31
  -9  10   4    0.43    0.53
  -8 -10   4    1.66    0.37
  -8 -10   4    1.89    0.39
  -8  10   4    1.67    0.40
   8  10  -4    1.52    0.52
  -7 -10   4    0.35    0.29
  -7 -10   4    0.38    0.31
   7  10  -4    0.06    0.42
  -7  10   4    0.18    0.35
   7  10  -4    0.22    0.30
  -6 -10   4    0.98    0.29
  -6 -10   4    1.01    0.25
   6  10  -4    0.91    0.39
  -6  10   4    0.83    0.35
   6  10  -4    1.23    0.33
   6  10  -4    0.55    0.40
  -5 -10   4    0.12    0.19
   5 -10  -4    0.22    0.18
  -5 -10   4    0.30    0.24
   5  10  -4   -0.19    0.39
   5  10  -4    0.31    0.24
   5  10  -4   -0.30    0.34
  -5  10   4    0.37    0.29
   4 -10  -4    2.07    0.25
  -4 -10   4    1.76    0.28
  -4 -10   4    1.92    0.24
  -4  10   4    1.10    0.33
   4  10  -4    1.25    0.25
   4  10  -4    1.21    0.36
   3 -10  -4    5.74    0.56
  -3 -10   4    5.89    0.52
  -3 -10   4    5.57    0.58
  -3  10   4    4.67    0.57
   3  10  -4    5.50    0.54
   3  10  -4    5.89    0.65
   2 -10  -4    3.02    0.32
  -2 -10   4    2.38    0.41
  -2 -10   4    2.62    0.26
  -2  10   4    2.13    0.34
   2  10  -4    2.40    0.31
  -2  10   4    2.04    0.25
   2  10  -4    2.80    0.36
  -1 -10   4   11.29    1.00
   1 -10  -4   11.34    1.04
  -1 -10   4   10.13    1.03
   1  10  -4   11.96    1.12
   1  10  -4   11.62    1.03
  -1  10   4   10.80    1.06
   0 -10   4    3.87    0.33
   0 -10   4    3.30    0.39
   0 -10  -4    3.74    0.42
   0  10  -4    4.26    0.47
   0  10  -4    3.42    0.39
   0  10   4    2.58    0.43
  -1 -10  -4   -0.24    0.22
   1 -10   4   -0.08    0.16
   1  10   4   -0.16    0.15
   1  10   4   -0.37    0.30
   1  10   4   -0.08    0.28
   2 -10   4    3.37    0.35
  -2 -10  -4    3.41    0.39
   2  10   4    2.35    0.43
   2  10   4    2.50    0.42
  -2  10  -4    3.20    0.39
   3 -10   4    0.60    0.28
  -3 -10  -4    0.17    0.12
  -3 -10  -4    0.41    0.25
   3  10   4    0.51    0.24
  -3  10  -4    0.46    0.28
   3  10   4    0.42    0.30
   4 -10   4   -0.13    0.18
  -4 -10  -4    0.07    0.26
  -4 -10  -4    0.08    0.21
   4  10   4    0.21    0.24
  -4  10  -4    0.11    0.23
   4  10   4   -0.04    0.34
  -5 -10  -4    0.21    0.20
  -5 -10  -4    0.40    0.25
   5 -10   4    0.48    0.22
   5  10   4    0.15    0.32
   5  10   4    1.31    0.42
  -5  10  -4    0.20    0.24
   5  10   4    0.22    0.38
  -6 -10  -4    0.47    0.29
   6 -10   4   -0.04    0.31
  -6 -10  -4   -0.11    0.30
  -6  10  -4   -0.43    0.26
   6  10   4   -0.14    0.40
   6  10   4   -0.11    0.36
  -7 -10  -4   -0.20    0.35
   7 -10   4    0.00    0.33
  -7 -10  -4    0.06    0.26
   7  10   4    0.79    0.41
   7  10   4    0.73    0.47
  -7  10  -4    0.14    0.37
  -8 -10  -4   -0.27    0.37
  -8 -11   4    0.04    0.35
  -8 -11   4    0.19    0.36
  -8  11   4   -0.27    0.44
   8  11  -4    0.53    0.51
  -7 -11   4    0.10    0.32
  -7 -11   4    0.36    0.30
  -7  11   4    1.02    0.41
   7  11  -4   -0.11    0.44
   7  11  -4    0.18    0.47
  -6 -11   4   -0.06    0.26
  -6 -11   4    0.02    0.30
   6  11  -4    0.35    0.42
   6  11  -4    0.00    0.28
   6  11  -4   -0.10    0.39
  -6  11   4    0.08    0.34
  -5 -11   4    5.13    0.65
   5 -11  -4    7.02    0.61
  -5 -11   4    6.22    0.62
   5  11  -4    6.25    0.77
   5  11  -4    6.77    0.69
  -5  11   4    6.42    0.71
   5  11  -4    6.19    0.71
  -4 -11   4    0.20    0.18
   4 -11  -4    0.09    0.24
  -4 -11   4    0.56    0.24
  -4  11   4    0.27    0.32
   4  11  -4    0.51    0.34
   3 -11  -4    0.11    0.21
  -3 -11   4   -0.12    0.22
  -3 -11   4   -0.04    0.17
   3  11  -4    0.12    0.32
  -3  11   4    0.07    0.31
  -2 -11   4    1.54    0.26
  -2 -11   4    1.21    0.20
   2 -11  -4    1.08    0.27
   2  11  -4    1.41    0.32
  -2  11   4    1.01    0.33
   2  11  -4    1.25    0.27
  -1 -11   4    0.16    0.20
   1 -11  -4    0.00    0.23
  -1 -11   4   -0.15    0.11
  -1  11   4   -0.16    0.28
   1  11  -4   -0.51    0.35
   1  11  -4    0.03    0.21
   0 -11   4    2.70    0.32
   0 -11  -4    2.77    0.60
   0 -11   4    2.66    0.26
   0  11   4    2.46    0.41
   0  11  -4    1.96    0.33
   0  11  -4    2.64    0.42
  -1 -11  -4    0.24    0.26
   1 -11   4    0.24    0.19
   1  11   4    0.21    0.26
  -1  11  -4   -0.01    0.33
   1  11   4   -0.13    0.36
   2 -11   4    1.84    0.27
  -2 -11  -4    1.53    0.32
  -2  11  -4    1.95    0.33
   2  11   4    0.89    0.30
   2  11   4    0.61    0.37
  -3 -11  -4    2.80    0.43
   3 -11   4    3.72    0.39
   3  11   4    3.37    0.53
  -3  11  -4    3.40    0.43
   3  11   4    2.56    0.47
   4 -11   4    0.04    0.21
  -4 -11  -4    0.13    0.30
  -4 -11  -4   -0.11    0.21
   4  11   4   -0.04    0.28
   4  11   4   -0.06    0.40
  -4  11  -4    0.15    0.31
  -5 -11  -4    0.56    0.27
  -5 -11  -4    0.74    0.25
   5  11   4    0.36    0.38
   5  11   4    0.32    0.42
  -5  11  -4    0.41    0.34
  -6 -11  -4    0.66    0.33
  -6 -11  -4    1.36    0.37
   6  11   4    0.47    0.46
  -6  11  -4    1.12    0.37
   6  11   4    0.92    0.44
  -7 -11  -4    0.65    0.37
  -7 -11  -4    0.38    0.41
   7  11   4   -0.44    0.64
   7  11   4    0.75    0.57
  -7  11  -4    0.78    0.41
  -7 -12   4    0.32    0.31
  -7 -12   4   -0.25    0.35
   7  12  -4    0.41    0.46
   7  12  -4    0.85    0.54
  -7  12   4   -0.03    0.44
  -6 -12   4    0.08    0.27
  -6 -12   4   -0.20    0.34
  -6  12   4    0.00    0.33
   6  12  -4    0.18    0.46
   6  12  -4    0.02    0.43
  -5 -12   4    0.02    0.30
  -5 -12   4   -0.22    0.23
   5  12  -4    0.13    0.35
  -5  12   4   -0.49    0.37
   5  12  -4    0.65    0.43
   5  12  -4    0.24    0.41
  -4 -12   4    0.01    0.22
  -4 -12   4   -0.04    0.28
   4 -12  -4    0.42    0.30
   4  12  -4   -0.26    0.37
  -4  12   4   -0.02    0.37
   3 -12  -4    0.82    0.31
  -3 -12   4    0.79    0.21
  -3 -12   4    0.62    0.28
   3  12  -4    0.32    0.38
  -3  12   4    0.83    0.31
   2 -12  -4   15.00    1.41
  -2 -12   4   15.54    1.37
  -2 -12   4   13.90    1.38
   2  12  -4   15.46    1.46
  -2  12   4   15.13    1.47
  -1 -12   4    3.12    0.37
   1 -12  -4    2.51    0.39
   1  12  -4    2.32    0.39
  -1  12   4    2.40    0.45
   1  12  -4    3.44    0.46
   0 -12  -4   12.99    1.36
   0 -12   4   13.07    1.33
   0  12  -4   14.35    1.48
   0  12   4   15.07    1.36
   0  12  -4   15.04    1.43
   1 -12   4    0.13    0.22
  -1 -12  -4    0.28    0.29
   1  12   4   -0.15    0.37
  -1  12  -4    0.08    0.31
   1  12   4    0.59    0.42
  -2 -12  -4    0.85    0.34
   2 -12   4    1.23    0.26
   2  12   4    1.50    0.34
   2  12   4    1.12    0.42
  -2  12  -4    1.39    0.32
   3 -12   4    1.11    0.23
  -3 -12  -4    0.84    0.33
   3  12   4    0.26    0.35
  -3  12  -4    0.43    0.30
   3  12   4    0.09    0.46
  -4 -12  -4    0.27    0.35
   4 -12   4    0.09    0.26
   4  12   4    0.15    0.34
  -4  12  -4   -0.13    0.28
   4  12   4   -0.18    0.41
  -5 -12  -4    0.10    0.18
  -5 -12  -4    0.74    0.38
   5  12   4    0.00    0.47
  -5  12  -4    0.07    0.36
  -6 -12  -4    0.81    0.42
  -6 -12  -4    0.26    0.34
   6  12   4    0.41    0.64
  -6  12  -4    0.31    0.41
   6  12   4    0.86    0.49
  -6 -13   4    0.33    0.29
  -6 -13   4    0.20    0.37
   6  13  -4   -0.10    0.35
  -6  13   4   -0.20    0.46
   6  13  -4   -0.82    0.51
  -5 -13   4    2.09    0.42
  -5 -13   4    1.70    0.38
  -5  13   4    1.97    0.45
   5  13  -4    1.89    0.46
   5  13  -4    1.66    0.60
  -4 -13   4    0.90    0.34
   4 -13  -4    1.18    0.35
   4  13  -4   -0.02    0.52
  -4  13   4    0.53    0.42
   4  13  -4    0.45    0.39
  -3 -13   4    0.67    0.33
   3 -13  -4    1.34    0.32
  -3  13   4    0.62    0.40
   3  13  -4    2.83    0.48
   2 -13  -4    4.22    0.51
  -2 -13   4    5.03    0.51
  -2  13   4    3.31    0.53
   2  13  -4    4.55    0.63
  -1 -13   4    2.46    0.35
   1 -13  -4    1.29    0.36
  -1  13   4    1.77    0.40
   1  13  -4    1.74    0.43
   0 -13   4    0.14    0.31
   0 -13  -4    1.45    0.49
   0  13   4    0.48    0.42
   0  13   4   -0.14    0.46
   0  13  -4    0.41    0.42
  -1 -13  -4    0.93    0.35
   1 -13   4    0.98    0.32
  -1  13  -4    0.53    0.28
   1  13   4    0.53    0.36
  -1  13  -4    0.63    0.44
   1  13   4    0.73    0.44
   2 -13   4    0.98    0.29
  -2 -13  -4    0.81    0.28
   2  13   4    1.18    0.50
   2  13   4    1.24    0.48
  -2  13  -4    1.49    0.45
  -3 -13  -4    9.69    1.04
   3 -13   4   11.25    1.04
   3  13   4    9.15    1.09
   3  13   4    9.52    1.08
  -3  13  -4   11.87    1.12
  -4 -13  -4    0.69    0.31
  -4  13  -4    0.74    0.42
   4  13   4    0.17    0.47
   4  13   4    0.44    0.55
  -5 -13  -4    0.76    0.56
  -5  13  -4    1.31    0.39
   5  13   4    0.68    0.54
  -5 -14   4    2.10    0.83
  -5  14   4    0.28    0.48
   5  14  -4   -0.10    0.63
   4 -14  -4    0.57    0.33
  -4 -14   4    0.67    0.38
   4  14  -4    0.11    0.47
   4  14  -4    0.23    0.48
  -4  14   4    0.49    0.36
   3 -14  -4   -0.42    0.31
  -3 -14   4    0.00    0.33
   3  14  -4   -0.01    0.57
  -3  14   4    1.13    1.11
   2 -14  -4    3.04    0.44
  -2 -14   4    2.00    0.47
   2  14  -4    1.97    0.50
  -2  14   4    2.31    0.53
   1 -14  -4    0.28    0.37
  -1 -14   4    0.08    0.31
  -1  14   4   -0.36    0.45
   1  14  -4    0.12    0.51
   0 -14  -4    0.16    0.36
   0 -14   4    0.48    0.37
   0  14  -4    0.08    0.49
   0  14   4    1.42    1.08
   0  14   4   -0.09    0.54
  -1 -14  -4    0.49    0.40
   1 -14   4    0.14    0.36
  -1  14  -4    0.66    0.49
   1  14   4    0.51    0.51
   1  14   4    0.64    0.55
  -2 -14  -4    1.33    0.43
   2 -14   4    0.85    0.38
   2  14   4    0.03    0.41
   2  14   4   -0.42    0.54
  -2  14  -4    0.57    0.48
  -3 -14  -4    0.69    0.45
   3 -14   4    0.32    0.31
  -3  14  -4   -0.10    0.46
   3  14   4   -0.07    0.54
   3  14   4    0.83    0.59
  -4 -14  -4   -0.55    0.46
   4  14   4    0.37    0.61
  -4  14  -4    0.32    0.47
  -3 -15   4   -0.11    0.37
   3 -15  -4   -0.60    0.35
  -3  15   4    0.20    0.50
   3  15  -4   -0.20    0.53
  -2 -15   4   -0.66    0.38
   2 -15  -4   -0.21    0.38
  -2  15   4    0.38    0.52
   2  15  -4   -0.21    0.49
  -1 -15   4    0.39    0.44
   1 -15  -4    0.69    0.41
  -1  15   4    0.04    0.56
   1  15  -4    0.17    0.53
   0 -15  -4    0.15    0.43
   0 -15   4    0.38    0.36
   0  15  -4    0.15    0.45
   0  15   4    0.32    0.69
   0  15   4    0.26    0.65
   1 -15   4    0.35    0.44
  -1 -15  -4   -0.10    0.45
   1  15   4   -0.25    0.65
  -1  15  -4    0.39    1.18
   1  15   4   -0.06    0.57
   2 -15   4    0.54    0.44
  -2 -15  -4   -0.12    0.47
   2  15   4    0.01    0.57
   2  15   4    1.07    0.65
  -2  15  -4   -0.23    0.52
 -11   0   5    0.14    0.34
  11   0  -5    0.37    0.44
 -10   0   5    0.11    0.30
  10   0  -5    0.30    0.30
   9   0  -5    0.69    0.30
  -9   0   5    0.45    0.24
  -8   0   5    0.05    0.10
  -8   0   5   -0.18    0.19
   8   0  -5   -0.06    0.18
   7   0  -5   26.21    2.88
  -7   0   5   32.14    2.63
  -7   0   5   27.16    2.80
  -7   0   5   29.36    2.57
  -6   0   5    0.00    0.07
   6   0  -5    0.14    0.15
  -6   0   5   -0.06    0.09
  -6   0   5    0.02    0.11
   5   0  -5    6.09    0.63
  -5   0   5    6.55    0.59
  -5   0   5    7.78    0.70
  -5   0   5    7.75    0.61
  -5   0   5    6.54    0.59
   5   0  -5    6.83    0.66
  -5   0   5    6.00    0.65
   4   0  -5   -0.02    0.09
   4   0  -5   -0.16    0.12
  -4   0   5   -0.01    0.03
  -4   0   5    0.01    0.10
  -4   0   5   -0.09    0.09
  -4   0   5    0.03    0.04
   4   0  -5    0.18    0.10
  -4   0   5    0.05    0.07
  -3   0   5    4.27    0.35
   3   0  -5    3.41    0.39
   3   0  -5    3.37    0.33
  -3   0   5    4.62    0.38
   3   0  -5    3.38    0.34
  -3   0   5    3.60    0.34
  -3   0   5    3.26    0.34
  -2   0   5    0.02    0.07
   2   0  -5   -0.02    0.05
   2   0  -5   -0.02    0.04
   2   0  -5    0.00    0.07
  -2   0   5    0.01    0.08
  -2   0   5    0.07    0.05
  -2   0   5   -0.01    0.04
   2   0  -5    0.02    0.08
   1   0  -5   68.52    6.49
   1   0  -5   63.32    6.47
  -1   0   5   75.88    6.65
  -1   0   5   66.72    6.41
  -1   0   5   61.66    5.42
  -1   0   5   57.19    5.32
  -1   0   5   53.11    5.53
   0   0  -5   -0.03    0.06
   0   0  -5   -0.19    0.07
   0   0   5   -0.01    0.05
   0   0   5    0.09    0.07
   1   0   5   40.65    3.95
  -1   0  -5   42.24    4.17
  -1   0  -5   47.62    5.46
   1   0   5   51.39    5.47
   1   0   5   53.48    4.78
  -2   0  -5    0.00    0.10
  -2   0  -5    0.04    0.04
   2   0   5   -0.05    0.11
   2   0   5    0.20    0.12
   2   0   5   -0.01    0.10
   2   0   5    0.01    0.08
   3   0   5   10.75    1.00
  -3   0  -5   10.46    0.96
   3   0   5   11.93    1.18
   3   0   5   11.19    1.08
   3   0   5   12.53    1.17
  -3   0  -5   11.30    1.10
  -3   0  -5    9.41    1.08
  -4   0  -5    0.01    0.13
   4   0   5   -0.04    0.14
   4   0   5    0.01    0.26
  -4   0  -5   -0.01    0.12
   4   0   5   -0.03    0.15
  -4   0  -5   -0.09    0.08
  -4   0  -5   -0.32    0.25
  -5   0  -5    5.56    0.57
   5   0   5    5.24    0.56
   5   0   5    5.64    0.57
   5   0   5    6.00    0.53
  -6   0  -5    0.10    0.15
   6   0   5    0.18    0.20
  -6   0  -5    0.05    0.13
   6   0   5   -0.14    0.21
   6   0   5    0.05    0.15
   7   0   5   -0.27    0.26
   7   0   5   -0.26    0.21
  -7   0  -5    0.52    0.18
  -7   0  -5    0.18    0.22
   7   0   5    0.69    0.28
   8   0   5    0.11    0.31
  -8   0  -5    0.00    0.22
  -8   0  -5    0.08    0.25
   8   0   5   -0.31    0.29
  -9   0  -5    0.75    0.31
   9   0   5    1.98    0.39
   9   0   5    1.39    0.39
  10   0   5   -0.02    0.43
  10   0   5    0.27    0.40
 -10   0  -5    0.44    0.36
 -11  -1   5   -0.07    0.35
  11  -1  -5    0.22    0.42
 -11   1   5    0.10    0.40
  11   1  -5    0.03    0.44
 -11   1   5    0.74    0.29
 -10  -1   5    0.94    0.33
  10  -1  -5    1.02    0.31
 -10   1   5    1.06    0.32
  10   1  -5    1.01    0.34
  -9  -1   5   -0.15    0.20
   9  -1  -5    0.12    0.23
   9   1  -5    0.02    0.25
  -9   1   5    0.29    0.23
  -8  -1   5    0.19    0.13
  -8  -1   5    0.41    0.21
   8  -1  -5   -0.04    0.19
  -8   1   5    0.57    0.20
   8   1  -5    0.15    0.19
  -7  -1   5    3.77    0.37
  -7  -1   5    4.53    0.41
  -7  -1   5    4.20    0.39
   7  -1  -5    4.34    0.43
   7   1  -5    4.04    0.44
  -7   1   5    4.01    0.41
  -7   1   5    3.61    0.38
  -7   1   5    4.17    0.36
  -6  -1   5   -0.05    0.10
   6  -1  -5   -0.05    0.15
  -6  -1   5    0.03    0.03
  -6  -1   5   -0.02    0.12
  -6   1   5    0.04    0.08
  -6   1   5   -0.05    0.08
   6   1  -5   -0.16    0.15
  -6   1   5   -0.04    0.13
   5  -1  -5    5.49    0.51
   5  -1  -5    5.38    0.51
  -5  -1   5    5.84    0.58
  -5  -1   5    4.33    0.61
  -5  -1   5    5.51    0.48
  -5  -1   5    5.55    0.51
  -5  -1   5    5.52    0.49
  -5   1   5    4.56    0.47
  -5   1   5    5.28    0.49
   5   1  -5    5.17    0.52
  -5   1   5    5.67    0.53
   5   1  -5    5.56    0.55
   5   1  -5    4.64    0.50
  -5   1   5    6.21    0.49
  -4  -1   5    0.01    0.10
  -4  -1   5    0.07    0.11
   4  -1  -5    0.03    0.12
   4  -1  -5    0.22    0.11
   4  -1  -5    0.07    0.09
  -4  -1   5    0.09    0.10
  -4  -1   5    0.03    0.06
  -4  -1   5    0.03    0.09
  -4   1   5    0.10    0.11
   4   1  -5    0.10    0.12
  -4   1   5    0.07    0.09
  -4   1   5    0.07    0.11
  -4   1   5   -0.01    0.05
   4   1  -5    0.02    0.09
   4   1  -5    0.07    0.12
   3  -1  -5   11.40    1.09
  -3  -1   5   12.37    1.08
   3  -1  -5   11.75    1.10
   3  -1  -5   12.62    1.28
  -3  -1   5   10.63    1.06
  -3  -1   5   15.22    1.33
  -3   1   5   13.47    1.12
   3   1  -5   11.45    1.11
  -3   1   5   12.88    1.20
   3   1  -5   13.30    1.14
  -3   1   5   12.27    1.08
  -3   1   5   13.45    1.09
   3   1  -5   14.08    1.25
  -2  -1   5    1.01    0.10
   2  -1  -5    0.83    0.10
  -2  -1   5    0.80    0.12
   2  -1  -5    0.97    0.13
  -2  -1   5    0.72    0.11
  -2  -1   5    0.91    0.09
  -2  -1   5    1.28    0.13
   2   1  -5    0.80    0.12
  -2   1   5    0.72    0.12
   2   1  -5    0.78    0.09
  -2   1   5    0.92    0.12
   2   1  -5    0.95    0.11
  -2   1   5    1.21    0.11
   2   1  -5    0.88    0.13
  -2   1   5    0.89    0.11
  -1  -1   5   39.32    3.26
   1  -1  -5   35.35    3.64
  -1  -1   5   35.03    3.23
   1  -1  -5   35.89    4.36
  -1  -1   5   42.18    3.71
  -1  -1   5   40.09    3.74
   1   1  -5   35.70    3.59
  -1   1   5   38.33    3.31
   1   1  -5   34.51    3.37
  -1   1   5   41.19    3.76
  -1   1   5   30.77    3.17
   1   1  -5   38.88    4.19
   0  -1  -5   19.81    2.11
   0  -1  -5   21.66    2.50
   0  -1   5   23.39    2.01
   0  -1   5   23.87    2.18
   0  -1   5   25.57    2.37
   0   1   5   21.76    2.02
   0   1   5   25.70    2.51
   0   1  -5   21.29    2.17
   0   1  -5   22.18    2.28
   0   1  -5   22.47    2.43
   1  -1   5   31.92    3.12
   1  -1   5   27.94    2.71
  -1  -1  -5   26.39    2.76
   1  -1   5   24.77    2.40
  -1   1  -5   26.43    2.64
   1   1   5   25.39    2.47
  -1   1  -5   23.79    2.48
  -1   1  -5   26.23    2.73
   1   1   5   28.28    2.75
  -2  -1  -5    0.04    0.07
   2  -1   5   -0.10    0.12
   2  -1   5    0.17    0.10
   2  -1   5    0.02    0.08
   2  -1   5    0.09    0.07
  -2   1  -5    0.05    0.06
  -2   1  -5    0.01    0.09
   2   1   5    0.03    0.10
   2   1   5   -0.01    0.08
   2   1   5   -0.03    0.11
  -2   1  -5    0.09    0.08
   2   1   5   -0.08    0.10
   3  -1   5   36.35    2.91
   3  -1   5   27.93    3.08
  -3  -1  -5   28.44    2.94
   3  -1   5   29.21    2.65
  -3  -1  -5   25.32    2.63
  -3  -1  -5   25.62    2.49
   3  -1   5   30.44    3.57
  -3   1  -5   26.98    3.01
   3   1   5   27.20    2.67
   3   1   5   31.44    3.32
   3   1   5   29.56    2.85
  -3   1  -5   27.94    2.51
   3   1   5   28.48    2.91
  -3   1  -5   30.42    3.21
  -4  -1  -5   -0.05    0.24
  -4  -1  -5    0.10    0.07
  -4  -1  -5    0.24    0.07
   4  -1   5    0.16    0.14
  -4  -1  -5    0.07    0.11
   4  -1   5    0.18    0.15
   4  -1   5    0.55    0.12
   4  -1   5    0.10    0.12
   4   1   5   -0.09    0.16
  -4   1  -5    0.23    0.08
   4   1   5    0.10    0.11
   4   1   5    0.24    0.14
  -4   1  -5    0.19    0.08
  -4   1  -5    0.04    0.14
  -5  -1  -5    2.36    0.25
   5  -1   5    2.28    0.29
  -5  -1  -5    2.26    0.26
   5  -1   5    1.92    0.28
   5  -1   5    2.65    0.26
  -5  -1  -5    3.25    0.75
   5   1   5    2.22    0.29
  -5   1  -5    1.79    0.25
  -5   1  -5    3.05    0.34
   5   1   5    2.88    0.27
   5   1   5    1.81    0.30
   6  -1   5    0.41    0.15
  -6  -1  -5    0.02    0.13
   6  -1   5   -0.08    0.21
  -6  -1  -5    0.08    0.11
  -6  -1  -5   -0.16    0.19
   6  -1   5    0.01    0.24
   6   1   5   -0.06    0.22
   6   1   5   -0.07    0.16
   6   1   5   -0.18    0.14
  -6   1  -5    0.15    0.16
  -6   1  -5   -0.14    0.17
   7  -1   5    1.09    0.32
  -7  -1  -5    1.08    0.26
   7  -1   5    1.43    0.28
   7   1   5    1.21    0.29
  -7   1  -5    0.58    0.20
  -7   1  -5    0.80    0.20
   7   1   5    0.82    0.29
   8  -1   5   -0.05    0.28
  -8  -1  -5    0.06    0.21
   8  -1   5    0.01    0.28
  -8  -1  -5   -0.03    0.22
   8   1   5   -0.07    0.31
  -8   1  -5   -0.20    0.24
  -8   1  -5    0.01    0.20
   8   1   5   -0.30    0.38
   9  -1   5    2.39    0.36
  -9  -1  -5    2.24    0.37
   9  -1   5    1.22    0.47
   9   1   5    1.44    0.44
  -9   1  -5    1.86    0.36
   9   1   5    1.47    0.41
  10  -1   5    0.37    0.37
 -10  -1  -5    0.11    0.31
  10  -1   5   -0.20    0.42
 -10   1  -5    0.03    0.35
  10   1   5    0.11    0.55
  10   1   5    0.70    0.39
  11  -2  -5    0.05    0.33
 -11  -2   5    0.35    0.30
  11   2  -5   -0.26    0.44
 -11   2   5   -0.29    0.47
 -11   2   5   -0.13    0.32
  10  -2  -5    3.17    0.40
 -10  -2   5    2.78    0.38
 -10   2   5    2.46    0.46
 -10   2   5    2.36    0.35
  10   2  -5    2.13    0.41
  -9  -2   5   -0.03    0.25
   9  -2  -5   -0.31    0.28
  -9   2   5   -0.11    0.22
  -9   2   5   -0.12    0.25
   9   2  -5    0.35    0.32
   8  -2  -5    0.37    0.18
  -8  -2   5    0.43    0.18
  -8  -2   5    0.13    0.13
  -8   2   5    0.29    0.19
   8   2  -5    0.21    0.21
  -7  -2   5    0.55    0.12
  -7  -2   5    0.76    0.17
   7  -2  -5    0.43    0.19
  -7   2   5    0.42    0.12
  -7   2   5    0.49    0.07
  -7   2   5    0.49    0.06
  -7   2   5    0.51    0.16
   7   2  -5    0.53    0.22
   6  -2  -5    0.43    0.13
  -6  -2   5    0.41    0.11
  -6  -2   5    0.34    0.16
  -6   2   5    0.23    0.07
  -6   2   5    0.21    0.05
  -6   2   5    0.11    0.13
  -6   2   5    0.30    0.10
   6   2  -5    0.44    0.16
  -5  -2   5    0.00    0.10
  -5  -2   5   -0.07    0.10
  -5  -2   5   -0.07    0.14
   5  -2  -5    0.13    0.11
  -5  -2   5    0.13    0.12
   5  -2  -5    0.02    0.11
   5   2  -5    0.11    0.15
   5   2  -5   -0.09    0.13
  -5   2   5    0.17    0.15
  -5   2   5   -0.09    0.07
  -5   2   5   -0.09    0.10
  -5   2   5   -0.03    0.04
   4  -2  -5   15.94    1.54
  -4  -2   5   18.50    1.52
   4  -2  -5   15.43    1.54
  -4  -2   5   20.83    1.86
  -4  -2   5   20.72    1.89
  -4  -2   5   20.57    1.57
  -4  -2   5   16.76    1.51
  -4   2   5   19.15    1.55
   4   2  -5   14.96    1.62
  -4   2   5   16.56    1.52
   4   2  -5   16.72    1.65
  -4   2   5   18.77    1.65
   4   2  -5   18.94    1.63
  -4   2   5   15.46    1.52
  -3  -2   5    1.43    0.16
   3  -2  -5    0.81    0.12
   3  -2  -5    0.93    0.15
  -3  -2   5    1.04    0.13
   3  -2  -5    1.07    0.12
  -3  -2   5    1.22    0.13
  -3  -2   5    0.91    0.13
  -3   2   5    0.94    0.11
  -3   2   5    0.91    0.14
  -3   2   5    0.76    0.13
  -3   2   5    0.79    0.12
   3   2  -5    0.97    0.15
   3   2  -5    0.86    0.12
   3   2  -5    0.96    0.14
   3   2  -5    1.13    0.10
  -2  -2   5   56.57    5.31
   2  -2  -5   64.91    6.29
  -2  -2   5   51.43    5.29
  -2  -2   5   74.13    5.68
  -2   2   5   54.50    5.34
   2   2  -5   69.87    6.33
  -2   2   5   67.00    5.67
   2   2  -5   69.15    7.44
   2   2  -5   54.68    5.59
  -2   2   5   61.52    5.45
  -2   2   5   72.10    7.01
  -2   2   5   61.60    5.39
   2   2  -5   67.67    6.01
   2   2  -5   68.75    6.60
   1  -2  -5   18.69    2.02
  -1  -2   5   18.03    1.81
  -1  -2   5   23.44    1.90
  -1  -2   5   21.39    1.89
   1  -2  -5   17.14    1.93
  -1  -2   5   24.63    1.84
  -1   2   5   19.34    1.90
  -1   2   5   20.61    1.84
  -1   2   5   23.25    2.23
   1   2  -5   20.35    1.93
   1   2  -5   21.69    1.95
   1   2  -5   19.35    1.94
  -1   2   5   20.19    1.87
   1   2  -5   21.05    2.03
   0  -2   5    3.03    0.29
   0  -2   5    3.00    0.27
   0  -2  -5    2.69    0.29
   0  -2  -5    2.78    0.28
   0  -2   5    3.65    0.32
   0   2   5    2.99    0.28
   0   2   5    3.04    0.28
   0   2  -5    3.35    0.30
   0   2   5    2.56    0.29
   0   2  -5    3.06    0.29
   0   2  -5    3.36    0.29
   0   2  -5    3.23    0.28
   0   2   5    3.42    1.40
  -1  -2  -5   -0.17    0.06
   1  -2   5   -0.02    0.07
  -1  -2  -5    0.00    0.05
   1  -2   5    0.05    0.09
   1  -2   5   -0.09    0.05
  -1  -2  -5   -0.09    0.07
  -1   2  -5   -0.03    0.07
   1   2   5    0.13    0.08
   1   2   5   -0.15    0.08
  -1   2  -5    0.15    0.08
   1   2   5   -0.10    0.10
  -1   2  -5    0.00    0.05
   2  -2   5    5.83    0.57
  -2  -2  -5    5.41    0.54
   2  -2   5    6.35    0.60
   2  -2   5    6.75    1.37
   2  -2   5    6.45    0.56
  -2  -2  -5    5.46    0.58
  -2   2  -5    5.76    0.62
  -2   2  -5    5.54    0.54
  -2   2  -5    5.84    0.56
   2   2   5    5.94    0.54
   2   2   5    6.39    0.70
   2   2   5    5.76    0.54
   2   2   5    5.48    0.60
  -3  -2  -5    0.15    0.05
  -3  -2  -5    0.12    0.10
   3  -2   5    0.13    0.11
  -3  -2  -5    0.29    0.09
   3  -2   5    0.13    0.11
   3  -2   5    0.11    0.13
   3  -2   5    0.35    0.11
  -3  -2  -5    0.23    0.12
   3   2   5    0.15    0.10
   3   2   5    0.16    0.13
   3   2   5    0.26    0.13
  -3   2  -5    0.18    0.11
   3   2   5    0.09    0.16
  -3   2  -5    0.14    0.10
  -3   2  -5    0.33    0.10
   4  -2   5    4.71    0.44
   4  -2   5    5.02    0.49
  -4  -2  -5    4.01    0.43
  -4  -2  -5    4.72    0.44
  -4  -2  -5    4.67    0.44
   4  -2   5    4.76    0.52
   4   2   5    4.33    0.44
  -4   2  -5    4.64    0.47
   4   2   5    4.50    0.47
   4   2   5    4.98    0.53
  -4   2  -5    4.83    0.45
  -5  -2  -5    3.36    0.37
   5  -2   5    4.76    0.38
   5  -2   5    3.48    0.40
   5  -2   5    3.37    0.39
  -5  -2  -5    4.19    0.39
  -5  -2  -5    3.62    0.41
  -5   2  -5    3.83    0.38
   5   2   5    3.67    0.39
   5   2   5    3.80    0.40
  -5   2  -5    3.68    0.39
   5   2   5    3.44    0.42
  -6  -2  -5   28.53    2.72
   6  -2   5   27.77    2.78
  -6  -2  -5   22.23    2.70
   6  -2   5   31.01    2.92
  -6  -2  -5   29.85    2.55
   6  -2   5   27.77    2.51
   6   2   5   27.82    2.73
  -6   2  -5   30.39    2.61
  -6   2  -5   27.63    2.71
   6   2   5   28.74    2.87
  -7  -2  -5    0.04    0.20
   7  -2   5    0.15    0.19
  -7  -2  -5    0.08    0.15
   7  -2   5   -0.10    0.24
   7   2   5    0.01    0.35
   7   2   5   -0.21    0.26
  -7   2  -5   -0.14    0.19
  -7   2  -5    0.01    0.18
   8  -2   5    4.08    0.46
  -8  -2  -5    3.82    0.44
   8  -2   5    3.14    0.49
  -8  -2  -5    3.83    0.48
   8   2   5    3.12    0.56
   8   2   5    4.57    0.51
  -8   2  -5    4.75    0.46
  -8   2  -5    4.06    0.48
   9  -2   5    0.91    0.33
  -9  -2  -5    0.41    0.27
   9  -2   5    0.18    0.36
   9   2   5    0.48    0.39
  -9   2  -5    0.80    0.31
   9   2   5    0.26    0.38
 -10  -2  -5    0.05    0.36
  10  -2   5    0.44    0.42
  10  -2   5    0.31    0.37
 -10   2  -5   -0.25    0.33
  10   2   5   -0.14    0.38
  10   2   5    0.18    0.58
  11  -3  -5    0.90    0.35
 -11  -3   5    0.45    0.38
 -11   3   5    0.28    0.33
  11   3  -5   -0.30    0.46
 -11   3   5    0.01    0.49
  10  -3  -5    1.42    0.31
 -10  -3   5    1.13    0.35
  10   3  -5    0.88    0.42
 -10   3   5    1.17    0.36
 -10   3   5    0.79    0.31
  -9  -3   5    0.73    0.28
   9  -3  -5    0.88    0.24
  -9   3   5    0.44    0.23
  -9   3   5    0.76    0.28
   9   3  -5    0.32    0.36
  -8  -3   5    2.51    0.30
  -8  -3   5    2.81    0.33
   8  -3  -5    2.72    0.32
  -8   3   5    2.77    0.32
  -8   3   5    2.72    0.37
   8   3  -5    2.85    0.39
  -7  -3   5    6.06    0.58
   7  -3  -5    5.80    0.63
  -7  -3   5    6.59    0.67
  -7   3   5    7.01    0.59
  -7   3   5    6.37    0.65
   7   3  -5    5.80    0.65
   6  -3  -5   -0.14    0.13
  -6  -3   5    0.12    0.15
  -6  -3   5    0.01    0.12
  -6   3   5   -0.04    0.14
   6   3  -5   -0.08    0.18
  -6   3   5    0.04    0.05
  -6   3   5    0.06    0.10
  -6   3   5    0.03    0.15
   6   3  -5    0.28    0.14
  -5  -3   5    2.73    0.32
  -5  -3   5    2.93    0.32
  -5  -3   5    3.44    0.30
  -5  -3   5    3.07    0.28
   5  -3  -5    2.36    0.28
   5  -3  -5    2.45    0.29
  -5   3   5    2.94    0.32
  -5   3   5    2.23    0.26
  -5   3   5    2.76    0.28
  -5   3   5    3.02    0.27
   5   3  -5    3.17    0.32
   5   3  -5    2.75    0.31
   4  -3  -5   18.22    1.80
  -4  -3   5   24.36    2.33
  -4  -3   5   18.68    1.77
  -4  -3   5   20.48    1.77
  -4  -3   5   23.96    2.02
   4  -3  -5   19.43    1.82
   4   3  -5   22.74    2.24
  -4   3   5   20.93    1.99
   4   3  -5   22.25    1.92
  -4   3   5   22.27    1.82
  -4   3   5   18.45    1.79
  -4   3   5   21.15    1.87
   4   3  -5   20.29    2.04
  -4   3   5   21.41    1.92
   3  -3  -5    1.76    0.21
   3  -3  -5    1.88    0.19
  -3  -3   5    2.35    0.22
  -3  -3   5    1.87    0.19
   3  -3  -5    1.67    0.18
  -3  -3   5    2.15    0.20
  -3  -3   5    1.51    0.18
   3   3  -5    1.60    0.16
  -3   3   5    1.66    0.20
   3   3  -5    1.59    0.20
   3   3  -5    1.84    0.19
  -3   3   5    1.49    0.19
  -3   3   5    1.77    0.19
  -3   3   5    2.00    0.22
   3   3  -5    1.72    0.21
   3   3  -5    1.90    0.21
  -3   3   5    2.00    0.18
  -2  -3   5    6.70    0.70
  -2  -3   5    9.85    0.78
   2  -3  -5    7.49    0.75
  -2  -3   5    8.56    0.71
  -2  -3   5    9.53    0.74
  -2   3   5    7.14    0.71
  -2   3   5    8.21    0.74
   2   3  -5    9.50    0.88
   2   3  -5    7.20    0.75
  -2   3   5    7.84    0.74
  -2   3   5    7.61    0.74
   2   3  -5    7.49    0.72
  -2   3   5    7.98    0.85
   2   3  -5    8.20    0.73
   2   3  -5    9.66    0.88
  -2   3   5    8.32    0.71
  -1  -3   5    0.22    0.06
  -1  -3   5    0.21    0.07
   1  -3  -5    0.34    0.08
   1  -3  -5    0.14    0.07
  -1  -3   5    0.15    0.10
   1   3  -5    0.21    0.09
  -1   3   5    0.27    0.07
  -1   3   5    0.20    0.08
   1   3  -5    0.50    0.13
  -1   3   5    0.15    0.07
  -1   3   5    0.35    0.09
   1   3  -5    0.39    0.08
   0  -3  -5    0.14    0.06
   0  -3  -5    0.00    0.06
   0  -3   5    0.08    0.07
   0  -3  -5    0.01    0.07
   0  -3   5   -0.08    0.07
   0  -3  -5   -0.01    0.10
   0  -3   5    0.08    0.09
   0   3  -5    0.02    0.09
   0   3   5    0.11    0.08
   0   3   5    0.04    0.07
   0   3  -5   -0.04    0.09
   0   3  -5    0.03    0.04
   0   3  -5    0.02    0.07
   0   3   5    0.01    0.08
   0   3   5   -0.01    0.06
   1  -3   5  295.51   26.61
   1  -3   5  302.24   27.99
  -1  -3  -5  238.61   24.69
   1  -3   5  299.94   26.33
  -1  -3  -5  267.38   26.93
  -1  -3  -5  278.33   27.19
   1   3   5  239.53   24.38
   1   3   5  305.40   29.11
  -1   3  -5  306.25   25.77
  -1   3  -5  284.61   29.19
   1   3   5  272.83   24.69
   1   3   5  271.08   27.55
  -1   3  -5  305.34   24.76
   2  -3   5   28.65    2.78
   2  -3   5   27.76    2.43
  -2  -3  -5   25.13    2.41
   2  -3   5   27.08    2.44
  -2  -3  -5   21.56    2.21
   2  -3   5   29.17    2.98
  -2  -3  -5   26.23    2.73
  -2   3  -5   26.89    2.36
   2   3   5   24.64    2.37
  -2   3  -5   26.62    2.51
  -2   3  -5   26.62    2.47
   2   3   5   28.66    3.50
   2   3   5   26.45    2.34
   2   3   5   24.36    2.24
   3  -3   5   37.68    3.41
   3  -3   5   30.01    2.69
   3  -3   5   29.09    2.58
  -3  -3  -5   26.29    2.53
  -3  -3  -5   26.72    2.41
  -3  -3  -5   26.92    2.95
  -3  -3  -5   23.98    2.39
   3  -3   5   30.69    3.19
  -3   3  -5   28.27    2.68
  -3   3  -5   29.59    2.87
   3   3   5   28.26    2.95
   3   3   5   25.91    2.61
  -3   3  -5   30.77    2.59
   3   3   5   26.47    2.64
   3   3   5   26.65    2.74
  -4  -3  -5    3.11    0.31
   4  -3   5    2.85    0.36
   4  -3   5    2.89    0.31
   4  -3   5    2.53    0.33
  -4  -3  -5    2.72    0.29
   4  -3   5    2.95    0.30
  -4   3  -5    2.96    0.31
   4   3   5    2.90    0.34
   4   3   5    2.71    0.30
  -4   3  -5    3.18    0.30
   4   3   5    2.28    0.34
   5  -3   5    0.71    0.15
   5  -3   5    0.65    0.45
  -5  -3  -5    0.48    0.12
  -5  -3  -5    0.63    0.19
  -5  -3  -5    0.61    0.14
   5  -3   5    0.22    0.14
  -5   3  -5    0.45    0.16
   5   3   5    0.57    0.20
   5   3   5    0.48    0.24
   6  -3   5    0.71    0.26
   6  -3   5    0.88    0.22
  -6  -3  -5    1.32    0.25
  -6  -3  -5    0.86    0.20
   6  -3   5    1.12    0.16
  -6  -3  -5    0.45    0.15
  -6   3  -5    0.70    0.19
   6   3   5    0.80    0.23
   6   3   5    0.60    0.26
  -7  -3  -5    0.31    0.26
   7  -3   5    0.15    0.28
  -7  -3  -5   -0.01    0.11
   7  -3   5   -0.09    0.18
   7   3   5    0.57    0.30
  -7   3  -5    0.09    0.19
  -7   3  -5    0.00    0.16
   7   3   5   -0.03    0.29
   8  -3   5    0.17    0.29
   8  -3   5   -0.04    0.29
  -8  -3  -5   -0.06    0.24
  -8   3  -5   -0.12    0.19
   8   3   5   -0.22    0.31
  -8   3  -5    0.13    0.24
   8   3   5   -0.20    0.45
   9  -3   5    2.51    0.42
   9  -3   5    1.96    0.48
  -9  -3  -5    2.25    0.38
   9   3   5    2.66    0.57
  -9   3  -5    2.27    0.42
  -9   3  -5    2.13    0.35
   9   3   5    2.64    0.46
  10  -3   5   -0.02    0.37
 -10  -3  -5    0.11    0.34
  10  -3   5    0.17    0.39
  10   3   5   -0.77    0.59
  10   3   5    0.20    0.40
 -10   3  -5    0.19    0.21
  11  -4  -5   -0.36    0.41
 -11  -4   5    0.44    0.33
 -11   4   5    0.13    0.35
 -11   4   5    0.09    0.41
  11   4  -5    0.26    0.53
 -10  -4   5    0.20    0.34
  10  -4  -5    0.02    0.27
 -10   4   5    0.37    0.43
  10   4  -5    0.70    0.36
 -10   4   5    0.40    0.28
   9  -4  -5    1.09    0.35
  -9  -4   5    1.09    0.23
  -9  -4   5    1.43    0.31
  -9   4   5    1.16    0.25
  -9   4   5    1.45    0.33
   9   4  -5    0.85    0.37
  -8  -4   5    0.35    0.23
   8  -4  -5    0.00    0.18
  -8  -4   5    0.18    0.14
  -8   4   5    0.14    0.18
   8   4  -5    0.24    0.29
  -8   4   5    0.48    0.24
  -7  -4   5    3.18    0.33
   7  -4  -5    3.21    0.36
  -7  -4   5    3.00    0.34
   7   4  -5    3.02    0.40
  -7   4   5    3.08    0.37
  -7   4   5    3.13    0.33
  -6  -4   5   -0.21    0.16
   6  -4  -5    0.03    0.13
   6  -4  -5    0.05    0.13
  -6  -4   5    0.10    0.14
   6   4  -5    0.03    0.01
   6   4  -5    0.11    0.16
  -6   4   5    0.06    0.13
   6   4  -5    0.09    0.18
  -6   4   5   -0.11    0.12
  -6   4   5   -0.04    0.15
  -6   4   5    0.01    0.06
   5  -4  -5    7.27    0.67
   5  -4  -5    7.18    0.67
  -5  -4   5    7.96    0.67
  -5  -4   5    7.67    0.69
  -5  -4   5    6.71    0.66
   5   4  -5    7.53    0.80
   5   4  -5    7.57    0.74
  -5   4   5    7.41    0.78
  -5   4   5    6.42    0.65
  -5   4   5    7.50    0.66
   5   4  -5    7.44    0.63
  -5   4   5    7.55    0.66
  -4  -4   5    0.45    0.13
   4  -4  -5    0.47    0.10
  -4  -4   5    0.33    0.24
  -4  -4   5    0.38    0.12
  -4  -4   5    0.69    0.14
   4  -4  -5    0.44    0.11
  -4   4   5    0.45    0.09
  -4   4   5    0.40    0.14
   4   4  -5    0.56    0.07
  -4   4   5    0.46    0.14
   4   4  -5    0.17    0.14
  -4   4   5    0.39    0.14
   4   4  -5    0.40    0.17
   4   4  -5    0.54    0.08
  -4   4   5    0.40    0.11
   4   4  -5    0.70    0.15
   4   4  -5    0.44    0.14
  -3  -4   5   36.62    3.66
  -3  -4   5   49.01    4.04
   3  -4  -5   41.10    3.74
  -3  -4   5   42.82    3.69
  -3  -4   5   48.80    4.21
  -3   4   5   41.30    3.82
   3   4  -5   48.25    4.52
  -3   4   5   43.53    3.70
  -3   4   5   44.77    4.07
   3   4  -5   44.23    4.20
   3   4  -5   46.02    4.63
   3   4  -5   39.50    3.74
  -3   4   5   42.66    4.35
  -3   4   5   42.69    3.70
   3   4  -5   43.80    4.18
   2  -4  -5    1.71    0.18
   2  -4  -5    1.50    0.16
  -2  -4   5    1.81    0.19
  -2  -4   5    1.76    0.21
  -2  -4   5    1.51    0.16
  -2  -4   5    1.54    0.17
  -2   4   5    1.41    0.17
   2   4  -5    1.54    0.19
  -2   4   5    1.42    0.17
  -2   4   5    1.51    0.18
   2   4  -5    1.40    0.15
  -2   4   5    1.45    0.19
   2   4  -5    1.19    0.25
   2   4  -5    1.60    0.20
  -2   4   5    1.37    0.17
  -1  -4   5    6.72    0.58
   1  -4  -5    5.78    0.60
  -1  -4   5    6.36    0.58
  -1  -4   5    7.06    0.62
   1  -4  -5    6.53    0.62
   1  -4  -5    6.03    0.66
  -1  -4   5    6.95    0.57
  -1   4   5    6.17    0.60
   1   4  -5    6.87    0.61
  -1   4   5    6.32    0.60
   1   4  -5    6.11    0.60
  -1   4   5    6.46    0.72
  -1   4   5    6.29    0.61
   1   4  -5    6.37    0.62
   1   4  -5    7.00    0.60
   0  -4   5    7.69    0.65
   0  -4  -5    6.66    0.68
   0  -4   5    8.47    0.66
   0  -4  -5    6.36    0.68
   0  -4   5    7.53    0.63
   0  -4  -5    6.34    0.67
   0   4   5    7.14    0.71
   0   4   5    6.23    0.62
   0   4   5    6.04    0.63
   0   4  -5    7.16    0.66
   0   4   5    6.52    0.64
   0   4  -5    8.19    0.64
   0   4  -5    7.27    0.62
   1  -4   5  157.75   13.46
  -1  -4  -5  124.89   13.17
   1  -4   5  158.08   13.25
   1  -4   5  170.12   15.14
  -1  -4  -5  147.33   14.48
  -1  -4  -5  124.02   13.54
  -1  -4  -5  147.42   14.23
   1   4   5  142.28   14.80
  -1   4  -5  166.68   13.14
  -1   4  -5  163.27   13.01
   1   4   5  149.96   13.53
   1   4   5  133.90   13.02
   1   4   5  173.12   17.56
  -1   4  -5  152.52   13.58
  -2  -4  -5   73.65    7.79
  -2  -4  -5   68.53    6.86
  -2  -4  -5   66.54    6.76
   2  -4   5   85.61    7.40
  -2  -4  -5   76.89    7.69
   2  -4   5   93.94    8.56
   2  -4   5   90.16    7.33
   2  -4   5   86.06    7.22
   2   4   5   73.03    7.20
   2   4   5   73.84    7.30
  -2   4  -5   89.59    6.93
   2   4   5   80.08    7.45
  -2   4  -5   88.21    8.51
   2   4   5   68.54    7.12
  -2   4  -5   84.73    7.32
  -3  -4  -5    2.06    0.22
   3  -4   5    1.86    0.22
   3  -4   5    2.10    0.27
   3  -4   5    2.35    0.49
  -3  -4  -5    2.11    0.24
   3  -4   5    1.85    0.22
  -3  -4  -5    1.78    0.19
  -3  -4  -5    1.32    0.37
  -3   4  -5    2.58    0.24
   3   4   5    1.62    0.25
   3   4   5    2.02    0.26
   3   4   5    1.58    0.23
  -3   4  -5    2.02    0.22
  -4  -4  -5   -0.04    0.08
   4  -4   5   -0.13    0.14
  -4  -4  -5    0.07    0.12
  -4  -4  -5    0.23    0.15
   4  -4   5    0.03    0.22
   4  -4   5   -0.02    0.12
   4  -4   5    0.04    0.12
   4   4   5    0.07    0.18
   4   4   5   -0.12    0.25
  -4   4  -5   -0.16    0.16
  -4   4  -5   -0.01    0.13
   5  -4   5   -0.24    0.39
  -5  -4  -5    0.02    0.12
   5  -4   5    0.05    0.20
  -5  -4  -5   -0.13    0.17
   5  -4   5   -0.16    0.16
  -5  -4  -5   -0.10    0.14
  -5   4  -5   -0.12    0.17
   5   4   5   -0.09    0.24
   5   4   5   -0.11    0.27
  -6  -4  -5    5.04    0.46
   6  -4   5    4.48    0.49
  -6  -4  -5    3.62    0.44
   6  -4   5    4.04    0.45
  -6  -4  -5    4.67    0.49
   6  -4   5    5.91    0.49
   6   4   5    3.72    0.54
  -6   4  -5    4.78    0.47
   6   4   5    4.56    0.51
  -7  -4  -5   -0.31    0.26
   7  -4   5   -0.17    0.29
   7  -4   5   -0.09    0.24
  -7  -4  -5    0.05    0.36
  -7   4  -5    0.13    0.20
   7   4   5    0.24    0.30
   7   4   5   -0.33    0.24
   8  -4   5    0.27    0.29
  -8  -4  -5    0.09    0.15
   8  -4   5    0.43    0.29
  -8  -4  -5    0.35    0.26
   8   4   5    0.33    0.38
  -8   4  -5    0.40    0.34
   8   4   5    0.07    0.38
   9  -4   5    0.15    0.34
   9  -4   5   -0.20    0.33
  -9  -4  -5   -0.01    0.28
   9   4   5   -0.03    0.47
   9   4   5    0.29    0.38
  -9   4  -5    0.27    0.29
 -11  -5   5    0.25    1.25
  11  -5  -5   -0.27    0.42
 -11   5   5   -0.07    0.53
  11   5  -5   -0.50    0.56
  10  -5  -5    0.63    0.37
 -10  -5   5    0.61    0.37
 -10   5   5    1.27    0.40
 -10   5   5    0.82    0.29
  10   5  -5    1.11    0.39
  -9  -5   5    1.53    0.31
   9  -5  -5   -0.09    0.30
  -9  -5   5    0.20    0.23
  -9   5   5    0.50    0.46
   9   5  -5    0.46    0.38
  -9   5   5    0.34    0.21
   8  -5  -5    1.07    0.27
  -8  -5   5    1.57    0.25
  -8  -5   5    1.11    0.24
   8   5  -5    1.38    0.36
  -8   5   5    1.83    0.35
  -8   5   5    0.74    0.20
  -7  -5   5    4.36    0.46
   7  -5  -5    4.97    0.49
  -7  -5   5    4.48    0.49
  -7   5   5    4.70    0.58
  -7   5   5    4.93    0.48
   7   5  -5    4.76    0.42
   7   5  -5    4.64    0.53
   7   5  -5    4.82    0.41
  -6  -5   5    0.09    0.17
  -6  -5   5   -0.04    0.13
   6  -5  -5    0.14    0.13
   6  -5  -5    0.15    0.17
   6   5  -5    0.20    0.23
  -6   5   5    0.01    0.13
  -6   5   5    0.05    0.07
   6   5  -5    0.10    0.08
  -6   5   5    0.24    0.22
   6   5  -5   -0.16    0.18
   6   5  -5    0.28    0.07
  -5  -5   5   -0.10    0.12
  -5  -5   5    0.10    0.12
  -5  -5   5   -0.06    0.14
   5  -5  -5    0.04    0.11
   5  -5  -5    0.18    0.15
  -5   5   5    0.01    0.13
  -5   5   5   -0.01    0.08
  -5   5   5    0.34    0.12
   5   5  -5   -0.02    0.16
   5   5  -5    0.32    0.31
  -5   5   5   -0.29    0.15
   5   5  -5    0.08    0.09
   5   5  -5    0.08    0.15
   5   5  -5    0.05    0.07
  -4  -5   5   14.88    1.41
   4  -5  -5   16.68    1.44
  -4  -5   5   18.08    1.64
  -4  -5   5   15.75    1.41
   4   5  -5   18.14    1.53
  -4   5   5   16.53    1.73
  -4   5   5   15.81    1.61
   4   5  -5   15.13    1.66
   4   5  -5   14.88    1.42
   4   5  -5   16.95    1.47
   4   5  -5   16.51    1.66
  -4   5   5   16.17    1.44
  -4   5   5   16.73    1.50
   3  -5  -5    0.06    0.08
  -3  -5   5    0.10    0.11
  -3  -5   5   -0.22    0.16
  -3  -5   5    0.02    0.09
  -3  -5   5    0.07    0.12
   3   5  -5    0.01    0.07
  -3   5   5   -0.08    0.11
  -3   5   5    0.03    0.08
  -3   5   5    0.04    0.11
   3   5  -5    0.02    0.14
   3   5  -5   -0.27    0.16
  -3   5   5   -0.05    0.14
   3   5  -5   -0.01    0.14
  -3   5   5   -0.01    0.07
   3   5  -5    0.01    0.13
   2  -5  -5    3.77    0.46
   2  -5  -5    3.91    0.40
  -2  -5   5    4.35    0.39
  -2  -5   5    4.56    0.40
   2   5  -5    4.17    0.44
   2   5  -5    4.55    0.39
  -2   5   5    4.20    0.41
   2   5  -5    4.29    0.44
  -2   5   5    4.35    0.45
  -2   5   5    4.17    0.43
   2   5  -5    4.42    0.42
  -2   5   5    4.55    0.40
  -2   5   5    4.19    0.42
  -1  -5   5    6.13    0.51
   1  -5  -5    5.64    0.52
  -1  -5   5    6.27    0.52
  -1  -5   5    6.21    0.52
   1  -5  -5    4.75    0.58
  -1   5   5    6.97    0.64
  -1   5   5    4.90    0.52
  -1   5   5    5.04    0.53
   1   5  -5    6.35    0.60
   1   5  -5    5.97    0.55
   1   5  -5    6.62    0.53
   1   5  -5    5.43    0.60
  -1   5   5    5.09    0.56
   0  -5   5   25.40    2.15
   0  -5  -5   24.42    2.46
   0  -5   5   28.76    2.28
   0  -5   5   26.47    2.18
   0  -5  -5   20.79    2.30
   0  -5  -5   22.68    2.42
   0  -5   5   24.84    2.22
   0   5  -5   25.22    2.30
   0   5   5   24.09    2.19
   0   5   5   22.11    2.43
   0   5  -5   26.02    2.21
   0   5   5   22.47    2.17
   0   5   5   27.16    2.93
   0   5  -5   28.81    2.40
   0   5   5   23.77    2.23
   1  -5   5    5.25    0.46
  -1  -5  -5    4.59    0.49
  -1  -5  -5    5.03    0.49
  -1  -5  -5    4.37    0.49
   1  -5   5    5.26    0.47
   1  -5   5    5.64    0.50
   1  -5   5    5.57    0.48
  -1   5  -5    5.86    0.47
   1   5   5    4.59    0.47
  -1   5  -5    6.04    0.52
  -1   5  -5    5.36    0.51
   1   5   5    4.61    0.48
   1   5   5    5.44    0.53
   1   5   5    4.68    0.50
  -2  -5  -5   -0.05    0.09
   2  -5   5    0.04    0.12
  -2  -5  -5   -0.04    0.12
   2  -5   5    0.00    0.09
   2  -5   5   -0.13    0.14
  -2  -5  -5   -0.35    0.14
  -2  -5  -5    0.00    0.05
   2  -5   5   -0.03    0.09
  -2   5  -5    0.09    0.10
   2   5   5   -0.07    0.17
   2   5   5    0.23    0.12
   2   5   5   -0.06    0.09
  -2   5  -5   -0.03    0.13
   3  -5   5   31.00    2.86
  -3  -5  -5   25.35    2.59
  -3  -5  -5   27.83    2.61
   3  -5   5   32.25    2.77
   3  -5   5   30.57    2.70
  -3  -5  -5   28.79    2.80
  -3   5  -5   34.68    3.05
   3   5   5   29.77    3.28
   3   5   5   27.01    2.86
  -3   5  -5   34.17    2.85
   4  -5   5   20.61    2.02
  -4  -5  -5   18.04    1.87
   4  -5   5   22.50    2.08
   4  -5   5   22.23    1.95
  -4  -5  -5   21.66    1.94
   4  -5   5   22.88    2.35
  -4  -5  -5   21.69    2.06
   4   5   5   19.86    2.02
  -4   5  -5   25.01    1.97
   4   5   5   19.59    2.11
   5  -5   5    1.51    0.23
  -5  -5  -5    1.44    0.23
   5  -5   5    2.35    0.27
   5  -5   5    1.12    0.27
  -5  -5  -5    1.54    0.21
  -5  -5  -5    1.71    0.23
  -5   5  -5    1.54    0.24
   5   5   5    1.16    0.36
   5   5   5    1.56    0.29
   6  -5   5    0.11    0.17
  -6  -5  -5    0.05    0.20
  -6  -5  -5    0.20    0.18
   6  -5   5    0.12    0.19
  -6  -5  -5    0.12    0.15
   6  -5   5   -0.15    0.11
   6   5   5    0.33    0.31
   6   5   5    0.28    0.27
  -6   5  -5    0.10    0.21
   7  -5   5    1.99    0.32
   7  -5   5    1.24    0.34
  -7  -5  -5    1.73    0.30
  -7  -5  -5    1.78    0.28
   7   5   5    1.59    0.43
  -7   5  -5    2.29    0.30
   7   5   5    1.58    0.38
  -8  -5  -5   -0.16    0.32
   8  -5   5    0.10    0.24
  -8  -5  -5    0.27    0.22
   8  -5   5    0.91    0.35
  -8   5  -5    0.26    0.26
   8   5   5    0.14    0.48
   8   5   5    0.27    0.30
   9  -5   5    0.87    0.42
   9  -5   5    0.47    0.29
  -9  -5  -5    0.77    0.31
   9   5   5    0.88    0.61
  -9   5  -5    0.56    0.32
   9   5   5    1.36    0.39
  10  -6  -5    1.03    0.38
 -10  -6   5    0.95    0.38
  10   6  -5    0.57    0.41
 -10   6   5    0.66    0.40
  -9  -6   5    0.31    0.37
   9  -6  -5    0.02    0.25
  -9  -6   5    0.26    0.25
  -9   6   5    0.19    0.30
  -9   6   5   -0.11    0.24
   9   6  -5    0.69    0.36
  -8  -6   5   -0.04    0.23
   8  -6  -5   -0.11    0.20
  -8  -6   5   -0.15    0.24
  -8   6   5    0.04    0.29
   8   6  -5    0.01    0.33
  -8   6   5   -0.05    0.16
   7  -6  -5    1.65    0.28
  -7  -6   5    1.57    0.27
  -7  -6   5    1.95    0.25
   7   6  -5    1.74    0.34
   7   6  -5    1.47    0.18
  -7   6   5    1.49    0.23
  -7   6   5    1.88    0.32
   6  -6  -5    2.78    0.32
  -6  -6   5    3.32    0.36
   6  -6  -5    3.33    0.36
  -6  -6   5    2.83    0.33
   6   6  -5    2.89    0.32
   6   6  -5    3.20    0.36
  -6   6   5    3.32    0.32
   6   6  -5    4.03    0.48
   6   6  -5    3.21    0.30
  -6   6   5    3.26    0.40
   5  -6  -5    4.50    0.39
  -5  -6   5    3.87    0.38
  -5  -6   5    4.02    0.38
  -5  -6   5    3.28    0.37
   5   6  -5    4.28    0.36
  -5   6   5    3.44    0.36
   5   6  -5    3.76    0.41
   5   6  -5    3.82    0.42
   5   6  -5    4.01    0.40
  -5   6   5    3.37    0.35
   5   6  -5    4.23    0.48
  -5   6   5    3.01    0.42
   4  -6  -5   19.09    1.87
  -4  -6   5   20.31    1.77
  -4  -6   5   20.27    1.99
  -4  -6   5   19.42    1.76
   4   6  -5   20.38    1.80
   4   6  -5   20.20    1.91
   4   6  -5   20.67    2.05
  -4   6   5   20.04    2.02
  -4   6   5   19.32    1.79
   4   6  -5   20.96    1.78
  -4   6   5   20.53    1.82
  -3  -6   5    1.12    0.15
  -3  -6   5    1.30    0.17
   3  -6  -5    0.99    0.15
  -3  -6   5    1.14    0.15
  -3   6   5    0.84    0.14
  -3   6   5    0.77    0.16
   3   6  -5    0.99    0.18
  -3   6   5    1.18    0.16
  -3   6   5    0.51    0.20
   3   6  -5    1.18    0.18
   3   6  -5    1.08    0.14
   3   6  -5    1.07    0.22
  -2  -6   5   73.56    7.00
   2  -6  -5   67.52    7.90
   2  -6  -5   77.44    7.88
  -2  -6   5   77.95    6.90
   2   6  -5   87.30    7.60
   2   6  -5   86.21    9.12
  -2   6   5   77.33    8.06
   2   6  -5   84.23    7.07
  -2   6   5   78.54    8.01
  -2   6   5   83.15    8.20
  -2   6   5   80.00    7.16
  -2   6   5   83.91    7.03
   2   6  -5   83.99    8.65
  -1  -6   5    1.48    0.17
  -1  -6   5    1.77    0.21
   1  -6  -5    1.79    0.19
  -1  -6   5    1.90    0.16
   1  -6  -5    1.66    0.21
  -1   6   5    1.34    0.20
  -1   6   5    1.02    0.16
   1   6  -5    1.73    0.23
   1   6  -5    1.47    0.18
  -1   6   5    1.16    0.16
   1   6  -5    1.02    0.18
  -1   6   5    1.23    0.18
   0  -6  -5   28.42    2.73
   0  -6   5   28.74    2.59
   0  -6   5   31.53    2.57
   0  -6   5   30.16    2.64
   0  -6   5   32.84    2.82
   0  -6  -5   25.63    2.90
   0   6  -5   30.18    2.70
   0   6   5   26.45    2.60
   0   6   5   31.33    3.62
   0   6  -5   32.61    2.79
   0   6   5   28.70    2.68
   0   6  -5   36.95    2.89
   0   6   5   28.08    2.68
   0   6   5   28.43    2.62
  -1  -6  -5    0.68    0.14
   1  -6   5    1.15    0.21
  -1  -6  -5    0.84    0.17
   1  -6   5    1.12    0.14
   1  -6   5    0.96    0.12
   1  -6   5    1.04    0.15
   1   6   5    0.69    0.20
  -1   6  -5    1.07    0.19
  -1   6  -5    0.67    0.40
   1   6   5    0.85    0.18
  -1   6  -5    0.99    0.39
   1   6   5    0.69    0.14
  -2  -6  -5    0.61    0.06
   2  -6   5    1.00    0.12
   2  -6   5    0.94    0.15
  -2  -6  -5    0.52    0.13
  -2  -6  -5    0.92    0.17
   2  -6   5    0.84    0.13
   2  -6   5    0.73    0.24
   2  -6   5    0.92    0.15
  -2   6  -5    0.86    0.16
   2   6   5    0.89    0.15
   2   6   5    0.75    0.21
  -2   6  -5    0.81    0.14
   2   6   5    0.42    0.15
   3  -6   5    5.91    0.54
  -3  -6  -5    5.79    0.54
  -3  -6  -5    5.60    0.57
   3  -6   5    6.55    0.53
   3  -6   5    6.40    0.53
  -3  -6  -5    4.92    0.50
   3  -6   5    5.97    0.52
  -3  -6  -5    4.94    0.53
  -3   6  -5    5.78    0.57
  -3   6  -5    6.89    0.55
   3   6   5    4.01    0.58
   3   6   5    4.92    0.56
  -4  -6  -5   45.21    4.60
   4  -6   5   51.48    4.65
   4  -6   5   53.04    4.73
   4  -6   5   51.58    4.43
  -4  -6  -5   46.79    4.37
   4  -6   5   50.91    4.35
  -4  -6  -5   42.48    4.31
  -4   6  -5   57.37    4.51
   4   6   5   42.03    4.92
   4   6   5   48.10    4.92
   4   6   5   46.45    4.86
   5  -6   5    3.16    0.40
   5  -6   5    3.87    0.38
  -5  -6  -5    3.29    0.39
   5  -6   5    3.70    0.37
  -5  -6  -5    2.92    0.36
  -5  -6  -5    2.92    0.37
   5  -6   5    4.02    0.34
  -5  -6  -5    3.17    0.34
   5   6   5    3.63    0.46
  -5   6  -5    4.00    0.39
   5   6   5    2.64    0.47
   6  -6   5    7.78    0.62
  -6  -6  -5    6.80    0.68
   6  -6   5    6.05    0.71
   6  -6   5    6.54    0.67
  -6  -6  -5    5.92    0.66
   6   6   5    5.89    0.74
  -6   6  -5    7.30    0.73
   6   6   5    6.89    0.69
   7  -6   5    0.21    0.31
  -7  -6  -5   -0.03    0.28
   7  -6   5    0.20    0.24
  -7  -6  -5    0.32    0.22
   7   6   5    0.42    0.30
  -7   6  -5    0.04    0.24
   7   6   5   -0.73    0.40
  -8  -6  -5    0.84    0.28
  -8  -6  -5    1.35    0.31
   8  -6   5    1.55    0.28
   8  -6   5    1.26    0.39
  -8   6  -5    0.85    0.30
   8   6   5    0.30    0.39
   8   6   5    0.33    0.50
  -9  -6  -5    0.12    0.39
   9  -6   5    0.78    0.45
   9  -6   5   -0.10    0.36
   9   6   5   -0.73    0.60
   9   6   5   -0.06    0.39
  -9   6  -5   -0.10    0.32
  10  -7  -5    0.41    0.30
 -10  -7   5    0.12    0.31
 -10   7   5    0.06    0.42
  10   7  -5    0.33    0.52
  -9  -7   5    0.66    0.28
   9  -7  -5    1.47    0.30
  -9  -7   5    1.42    0.32
  -9   7   5    1.64    0.39
   9   7  -5    2.05    0.48
  -8  -7   5    0.32    0.26
  -8  -7   5   -0.25    0.26
   8  -7  -5    0.16    0.25
  -8   7   5   -0.14    0.27
   8   7  -5    0.41    0.37
  -7  -7   5    4.63    0.48
   7  -7  -5    5.31    0.49
  -7  -7   5    4.62    0.48
  -7   7   5    4.75    0.47
   7   7  -5    3.99    0.47
   7   7  -5    4.63    0.54
  -7   7   5    4.43    0.53
  -6  -7   5    2.07    0.27
  -6  -7   5    1.45    0.28
   6  -7  -5    1.90    0.29
  -6   7   5    1.10    0.21
  -6   7   5    1.77    0.33
   6   7  -5    2.51    0.24
   6   7  -5    1.42    0.33
   6   7  -5    2.07    0.22
   6   7  -5    1.32    0.27
  -5  -7   5   15.19    1.39
  -5  -7   5   14.65    1.42
  -5  -7   5   14.96    1.58
   5  -7  -5   17.41    1.43
  -5   7   5   14.16    1.42
   5   7  -5   14.87    1.42
  -5   7   5   15.40    1.44
   5   7  -5   16.71    1.79
   5   7  -5   16.13    1.41
   5   7  -5   15.67    1.42
  -5   7   5   14.57    1.65
   5   7  -5   15.48    1.57
  -4  -7   5    3.66    0.37
   4  -7  -5    3.31    0.34
  -4  -7   5    3.27    0.40
  -4  -7   5    3.98    0.36
   4   7  -5    3.21    0.36
  -4   7   5    3.07    0.33
  -4   7   5    3.25    0.34
   4   7  -5    3.76    0.42
  -4   7   5    3.65    0.45
   4   7  -5    3.14    0.39
   4   7  -5    3.61    0.34
   3  -7  -5    0.09    0.11
  -3  -7   5    0.06    0.11
  -3  -7   5    0.00    0.15
  -3   7   5    0.06    0.10
  -3   7   5    0.00    0.14
  -3   7   5    0.06    0.10
   3   7  -5   -0.05    0.16
   3   7  -5   -0.15    0.19
   3   7  -5    0.32    0.11
  -3   7   5   -0.14    0.17
   3   7  -5   -0.22    0.18
   2  -7  -5   17.10    1.67
  -2  -7   5   17.93    1.58
  -2  -7   5   18.54    1.56
   2   7  -5   17.72    1.70
   2   7  -5   19.24    1.99
   2   7  -5   19.83    1.81
  -2   7   5   16.26    1.60
  -2   7   5   17.46    1.70
   2   7  -5   18.29    1.59
  -2   7   5   17.34    1.74
  -2   7   5   17.63    1.60
   1  -7  -5   24.60    2.43
   1  -7  -5   20.13    2.87
  -1  -7   5   25.54    2.19
  -1  -7   5   24.90    2.18
   1   7  -5   26.54    2.48
   1   7  -5   27.95    2.66
   1   7  -5   28.89    2.42
   1   7  -5   26.72    2.26
  -1   7   5   23.65    2.23
  -1   7   5   23.94    2.28
  -1   7   5   22.64    2.29
   0  -7   5    0.34    0.11
   0  -7  -5    0.08    0.15
   0  -7  -5    0.04    0.14
   0  -7   5    0.28    0.08
   0   7   5   -0.04    0.09
   0   7   5    0.94    0.26
   0   7  -5    0.15    0.19
   0   7   5    0.02    0.15
   0   7  -5    0.29    0.12
   0   7   5    0.05    0.07
   1  -7   5   13.59    1.17
  -1  -7  -5   12.25    1.24
  -1  -7  -5   11.32    1.29
   1  -7   5   14.79    1.21
   1  -7   5   14.04    1.16
   1   7   5   11.99    1.17
   1   7   5   11.77    1.18
   1   7   5   11.43    1.35
  -1   7  -5   14.16    1.24
  -1   7  -5   14.20    1.23
   2  -7   5    1.76    0.17
  -2  -7  -5    1.00    0.19
  -2  -7  -5    1.28    0.22
   2  -7   5    1.31    0.19
   2  -7   5    1.55    0.16
   2  -7   5    1.47    0.19
  -2   7  -5    1.69    0.26
  -2   7  -5    1.64    0.19
   2   7   5    1.66    0.28
   2   7   5    0.96    0.21
  -3  -7  -5    7.02    0.78
  -3  -7  -5    7.98    0.82
   3  -7   5    9.85    0.82
   3  -7   5    8.66    0.80
  -3  -7  -5    6.99    0.80
   3  -7   5    9.59    0.78
   3  -7   5    9.93    0.78
   3   7   5    7.57    0.83
   3   7   5    7.09    0.79
  -3   7  -5   10.22    0.85
  -4  -7  -5    0.00    0.05
   4  -7   5   -0.13    0.17
   4  -7   5    0.19    0.16
   4  -7   5    0.13    0.12
  -4  -7  -5   -0.46    0.17
   4  -7   5    0.08    0.13
  -4  -7  -5    0.16    0.18
  -4  -7  -5    0.01    0.04
  -4  -7  -5    0.09    0.18
   4   7   5    0.10    0.16
  -4   7  -5   -0.30    0.21
   4   7   5   -0.46    0.24
   5  -7   5   12.42    1.19
  -5  -7  -5   13.16    1.17
  -5  -7  -5   10.48    1.16
   5  -7   5   14.42    1.32
   5  -7   5   12.29    1.20
   5  -7   5   13.75    1.15
  -5  -7  -5   11.54    1.18
   5   7   5   11.54    1.23
  -5   7  -5   15.66    1.30
   5   7   5   10.79    1.22
  -6  -7  -5   -0.26    0.21
   6  -7   5    0.23    0.22
   6  -7   5    0.09    0.23
   6  -7   5    0.09    0.14
  -6  -7  -5   -0.15    0.25
   6   7   5   -0.56    0.34
  -6   7  -5    0.19    0.23
   6   7   5   -0.12    0.29
   7  -7   5    0.28    0.28
  -7  -7  -5    1.22    1.42
  -7  -7  -5    1.03    0.32
   7  -7   5    0.54    0.28
   7   7   5    0.87    0.40
   7   7   5    0.79    0.38
  -7   7  -5    0.21    0.28
   8  -7   5   -0.04    0.25
  -8  -7  -5   -0.16    0.28
  -8  -7  -5   -0.37    0.34
   8  -7   5    0.25    0.39
  -8   7  -5    0.11    0.31
   8   7   5   -0.65    0.54
   8   7   5    0.25    0.33
   9  -7   5    3.55    0.56
  -9  -7  -5    3.98    0.57
   9   7   5    3.49    0.64
   9   7   5    3.41    0.56
  -9   7  -5    4.21    0.59
  10  -8  -5    0.09    0.33
 -10  -8   5    0.83    0.44
  10   8  -5    1.05    0.57
 -10   8   5    0.57    0.57
  -9  -8   5    0.27    0.34
  -9  -8   5    0.61    0.35
   9  -8  -5    0.46    0.29
  -9   8   5    0.39    0.39
   9   8  -5    0.57    0.48
   8  -8  -5    0.17    0.28
  -8  -8   5   -0.02    0.31
  -8  -8   5    0.05    0.29
  -8   8   5    0.17    0.32
   8   8  -5   -0.36    0.39
   7  -8  -5    0.73    0.22
  -7  -8   5    0.67    0.24
  -7  -8   5    0.70    0.25
  -7   8   5    1.01    0.29
   7   8  -5    0.39    0.35
  -6  -8   5    2.31    0.28
  -6  -8   5    1.90    0.31
   6  -8  -5    1.68    0.27
   6   8  -5    1.72    0.35
   6   8  -5    2.24    0.24
  -6   8   5    1.38    0.21
  -6   8   5    1.89    0.32
   6   8  -5    1.53    0.29
   6   8  -5    1.49    0.35
  -5  -8   5   -0.03    0.17
   5  -8  -5   -0.11    0.13
  -5  -8   5    0.02    0.18
  -5  -8   5   -0.32    0.21
   5   8  -5    0.04    0.19
   5   8  -5    0.12    0.17
  -5   8   5    0.18    0.12
   5   8  -5    0.17    0.19
   5   8  -5    0.07    0.16
   5   8  -5    0.10    0.27
  -5   8   5    0.26    0.25
   4  -8  -5    0.85    0.15
  -4  -8   5    0.89    0.17
  -4  -8   5    1.08    0.20
  -4   8   5    0.89    0.25
   4   8  -5    0.75    0.17
  -4   8   5    0.69    0.14
   4   8  -5    0.81    0.19
   4   8  -5    0.65    0.32
  -3  -8   5    1.05    0.16
  -3  -8   5    0.94    0.19
   3  -8  -5    1.22    0.20
   3   8  -5    1.13    0.17
  -3   8   5    0.59    0.13
   3   8  -5    1.16    0.20
  -3   8   5    1.07    0.19
  -3   8   5    0.31    0.18
   3   8  -5    1.10    0.26
  -3   8   5    0.97    0.24
   3   8  -5    0.89    0.19
  -2  -8   5   14.48    1.35
   2  -8  -5   15.64    1.35
  -2  -8   5   14.23    1.33
   2   8  -5   15.19    1.45
  -2   8   5   15.17    1.35
   2   8  -5   15.43    1.58
  -2   8   5   13.99    1.40
   2   8  -5   16.94    1.36
  -2   8   5   13.98    1.40
  -2   8   5   15.30    1.50
   2   8  -5   15.11    1.48
   1  -8  -5    7.23    0.79
  -1  -8   5    9.22    0.77
  -1  -8   5    8.47    0.75
  -1   8   5    7.87    0.76
   1   8  -5    8.88    0.80
   1   8  -5    9.59    0.83
  -1   8   5    7.09    0.77
   1   8  -5    8.26    0.76
   0  -8   5    0.26    0.27
   0  -8   5    0.01    0.11
   0  -8  -5   -0.02    0.37
   0  -8  -5    0.03    0.16
   0   8  -5    0.11    0.14
   0   8  -5   -0.02    0.15
   0   8   5    0.17    0.12
   0   8   5    0.12    0.08
   0   8   5    0.28    0.22
   0   8   5   -0.28    0.18
   0   8  -5    0.23    0.22
   1  -8   5    0.57    0.09
  -1  -8  -5    0.46    0.18
   1  -8   5    0.58    0.15
  -1  -8  -5    0.45    0.18
   1   8   5    0.11    0.15
   1   8   5    0.17    0.18
  -1   8  -5    0.95    0.21
   1   8   5    0.55    0.22
  -1   8  -5    0.70    0.16
   2  -8   5    0.43    0.15
   2  -8   5    0.24    0.09
   2  -8   5    0.43    0.08
  -2  -8  -5    0.17    0.16
  -2  -8  -5    0.05    0.18
   2  -8   5   -0.02    0.11
   2   8   5    0.20    0.16
  -2   8  -5    0.63    0.23
   2   8   5    0.50    0.24
   3  -8   5    2.46    0.27
   3  -8   5    3.01    0.29
   3  -8   5    2.05    0.31
  -3  -8  -5    2.81    0.34
   3  -8   5    3.11    0.27
   3   8   5    2.96    0.39
  -3   8  -5    2.75    0.36
   4  -8   5    5.18    0.43
   4  -8   5    4.56    0.46
   4  -8   5    4.81    0.41
  -4  -8  -5    3.32    0.46
  -4  -8  -5    4.09    0.45
   4  -8   5    4.66    0.47
  -4  -8  -5    4.08    0.46
  -4   8  -5    5.37    0.48
   4   8   5    3.42    0.45
   4   8   5    3.13    0.51
   5  -8   5    0.10    0.26
   5  -8   5   -0.05    0.22
   5  -8   5   -0.27    0.15
  -5  -8  -5    0.08    0.23
  -5  -8  -5   -0.07    0.23
  -5   8  -5    0.38    0.26
   5   8   5   -0.22    0.23
   5   8   5   -0.19    0.40
   5   8   5    0.44    0.30
  -6  -8  -5   -0.13    0.26
   6  -8   5    0.32    0.37
  -6  -8  -5    0.10    0.24
   6  -8   5    0.13    0.30
   6   8   5    0.23    0.33
   6   8   5    0.04    0.47
  -6   8  -5   -0.03    0.27
  -7  -8  -5    2.74    0.43
  -7  -8  -5    2.48    0.41
   7  -8   5    2.91    0.42
   7  -8   5    4.08    0.49
  -7   8  -5    3.48    0.45
   7   8   5    2.00    0.52
   7   8   5    2.80    0.61
   8  -8   5   -0.56    0.35
  -8  -8  -5    0.11    0.35
   8  -8   5    0.19    0.33
  -8  -8  -5   -0.39    0.37
   8   8   5   -0.19    0.47
  -8   8  -5    0.07    0.41
   8   8   5    0.30    0.49
  -9  -9   5    0.18    0.36
   9  -9  -5    0.61    0.30
  -9  -9   5    0.50    0.38
  -9   9   5   -0.31    0.39
   9   9  -5   -0.04    0.49
  -8  -9   5    0.41    0.32
   8  -9  -5    0.90    0.34
  -8  -9   5    1.35    0.29
   8   9  -5    0.47    0.44
  -8   9   5    1.49    0.43
  -7  -9   5    0.18    0.21
   7  -9  -5    0.34    0.19
  -7  -9   5    0.31    0.31
   7   9  -5    0.66    0.31
  -7   9   5    0.03    0.27
  -6  -9   5    1.32    0.26
  -6  -9   5    1.35    0.31
  -6   9   5    1.73    0.31
   6   9  -5    1.67    0.28
   6   9  -5    1.30    0.32
   6   9  -5    1.67    0.37
   6   9  -5    1.16    0.36
  -5  -9   5    0.27    0.18
   5  -9  -5    0.22    0.15
  -5  -9   5   -0.14    0.20
  -5   9   5    0.20    0.24
   5   9  -5    0.25    0.30
   5   9  -5    0.18    0.24
   5   9  -5    0.12    0.23
   5   9  -5    0.31    0.29
   4  -9  -5   13.53    1.23
  -4  -9   5   14.12    1.19
  -4  -9   5   13.07    1.21
   4   9  -5   12.27    1.18
   4   9  -5   13.40    1.28
  -4   9   5   12.91    1.45
  -4   9   5   12.06    1.24
   3  -9  -5    3.92    0.43
  -3  -9   5    3.84    0.38
  -3  -9   5    4.37    0.42
  -3   9   5    3.00    0.42
   3   9  -5    2.56    0.74
  -3   9   5    4.46    0.46
   3   9  -5    4.27    0.43
  -3   9   5    3.79    0.39
   3   9  -5    4.69    0.48
   2  -9  -5    5.02    0.48
  -2  -9   5    5.33    0.47
  -2  -9   5    5.03    0.45
   2   9  -5    4.97    0.48
   2   9  -5    4.16    0.48
  -2   9   5    4.19    0.44
  -2   9   5    4.96    0.45
   2   9  -5    5.64    0.65
  -2   9   5    4.38    0.50
  -2   9   5    4.46    0.49
  -1  -9   5    0.01    0.10
  -1  -9   5    0.06    0.15
   1  -9  -5    0.09    0.19
  -1   9   5   -0.20    0.18
   1   9  -5    0.19    0.28
  -1   9   5   -0.06    0.12
   1   9  -5    0.11    0.20
  -1   9   5    0.09    0.14
   0  -9   5    2.58    0.21
   0  -9   5    2.37    0.27
   0  -9  -5    2.65    0.30
   0   9   5    1.54    0.22
   0   9   5    1.60    0.20
   0   9   5    1.70    0.30
   0   9  -5    2.40    0.33
   0   9  -5    2.24    0.29
   0   9   5    2.45    0.34
  -1  -9  -5    0.13    0.14
   1  -9   5    0.67    0.17
  -1   9  -5    0.74    0.24
   1   9   5    0.00    0.17
   1   9   5    0.26    0.23
   1   9   5    0.11    0.27
  -2  -9  -5    0.82    0.25
   2  -9   5    1.45    0.14
   2  -9   5    1.18    0.21
   2  -9   5    1.37    0.13
  -2   9  -5    1.59    0.30
   2   9   5    1.26    0.26
   2   9   5    0.58    0.25
   3  -9   5    0.98    0.20
  -3  -9  -5    0.63    0.25
   3  -9   5    1.29    0.12
  -3   9  -5    1.53    0.29
   3   9   5    1.16    0.34
   3   9   5    0.82    0.26
  -4  -9  -5    0.58    0.24
   4  -9   5   -0.11    0.15
  -4  -9  -5    0.99    0.22
   4   9   5    1.19    0.34
   4   9   5    0.50    0.24
  -4   9  -5    1.40    0.29
   5  -9   5    3.02    0.41
  -5  -9  -5    2.65    0.42
  -5  -9  -5    3.83    0.42
   5  -9   5    3.88    0.41
   5  -9   5    3.93    0.38
   5   9   5    2.63    0.56
   5   9   5    2.46    0.41
  -5   9  -5    3.79    0.45
   6  -9   5    0.49    0.33
   6  -9   5    0.31    0.26
  -6  -9  -5    0.42    0.24
  -6  -9  -5    0.58    0.30
  -6   9  -5    0.73    0.27
   6   9   5    0.34    0.36
   6   9   5    0.54    0.42
  -7  -9  -5   -0.14    0.32
   7  -9   5    0.26    0.39
  -7  -9  -5   -0.09    0.30
   7  -9   5    0.28    0.29
   7   9   5    0.00    0.38
   7   9   5    0.20    0.55
  -7   9  -5   -0.07    0.34
   8  -9   5   -0.14    0.44
  -8  -9  -5    0.01    0.38
  -8  -9  -5   -0.19    0.34
   8  -9   5    0.01    0.26
   8   9   5    2.64    1.34
  -8   9  -5    0.06    0.45
   8   9   5    0.48    0.41
  -9 -10   5    0.30    0.33
   9 -10  -5    0.10    0.36
  -9 -10   5    0.46    0.45
  -9  10   5    0.14    0.43
  -8 -10   5    0.09    0.33
  -8 -10   5    0.41    0.33
  -8  10   5   -0.06    0.46
   8  10  -5   -0.40    0.48
  -7 -10   5   -0.24    0.22
  -7 -10   5   -0.02    0.29
   7  10  -5   -0.17    0.30
   7  10  -5   -0.45    0.40
  -7  10   5    0.18    0.39
  -6 -10   5    0.38    0.23
  -6 -10   5    0.05    0.26
   6  10  -5    0.43    0.37
   6  10  -5    0.04    0.37
   6  10  -5   -0.19    0.22
  -6  10   5    0.18    0.27
  -5 -10   5    0.59    0.20
  -5 -10   5    0.65    0.28
   5  10  -5    1.11    0.30
   5  10  -5    0.52    0.34
  -5  10   5    0.44    0.31
   5  10  -5    0.02    0.39
   5  10  -5    0.39    0.34
  -4 -10   5   14.35    1.45
   4 -10  -5   14.96    1.40
  -4 -10   5   14.41    1.35
  -4  10   5   14.11    1.48
   4  10  -5   13.63    1.41
   4  10  -5   16.05    1.40
   3 -10  -5    9.21    0.80
  -3 -10   5    8.62    0.77
  -3 -10   5    8.30    0.78
   3  10  -5    7.01    0.76
  -3  10   5    8.33    0.88
   3  10  -5    8.60    0.93
  -2 -10   5   12.99    1.19
  -2 -10   5   12.92    1.17
   2 -10  -5   13.06    1.21
  -2  10   5   12.60    1.21
  -2  10   5   12.09    1.20
   2  10  -5   14.14    1.31
   2  10  -5   13.44    1.20
   1 -10  -5    0.39    0.22
  -1 -10   5    0.34    0.18
  -1 -10   5    0.28    0.12
  -1  10   5    0.21    0.25
   1  10  -5    0.44    0.33
   1  10  -5    0.45    0.22
   0 -10   5    6.55    0.62
   0 -10  -5    5.94    0.65
   0 -10   5    7.28    0.60
   0  10   5    6.47    0.73
   0  10  -5    6.57    0.65
   0  10   5    5.77    0.67
   0  10  -5    7.44    0.80
   1 -10   5    4.84    0.41
   1 -10   5    4.86    0.41
   1 -10   5    3.97    0.44
  -1 -10  -5    4.31    0.49
   1  10   5    3.56    0.51
   1  10   5    4.14    0.50
  -1  10  -5    4.72    0.54
   2 -10   5   -0.04    0.16
  -2 -10  -5    0.07    0.24
   2  10   5    0.14    0.23
   2  10   5   -0.28    0.32
  -2  10  -5   -0.07    0.28
  -3 -10  -5    0.61    0.27
   3 -10   5    0.98    0.19
  -3  10  -5    0.94    0.32
   3  10   5    0.94    0.37
   3  10   5    0.28    0.29
  -4 -10  -5    2.11    0.37
   4 -10   5    3.36    0.33
   4  10   5    2.62    0.46
   4  10   5    1.69    0.37
  -4  10  -5    2.99    0.41
  -5 -10  -5   -0.01    0.22
  -5 -10  -5    0.13    0.29
   5 -10   5   -0.17    0.21
  -5  10  -5    0.41    0.26
   5  10   5   -0.04    0.27
   5  10   5   -0.07    0.49
   6 -10   5    7.20    0.70
  -6 -10  -5    5.94    0.65
  -6 -10  -5    6.09    0.68
   6  10   5    4.79    0.72
  -6  10  -5    7.17    0.74
   6  10   5    5.40    0.80
   7 -10   5   -0.10    0.42
  -7 -10  -5    0.35    0.35
  -7 -10  -5   -0.23    0.35
   7  10   5    0.59    0.55
  -7  10  -5   -0.51    0.37
   7  10   5    0.70    0.64
  -8 -11   5    0.26    0.35
  -8 -11   5    0.08    0.35
  -8  11   5   -0.50    0.47
   8  11  -5   -0.16    0.52
  -7 -11   5    2.58    0.33
  -7 -11   5    0.97    0.37
   7  11  -5    2.51    0.51
   7  11  -5    1.73    0.51
  -7  11   5    1.47    0.46
  -6 -11   5    1.49    0.30
  -6 -11   5    1.56    0.34
  -6  11   5    1.00    0.34
   6  11  -5    1.49    0.44
   6  11  -5    1.55    0.47
  -5 -11   5    0.84    0.23
  -5 -11   5    0.63    0.29
   5 -11  -5    1.08    0.24
   5  11  -5    0.54    0.46
   5  11  -5    1.29    0.36
   5  11  -5    0.39    0.37
  -5  11   5    0.80    0.36
   4 -11  -5    0.41    0.20
  -4 -11   5   -0.15    0.17
  -4 -11   5    0.08    0.24
  -4  11   5    0.21    0.32
   4  11  -5   -0.36    0.34
  -3 -11   5    0.92    0.24
  -3 -11   5    0.08    0.17
   3 -11  -5    0.09    0.23
  -3  11   5    0.32    0.31
   3  11  -5    0.11    0.25
   3  11  -5    0.07    0.34
   2 -11  -5    0.64    0.24
  -2 -11   5    0.52    0.21
  -2 -11   5    0.38    0.14
   2  11  -5    0.44    0.37
  -2  11   5    0.00    0.31
   2  11  -5    0.02    0.23
   1 -11  -5    3.87    0.46
  -1 -11   5    3.98    0.38
  -1 -11   5    3.97    0.45
   1  11  -5    4.08    0.51
  -1  11   5    3.85    0.50
   1  11  -5    3.79    0.44
   0 -11  -5    0.56    0.27
   0 -11   5    0.82    0.25
   0  11   5    0.27    0.36
   0  11   5    0.50    0.31
   0  11  -5    0.71    0.34
   0  11  -5    0.47    0.25
   1 -11   5   13.14    1.09
  -1 -11  -5   10.58    1.15
   1  11   5   11.94    1.18
   1  11   5   10.39    1.15
  -1  11  -5   13.91    1.30
   2 -11   5    4.92    0.51
  -2 -11  -5    4.43    0.54
  -2  11  -5    5.77    0.56
   2  11   5    3.98    0.60
   2  11   5    4.41    0.95
   3 -11   5   15.88    1.41
  -3 -11  -5   12.65    1.41
   3  11   5   12.89    1.39
   3  11   5   13.82    1.51
  -3  11  -5   18.22    1.53
   4 -11   5    0.93    0.24
  -4 -11  -5    0.08    0.32
   4  11   5    0.88    0.42
   4  11   5    0.76    0.35
  -4  11  -5    0.84    0.29
  -5 -11  -5    0.71    0.34
   5  11   5    0.70    0.47
  -5  11  -5    1.22    0.38
  -6 -11  -5    0.23    0.31
  -6 -11  -5    0.80    0.38
   6  11   5   -0.43    0.45
   6  11   5    0.40    0.57
  -6  11  -5   -0.14    0.38
  -7 -11  -5    0.59    0.40
  -7  11  -5    0.46    0.42
  -7 -12   5    0.34    0.38
  -7 -12   5    1.17    0.33
  -7  12   5    0.23    0.38
   7  12  -5    1.23    0.51
   7  12  -5    0.86    0.52
  -6 -12   5    0.13    0.33
  -6 -12   5    0.10    0.28
   6  12  -5    0.45    0.46
  -6  12   5   -0.57    0.34
   6  12  -5    0.04    0.45
  -5 -12   5    1.24    0.35
  -5 -12   5    2.10    0.30
   5 -12  -5    2.04    0.42
  -5  12   5    1.30    0.44
   5  12  -5    1.38    0.44
   5  12  -5    1.23    0.46
   5  12  -5    1.26    0.36
  -4 -12   5    0.47    0.20
   4 -12  -5    0.71    0.29
  -4 -12   5    0.31    0.29
   4  12  -5   -0.10    0.47
  -4  12   5    0.42    0.36
  -3 -12   5    0.50    0.19
  -3 -12   5    0.36    0.31
   3 -12  -5    0.91    0.28
   3  12  -5    0.62    0.39
  -3  12   5    0.63    0.37
   2 -12  -5    8.40    0.69
  -2 -12   5    6.39    0.67
  -2  12   5    5.75    0.70
   2  12  -5    6.36    0.77
   1 -12  -5    1.29    0.32
  -1 -12   5    1.28    0.28
   1  12  -5    1.04    0.43
  -1  12   5    1.16    0.37
   1  12  -5    1.51    0.30
   0 -12  -5   -0.26    0.29
   0 -12   5    0.10    0.22
   0  12  -5   -0.24    0.37
   0  12   5   -0.35    0.29
   0  12   5    0.19    0.35
   0  12  -5   -0.25    0.25
   1 -12   5    3.27    0.38
  -1 -12  -5    3.56    0.45
   1  12   5    3.36    0.71
  -1  12  -5    3.30    0.47
   1  12   5    2.17    0.49
   2 -12   5    4.15    0.51
  -2 -12  -5    2.19    0.43
  -2  12  -5    3.91    0.57
   2  12   5    1.80    0.49
   2  12   5    2.81    0.45
   3 -12   5    0.51    0.28
  -3 -12  -5    0.48    0.34
   3  12   5    0.33    0.42
  -3  12  -5    1.05    0.38
   3  12   5    0.48    0.45
  -4 -12  -5    1.83    0.34
   4 -12   5    2.30    0.33
   4  12   5    0.64    0.49
  -4  12  -5    2.56    0.46
  -5 -12  -5    0.22    0.37
  -5  12  -5   -0.15    0.38
   5  12   5    0.29    0.51
  -6 -12  -5    0.73    0.47
   6  12   5    1.82    0.58
   6  12   5    1.01    0.53
  -6  12  -5    2.22    0.49
  -6 -13   5   -0.09    0.38
  -6 -13   5    0.31    0.29
   6  13  -5    0.39    0.51
   6  13  -5    0.03    0.50
  -6  13   5    0.63    0.58
  -5 -13   5    0.22    0.34
  -5  13   5    0.15    0.37
   5  13  -5   -0.19    0.45
   5  13  -5   -0.26    0.46
   4 -13  -5    0.95    0.35
  -4 -13   5    0.80    0.34
  -4  13   5    0.76    0.37
   4  13  -5    1.10    0.53
   3 -13  -5    1.30    0.33
  -3 -13   5    0.77    0.31
  -3  13   5    0.62    0.40
   3  13  -5    0.99    0.75
   2 -13  -5    3.96    0.50
  -2 -13   5    4.75    0.50
   2  13  -5    3.65    0.58
  -2  13   5    4.15    0.59
  -1 -13   5    1.30    0.30
   1 -13  -5    1.04    0.36
   1  13  -5    1.41    0.48
  -1  13   5    1.12    0.44
   0 -13  -5    0.43    0.34
   0 -13   5    0.56    0.32
   0  13  -5    0.76    0.37
   0  13   5    0.26    0.50
   0  13   5    0.38    0.43
  -1 -13  -5    0.17    0.36
   1 -13   5    0.44    0.32
   1  13   5    0.57    0.43
  -1  13  -5    0.74    0.31
  -1  13  -5    0.81    0.45
   1  13   5    1.43    0.53
  -2 -13  -5    1.07    0.40
   2 -13   5    1.46    0.29
  -2  13  -5    0.96    0.47
   2  13   5    0.74    0.46
   2  13   5    0.70    0.38
   3 -13   5    0.71    0.33
  -3 -13  -5    0.53    0.41
   3  13   5    0.82    0.53
   3  13   5    0.36    0.41
  -3  13  -5    1.55    0.46
  -4 -13  -5   -0.36    0.41
   4  13   5    0.22    0.38
  -4  13  -5    0.17    0.42
  -5 -13  -5   -0.13    0.43
   5  13   5   -0.13    0.54
  -5  13  -5    0.28    0.37
  -5 -14   5    0.42    1.17
   5  14  -5   -0.40    0.52
  -5  14   5   -0.12    0.50
   5  14  -5    0.31    0.53
  -4 -14   5    0.42    0.36
   4 -14  -5    0.23    0.31
  -4  14   5   -0.41    0.45
   4  14  -5   -0.18    0.59
   3 -14  -5    0.08    0.41
  -3 -14   5   -0.08    0.32
  -3  14   5    0.01    0.37
   3  14  -5    0.53    0.49
  -2 -14   5    1.44    0.35
   2 -14  -5    1.13    0.37
   2  14  -5    0.98    0.48
  -2  14   5    0.99    0.48
   1 -14  -5    0.28    0.37
  -1 -14   5    1.05    0.33
  -1  14   5    1.86    0.57
   1  14  -5    0.28    0.51
  -1  14   5    0.66    0.49
   0 -14   5    2.97    0.44
   0 -14  -5    2.31    0.46
   0  14   5    1.42    0.61
   0  14  -5    2.54    0.51
   0  14   5    1.63    0.55
  -1 -14  -5    0.04    0.29
   1 -14   5   -0.20    0.36
  -1  14  -5   -0.20    0.39
   1  14   5    0.66    0.58
   1  14   5    0.10    0.48
  -2 -14  -5    0.52    0.43
   2 -14   5    0.61    0.45
   2  14   5    0.69    0.59
  -2  14  -5   -0.02    0.50
   2  14   5   -0.58    0.50
  -3 -14  -5   -0.54    0.45
   3 -14   5    0.38    0.31
   3  14   5    0.27    0.59
  -3  14  -5    0.40    0.50
   3 -15  -5   -0.06    0.38
  -3  15   5    0.00    0.41
  -2 -15   5    0.84    0.46
   2 -15  -5   -0.19    0.39
   2  15  -5   -0.24    0.58
  -2  15   5   -0.58    0.43
   1 -15  -5    2.27    0.46
  -1 -15   5    2.09    0.43
  -1  15   5    2.47    0.71
  -1  15   5    1.05    0.61
   1  15  -5    2.15    0.59
   0 -15  -5    0.50    0.42
   0 -15   5   -0.36    0.43
   0  15  -5    3.62    1.71
   0  15   5   -0.08    0.64
   0  15   5   -0.38    0.55
  -1 -15  -5    0.71    0.50
   1 -15   5    2.46    0.42
  -1  15  -5    2.31    0.50
   1  15   5    1.34    0.73
   1  15   5    3.17    0.71
  11   0  -6    0.22    0.41
 -11   0   6    0.26    0.35
 -10   0   6    0.79    0.31
  10   0  -6    0.12    0.43
   9   0  -6   -0.37    0.28
  -9   0   6   -0.23    0.20
   8   0  -6    2.40    0.30
  -8   0   6    2.13    0.29
  -8   0   6    1.76    0.21
  -7   0   6    0.07    0.10
   7   0  -6   -0.14    0.18
  -7   0   6    0.03    0.17
  -7   0   6   -0.04    0.07
  -6   0   6   17.58    1.54
  -6   0   6   18.47    1.58
   6   0  -6   16.42    1.72
  -6   0   6   18.16    1.58
   5   0  -6   -0.07    0.19
   5   0  -6    0.09    0.11
  -5   0   6    0.13    0.14
  -5   0   6    0.01    0.14
   5   0  -6    0.17    0.16
  -5   0   6   -0.07    0.04
  -5   0   6   -0.01    0.04
   4   0  -6   47.66    4.40
  -4   0   6   52.68    4.75
  -4   0   6   48.23    4.18
   4   0  -6   47.36    4.77
  -4   0   6   49.96    4.47
   4   0  -6   44.65    4.40
  -4   0   6   59.21    6.37
  -3   0   6   -0.01    0.05
  -3   0   6    0.04    0.09
   3   0  -6    0.04    0.09
  -3   0   6    0.11    0.08
   3   0  -6   -0.03    0.06
  -3   0   6    0.02    0.07
   2   0  -6    0.06    0.06
   2   0  -6    0.05    0.10
   2   0  -6    0.09    0.04
  -2   0   6    0.08    0.06
  -2   0   6    0.05    0.06
  -2   0   6    0.13    0.09
  -2   0   6   -0.04    0.06
  -2   0   6    0.05    0.08
   1   0  -6   -0.09    0.07
  -1   0   6    0.10    0.08
  -1   0   6   -0.07    0.06
   1   0  -6   -0.08    0.08
  -1   0   6   -0.05    0.04
  -1   0   6    0.09    0.06
   0   0   6    6.85    0.61
   0   0   6    8.17    0.77
   0   0  -6    6.50    0.67
   0   0  -6    5.70    0.60
   1   0   6    0.00    0.05
   1   0   6    0.02    0.08
   1   0   6    0.28    0.14
  -1   0  -6   -0.02    0.04
  -1   0  -6   -0.11    0.10
  -2   0  -6   14.88    1.43
  -2   0  -6   13.35    1.35
   2   0   6   17.15    1.37
   2   0   6   15.91    1.58
   2   0   6   14.80    1.40
   2   0   6   14.81    1.65
   3   0   6    0.01    0.15
  -3   0  -6    0.04    0.13
   3   0   6   -0.02    0.13
   3   0   6   -0.12    0.10
  -3   0  -6    0.01    0.06
   3   0   6   -0.14    0.14
  -4   0  -6    9.83    0.90
   4   0   6   10.19    1.12
   4   0   6   11.09    1.06
  -4   0  -6    9.10    0.97
   4   0   6   10.88    1.10
   5   0   6    0.13    0.19
   5   0   6   -0.16    0.21
  -5   0  -6   -0.07    0.10
  -5   0  -6    0.04    0.09
   5   0   6   -0.04    0.14
   6   0   6   28.26    2.93
   6   0   6   24.62    2.44
  -6   0  -6   29.05    2.40
  -6   0  -6   26.20    2.49
   6   0   6   24.08    2.86
  -7   0  -6   -0.06    0.17
   7   0   6    0.32    0.24
  -7   0  -6    0.15    0.23
   7   0   6   -0.51    0.33
  -8   0  -6    0.15    0.26
   8   0   6    0.08    0.40
   8   0   6   -0.21    0.34
   9   0   6    0.34    0.46
  -9   0  -6    0.23    0.31
   9   0   6   -0.11    0.39
  10   0   6    0.20    0.40
 -10   0  -6   -0.05    0.34
  10   0   6   -0.39    0.47
  11  -1  -6    0.04    0.32
 -11  -1   6    0.21    0.35
 -11   1   6   -0.21    0.48
 -11   1   6   -0.42    0.33
  11   1  -6   -0.56    0.42
 -10  -1   6    0.66    0.27
  10  -1  -6    0.76    0.35
 -10   1   6    0.90    0.27
  10   1  -6    0.87    0.42
   9  -1  -6   -0.14    0.27
  -9  -1   6    0.32    0.25
   9   1  -6    0.15    0.25
  -9   1   6    0.10    0.20
   8  -1  -6    0.08    0.20
  -8  -1   6    0.00    0.10
  -8  -1   6   -0.02    0.20
  -8   1   6   -0.03    0.19
   8   1  -6   -0.09    0.22
  -7  -1   6    3.13    0.32
   7  -1  -6    4.08    0.37
  -7  -1   6    3.92    0.37
   7   1  -6    3.77    0.37
  -7   1   6    3.33    0.36
  -7   1   6    2.93    0.31
  -7   1   6    3.20    0.31
  -6  -1   6   23.67    2.05
   6  -1  -6   24.26    2.20
  -6  -1   6   27.36    2.09
  -6   1   6   23.79    2.12
  -6   1   6   23.30    2.18
   6   1  -6   23.25    2.37
   6   1  -6   19.64    2.38
  -6   1   6   22.47    2.05
   5  -1  -6   -0.23    0.16
  -5  -1   6   -0.04    0.11
  -5  -1   6   -0.09    0.09
  -5  -1   6   -0.21    0.13
   5  -1  -6   -0.07    0.11
   5  -1  -6    0.10    0.12
  -5   1   6   -0.08    0.11
  -5   1   6   -0.13    0.13
  -5   1   6    0.05    0.05
   5   1  -6    0.03    0.16
   5   1  -6    0.12    0.11
   4  -1  -6    7.25    0.68
  -4  -1   6    8.38    0.68
  -4  -1   6    8.13    0.72
   4  -1  -6    7.17    0.66
  -4  -1   6    6.25    0.66
  -4  -1   6    7.86    0.84
   4  -1  -6    7.17    0.78
   4   1  -6    7.75    0.68
  -4   1   6    7.62    0.68
  -4   1   6    7.56    0.67
   4   1  -6    7.62    0.71
  -4   1   6    7.09    0.66
  -4   1   6    8.38    0.75
   4   1  -6    6.94    0.67
  -3  -1   6   35.23    3.00
   3  -1  -6   26.57    2.42
   3  -1  -6   23.60    2.42
  -3  -1   6   35.52    3.42
  -3  -1   6   32.65    2.45
   3  -1  -6   27.30    2.44
  -3  -1   6   24.44    2.39
  -3  -1   6   26.25    2.42
   3   1  -6   27.07    2.98
  -3   1   6   29.49    2.44
   3   1  -6   29.83    2.63
  -3   1   6   24.61    2.38
   3   1  -6   25.71    2.48
   3   1  -6   30.02    2.56
  -3   1   6   33.19    3.27
  -3   1   6   30.36    2.46
  -2  -1   6    0.34    0.10
  -2  -1   6    0.40    0.06
   2  -1  -6    0.54    0.11
   2  -1  -6    0.42    0.08
  -2  -1   6    0.40    0.07
  -2  -1   6    0.59    0.10
  -2  -1   6    0.27    0.09
   2  -1  -6    0.34    0.06
  -2   1   6    0.69    0.08
  -2   1   6    0.37    0.07
   2   1  -6    0.45    0.08
   2   1  -6    0.48    0.10
  -2   1   6    0.39    0.10
  -2   1   6    0.33    0.12
   2   1  -6    0.54    0.12
   2   1  -6    0.41    0.06
  -1  -1   6    8.12    0.63
  -1  -1   6    7.72    0.65
  -1  -1   6    7.32    0.70
   1  -1  -6    6.46    0.68
   1  -1  -6    6.06    0.60
  -1  -1   6    6.44    0.60
  -1   1   6    7.29    0.70
   1   1  -6    6.76    0.68
  -1   1   6    5.81    0.59
  -1   1   6    7.12    0.62
   1   1  -6    6.98    0.69
   1   1  -6    6.38    0.64
   0  -1  -6   17.65    1.74
   0  -1   6   18.68    1.74
   0  -1  -6   14.49    1.58
   0  -1   6   17.88    1.53
   0  -1   6   18.35    1.67
   0   1  -6   15.59    1.69
   0   1   6   18.33    1.86
   0   1  -6   16.73    1.69
   0   1   6   16.72    1.68
   0   1  -6   16.96    1.83
   1  -1   6   38.95    3.73
   1  -1   6   42.41    4.07
  -1  -1  -6   33.58    3.29
  -1  -1  -6   34.44    3.46
   1  -1   6   37.24    3.35
  -1   1  -6   33.16    3.51
  -1   1  -6   33.71    3.29
   1   1   6   41.11    3.55
   1   1   6   40.59    4.32
   1   1   6   38.32    3.72
   2  -1   6    0.25    0.09
   2  -1   6    0.30    0.13
  -2  -1  -6    0.15    0.09
   2  -1   6    0.19    0.10
   2  -1   6    0.00    0.08
  -2   1  -6    0.01    0.10
   2   1   6    0.32    0.15
   2   1   6    0.28    0.12
   2   1   6    0.14    0.10
  -2   1  -6    0.09    0.06
   2   1   6    0.10    0.10
  -2   1  -6    0.16    0.10
   3  -1   6   -0.10    0.14
  -3  -1  -6    0.13    0.04
  -3  -1  -6    0.27    0.14
   3  -1   6   -0.04    0.13
   3  -1   6    0.07    0.13
   3  -1   6    0.19    0.14
  -3   1  -6    0.11    0.07
   3   1   6    0.23    0.11
   3   1   6   -0.29    0.17
  -3   1  -6    0.22    0.11
   3   1   6    0.30    0.12
  -3   1  -6    0.20    0.13
   3   1   6    0.08    0.17
  -4  -1  -6   13.02    1.18
   4  -1   6   13.26    1.24
  -4  -1  -6   11.18    1.23
   4  -1   6   13.72    1.58
  -4   1  -6   13.16    1.17
   4   1   6   13.05    1.34
   4   1   6   14.48    1.34
   4   1   6   14.27    1.30
  -4   1  -6   11.48    1.31
   5  -1   6    2.03    0.51
  -5  -1  -6    1.41    0.19
  -5  -1  -6    1.63    0.19
   5  -1   6    1.85    0.23
   5  -1   6    2.11    0.27
  -5  -1  -6    2.12    0.25
  -5   1  -6    1.84    0.21
   5   1   6    1.98    0.24
   5   1   6    1.66    0.26
   5   1   6    1.25    0.26
   6  -1   6    2.02    0.35
  -6  -1  -6    2.61    0.32
  -6  -1  -6    1.96    0.26
   6  -1   6    2.41    0.30
   6  -1   6    2.22    0.35
  -6  -1  -6    2.62    0.27
   6   1   6    2.71    0.39
  -6   1  -6    2.55    0.27
   6   1   6    2.76    0.36
  -7  -1  -6    6.56    0.61
  -7  -1  -6    5.91    0.61
   7  -1   6    5.82    0.62
   7  -1   6    5.19    0.63
   7   1   6    6.07    0.65
  -7   1  -6    5.71    0.59
  -7   1  -6    6.22    0.59
   7   1   6    5.57    0.69
   8  -1   6   -0.09    0.33
   8  -1   6   -0.04    0.30
  -8  -1  -6    0.03    0.27
   8   1   6   -0.37    0.34
  -8   1  -6    0.17    0.23
   8   1   6    0.34    0.35
  -8   1  -6   -0.25    0.22
   9  -1   6    1.53    0.39
   9  -1   6    1.15    0.48
  -9  -1  -6    1.42    0.37
  -9   1  -6    1.71    0.34
   9   1   6    0.99    0.45
   9   1   6    1.53    0.44
  10  -1   6    0.19    0.55
 -10  -1  -6    0.40    0.40
  10  -1   6    0.32    0.38
  10   1   6    0.77    0.43
  10   1   6    0.62    0.60
 -10   1  -6    0.43    0.26
  11  -2  -6    1.14    0.42
 -11  -2   6    1.76    0.41
 -11   2   6    1.18    0.32
 -11   2   6    1.53    0.45
  11   2  -6    1.35    0.47
 -10  -2   6    0.42    0.32
  10  -2  -6   -0.03    0.33
 -10   2   6   -0.28    0.28
 -10   2   6    0.70    0.35
  10   2  -6    0.17    0.30
   9  -2  -6    2.71    0.39
  -9  -2   6    2.86    0.35
  -9   2   6    2.72    0.40
  -9   2   6    2.15    0.33
   9   2  -6    3.09    0.41
  -8  -2   6    0.65    0.15
   8  -2  -6    0.81    0.23
  -8  -2   6    0.74    0.23
  -8   2   6    0.85    0.22
   8   2  -6    0.78    0.26
   7  -2  -6    0.36    0.18
  -7  -2   6    0.37    0.18
  -7  -2   6    0.27    0.12
  -7   2   6    0.28    0.07
   7   2  -6    0.07    0.20
  -7   2   6    0.56    0.17
  -7   2   6    0.18    0.08
  -7   2   6    0.11    0.11
  -6  -2   6    2.34    0.26
   6  -2  -6    2.20    0.24
  -6  -2   6    2.19    0.23
  -6   2   6    2.41    0.25
  -6   2   6    1.70    0.22
   6   2  -6    2.64    0.31
   6   2  -6    2.62    0.30
   5  -2  -6    1.27    0.18
  -5  -2   6    1.31    0.16
  -5  -2   6    1.23    0.18
  -5  -2   6    1.41    0.18
   5  -2  -6    1.50    0.17
  -5   2   6    1.12    0.14
  -5   2   6    1.16    0.17
   5   2  -6    1.15    0.17
  -5   2   6    0.67    0.17
   5   2  -6    1.40    0.22
  -4  -2   6   -0.19    0.12
   4  -2  -6    0.19    0.14
  -4  -2   6   -0.01    0.08
  -4  -2   6    0.11    0.10
  -4  -2   6    0.07    0.10
   4  -2  -6    0.14    0.10
  -4  -2   6    0.06    0.11
   4  -2  -6   -0.02    0.10
  -4   2   6   -0.02    0.11
   4   2  -6   -0.01    0.14
   4   2  -6   -0.08    0.08
   4   2  -6   -0.18    0.12
  -4   2   6   -0.02    0.09
  -4   2   6    0.08    0.11
  -3  -2   6   48.94    4.45
  -3  -2   6   53.04    4.60
  -3  -2   6   40.54    3.48
   3  -2  -6   38.73    3.51
  -3  -2   6   34.61    3.48
   3  -2  -6   42.84    3.92
   3  -2  -6   39.38    3.52
   3   2  -6   39.53    3.67
  -3   2   6   41.27    3.86
  -3   2   6   41.78    3.56
  -3   2   6   36.64    3.49
   3   2  -6   41.78    3.87
   3   2  -6   47.59    4.39
  -3   2   6   41.76    3.55
   3   2  -6   46.45    4.36
   2  -2  -6    5.43    0.51
  -2  -2   6    6.71    0.54
  -2  -2   6    5.13    0.50
  -2  -2   6    5.30    0.50
  -2  -2   6    6.62    0.52
  -2   2   6    5.54    0.50
  -2   2   6    5.73    0.51
   2   2  -6    4.89    0.52
  -2   2   6    5.90    0.57
  -2   2   6    5.94    0.52
   2   2  -6    5.44    0.54
   2   2  -6    6.28    0.54
  -2   2   6    5.33    0.51
   2   2  -6    6.14    0.61
   2   2  -6    5.11    0.50
  -1  -2   6  163.37   13.48
   1  -2  -6  134.93   16.92
  -1  -2   6  172.07   14.90
   1  -2  -6  132.31   13.45
  -1  -2   6  166.37   14.25
  -1  -2   6  158.14   13.55
   1   2  -6  146.31   14.86
   1   2  -6  159.65   16.84
  -1   2   6  135.86   13.26
  -1   2   6  166.46   16.94
   1   2  -6  153.91   15.65
  -1   2   6  154.27   15.08
   0  -2  -6   64.06    6.89
   0  -2   6   59.73    5.53
   0  -2   6   73.75    6.64
   0  -2  -6   57.16    6.01
   0  -2   6   66.50    5.83
   0   2  -6   68.85    6.16
   0   2  -6   65.27    5.87
   0   2   6   61.00    5.96
   0   2   6   57.31    5.70
   0   2  -6   64.93    6.28
   0   2   6   74.76    7.62
   0   2  -6   69.75    6.74
   0   2   6   61.87    5.62
  -1  -2  -6  117.12   11.95
   1  -2   6  141.84   13.84
   1  -2   6  141.90   12.18
   1  -2   6  141.50   12.66
  -1  -2  -6  108.65   11.25
  -1   2  -6  120.88   13.14
   1   2   6  136.06   14.82
  -1   2  -6  122.70   11.56
   1   2   6  127.06   12.31
   1   2   6  125.73   11.17
  -1   2  -6  123.08   12.19
  -2  -2  -6    0.69    0.12
   2  -2   6    0.55    0.12
   2  -2   6    0.58    0.12
   2  -2   6    1.00    0.14
   2  -2   6    0.79    0.14
   2   2   6    0.59    0.15
   2   2   6    0.69    0.14
  -2   2  -6    0.68    0.12
   2   2   6    0.54    0.14
  -2   2  -6    0.66    0.13
   2   2   6    0.67    0.15
  -2   2  -6    0.77    0.12
   3  -2   6    0.05    0.12
   3  -2   6    0.08    0.11
   3  -2   6    0.04    0.12
  -3  -2  -6   -0.26    0.24
   3  -2   6   -0.01    0.13
  -3   2  -6   -0.10    0.09
   3   2   6   -0.07    0.16
   3   2   6   -0.06    0.12
   3   2   6   -0.16    0.14
  -3   2  -6    0.17    0.13
  -4  -2  -6   -0.05    0.06
  -4  -2  -6    0.00    0.06
  -4  -2  -6    0.05    0.09
   4  -2   6   -0.08    0.14
   4  -2   6    0.19    0.16
   4  -2   6   -0.08    0.13
   4   2   6    0.08    0.14
  -4   2  -6   -0.08    0.15
  -4   2  -6   -0.09    0.12
   4   2   6   -0.17    0.19
   4   2   6    0.10    0.17
  -5  -2  -6   17.75    1.55
   5  -2   6   14.86    1.59
   5  -2   6   20.11    1.58
  -5  -2  -6   15.99    1.54
   5  -2   6   17.25    1.70
  -5  -2  -6   13.71    1.50
   5   2   6   15.65    1.67
   5   2   6   14.68    1.70
  -5   2  -6   17.27    1.56
   6  -2   6    2.47    0.28
   6  -2   6    2.28    0.34
  -6  -2  -6    2.33    0.25
   6  -2   6    2.51    0.30
  -6  -2  -6    2.15    0.31
  -6  -2  -6    1.87    0.24
   6   2   6    2.16    0.36
  -6   2  -6    2.01    0.27
  -7  -2  -6    7.95    0.75
   7  -2   6    6.37    0.78
   7  -2   6    7.28    0.78
  -7  -2  -6    8.53    0.77
   7   2   6    8.44    0.81
   7   2   6    7.53    0.82
  -7   2  -6    8.01    0.82
   8  -2   6    0.01    0.30
  -8  -2  -6    0.25    0.24
   8  -2   6    0.00    0.30
   8   2   6    0.31    0.34
   8   2   6   -0.40    0.42
  -8   2  -6    0.06    0.25
   9  -2   6    1.70    0.39
   9  -2   6    1.16    0.40
  -9  -2  -6    1.67    0.39
   9   2   6    1.95    0.40
   9   2   6    1.28    0.54
  11  -3  -6    0.32    0.40
 -11  -3   6    0.06    0.39
  11   3  -6    0.19    0.40
 -11   3   6    0.42    0.35
 -11   3   6    0.18    0.41
  10  -3  -6    0.53    0.27
 -10  -3   6    0.11    0.26
 -10   3   6    0.35    0.23
  10   3  -6    1.08    0.39
 -10   3   6    0.58    0.36
  -9  -3   6    0.17    0.21
   9  -3  -6    0.38    0.21
   9   3  -6   -0.16    0.32
  -9   3   6    0.63    0.28
  -9   3   6    0.42    0.23
   8  -3  -6    0.17    0.21
  -8  -3   6    0.05    0.15
  -8  -3   6    0.24    0.22
  -8   3   6    0.35    0.23
   8   3  -6    0.10    0.27
  -8   3   6    0.07    0.19
   7  -3  -6    0.00    0.17
  -7  -3   6   -0.04    0.13
  -7  -3   6   -0.24    0.18
  -7   3   6   -0.09    0.11
  -7   3   6    0.01    0.07
  -7   3   6   -0.22    0.18
   7   3  -6    0.00    0.16
  -7   3   6    0.04    0.16
   6  -3  -6   12.93    1.27
  -6  -3   6   12.48    1.21
  -6  -3   6   14.65    1.22
  -6   3   6   14.46    1.21
   6   3  -6   12.93    1.31
  -6   3   6   14.14    1.34
   6   3  -6   13.86    1.29
  -6   3   6   12.98    1.20
  -6   3   6   14.47    1.65
  -5  -3   6    0.55    0.14
  -5  -3   6    0.30    0.12
  -5  -3   6    0.57    0.15
   5  -3  -6    0.51    0.12
   5  -3  -6    0.44    0.11
  -5   3   6    0.20    0.07
   5   3  -6    0.43    0.18
  -5   3   6    0.35    0.09
  -5   3   6    0.19    0.13
   5   3  -6    0.26    0.14
   4  -3  -6   47.35    4.35
   4  -3  -6   47.03    4.28
  -4  -3   6   55.94    5.76
  -4  -3   6   48.99    4.27
  -4  -3   6   46.00    4.25
  -4  -3   6   57.31    4.95
  -4   3   6   53.40    6.52
  -4   3   6   52.69    4.87
  -4   3   6   51.95    4.36
   4   3  -6   50.31    5.22
  -4   3   6   47.29    4.24
  -4   3   6   51.55    5.08
   4   3  -6   50.27    5.24
   4   3  -6   49.09    4.85
  -3  -3   6    8.29    0.70
  -3  -3   6    6.53    0.60
   3  -3  -6    6.24    0.59
  -3  -3   6    6.33    0.60
  -3  -3   6    7.90    0.61
   3  -3  -6    6.57    0.63
  -3   3   6    6.74    0.60
  -3   3   6    6.28    0.64
   3   3  -6    6.24    0.64
  -3   3   6    6.96    0.65
  -3   3   6    6.91    0.63
   3   3  -6    6.53    0.66
   3   3  -6    6.59    0.64
  -3   3   6    5.82    0.59
   3   3  -6    7.72    0.67
   3   3  -6    6.70    0.64
  -3   3   6    6.75    0.70
  -2  -3   6   69.68    5.44
   2  -3  -6   59.26    5.91
  -2  -3   6   57.50    5.13
  -2  -3   6   54.29    5.15
  -2   3   6   55.47    5.26
   2   3  -6   66.63    6.08
  -2   3   6   61.30    5.53
   2   3  -6   63.53    6.06
  -2   3   6   67.77    6.64
   2   3  -6   59.40    5.86
  -2   3   6   60.53    5.14
  -2   3   6   54.27    5.18
   2   3  -6   66.53    6.76
  -2   3   6   57.93    5.34
   2   3  -6   57.10    5.67
   1  -3  -6   36.50    4.18
  -1  -3   6   47.66    3.78
  -1  -3   6   43.02    3.68
  -1  -3   6   43.60    3.89
  -1   3   6   40.91    3.74
  -1   3   6   45.84    4.37
   1   3  -6   38.63    3.62
   1   3  -6   43.38    4.15
   1   3  -6   44.15    3.85
  -1   3   6   36.25    3.72
   1   3  -6   40.49    3.77
  -1   3   6   44.34    4.14
   0  -3  -6   32.09    3.26
   0  -3   6   40.56    3.29
   0  -3  -6   31.06    3.24
   0  -3   6   36.98    3.37
   0   3   6   34.90    3.38
   0   3  -6   37.09    3.05
   0   3   6   30.39    3.04
   0   3  -6   33.85    3.26
   0   3  -6   34.19    3.10
   0   3   6   38.48    4.07
   0   3  -6   35.87    3.12
   0   3   6   33.94    3.05
   1  -3   6   -0.14    0.10
  -1  -3  -6    0.12    0.08
  -1  -3  -6    0.17    0.09
   1  -3   6    0.12    0.07
   1  -3   6    0.16    0.11
  -1  -3  -6    0.16    0.13
   1   3   6    0.02    0.06
  -1   3  -6    0.18    0.09
  -1   3  -6    0.06    0.11
  -1   3  -6    0.19    0.07
   1   3   6   -0.09    0.13
   1   3   6   -0.15    0.10
   1   3   6    0.12    0.11
  -2  -3  -6    0.03    0.09
   2  -3   6    0.13    0.12
   2  -3   6   -0.06    0.10
  -2  -3  -6    0.10    0.14
   2  -3   6    0.02    0.10
  -2  -3  -6    0.14    0.13
   2  -3   6    0.06    0.08
   2   3   6    0.18    0.14
   2   3   6    0.07    0.13
  -2   3  -6    0.04    0.11
  -2   3  -6    0.23    0.14
  -2   3  -6    0.08    0.09
   2   3   6    0.06    0.12
   3  -3   6    2.24    0.26
  -3  -3  -6    1.88    0.22
  -3  -3  -6    1.73    0.18
   3  -3   6    1.85    0.23
   3  -3   6    2.02    0.22
   3  -3   6    2.27    0.25
  -3   3  -6    2.36    0.23
   3   3   6    1.99    0.26
   3   3   6    1.86    0.27
  -3   3  -6    2.36    0.23
   3   3   6    1.90    0.23
  -4  -3  -6    1.49    0.23
   4  -3   6    1.93    0.27
   4  -3   6    1.90    0.25
  -4  -3  -6    1.80    0.22
   4  -3   6    2.20    0.24
   4  -3   6    2.19    0.24
  -4  -3  -6    1.61    0.18
   4   3   6    1.89    0.26
   4   3   6    1.95    0.29
  -4   3  -6    2.01    0.24
   5  -3   6    0.67    0.20
   5  -3   6    0.99    0.19
  -5  -3  -6    0.58    0.21
  -5  -3  -6    0.88    0.13
  -5  -3  -6    0.67    0.17
   5  -3   6    0.49    0.22
  -5   3  -6    0.64    0.16
   5   3   6    0.34    0.27
   5   3   6    0.91    0.23
  -6  -3  -6    3.70    0.37
   6  -3   6    3.00    0.42
   6  -3   6    4.51    0.38
  -6  -3  -6    3.23    0.36
  -6  -3  -6    3.46    0.40
   6  -3   6    3.76    0.42
  -6   3  -6    4.02    0.40
   6   3   6    2.92    0.47
   6   3   6    4.01    0.46
  -7  -3  -6    0.49    0.27
   7  -3   6   -0.05    0.30
   7  -3   6    0.49    0.26
  -7  -3  -6    0.03    0.17
   7   3   6    0.25    0.31
  -7   3  -6    0.40    0.21
   7   3   6    0.21    0.26
   8  -3   6   -0.51    0.31
   8  -3   6   -0.01    0.25
  -8  -3  -6   -0.06    0.30
   8   3   6   -0.02    0.34
  -8   3  -6    0.41    0.22
   8   3   6    0.48    0.47
   9  -3   6    0.69    0.45
   9  -3   6    0.85    0.38
  -9  -3  -6    1.20    0.38
   9   3   6    0.50    0.43
   9   3   6    0.55    0.87
  11  -4  -6   -0.31    0.33
 -11  -4   6    0.08    0.34
  11   4  -6    0.17    0.41
 -11   4   6    0.26    0.34
 -11   4   6    0.29    0.42
 -10  -4   6   -0.24    0.27
  10  -4  -6    0.39    0.28
 -10   4   6    0.11    0.27
 -10   4   6    0.22    0.36
  10   4  -6    0.60    0.33
  -9  -4   6   -0.13    0.21
  -9  -4   6    0.06    0.20
   9  -4  -6   -0.15    0.22
  -9   4   6    0.57    0.35
   9   4  -6   -0.14    0.35
  -9   4   6    0.01    0.22
  -8  -4   6    1.38    0.23
  -8  -4   6    1.43    0.28
   8  -4  -6    1.38    0.24
  -8   4   6    1.14    0.24
   8   4  -6    1.74    0.32
  -8   4   6    1.27    0.28
  -7  -4   6    0.35    0.16
   7  -4  -6    0.22    0.16
  -7  -4   6    0.06    0.13
  -7   4   6    0.11    0.24
  -7   4   6    0.25    0.16
  -7   4   6    0.13    0.45
   7   4  -6    0.49    0.31
  -7   4   6   -0.07    0.15
  -6  -4   6    0.09    0.14
   6  -4  -6    0.13    0.15
  -6  -4   6   -0.03    0.16
  -6   4   6    0.08    0.07
  -6   4   6    0.12    0.13
   6   4  -6   -0.05    0.18
  -6   4   6    0.13    0.17
   6   4  -6    0.41    0.20
  -6   4   6   -0.02    0.11
   5  -4  -6    3.08    0.31
   5  -4  -6    3.60    0.32
  -5  -4   6    2.83    0.32
  -5  -4   6    2.76    0.32
  -5   4   6    2.99    0.31
  -5   4   6    3.22    0.32
   5   4  -6    2.96    0.34
  -5   4   6    3.58    0.37
   5   4  -6    3.34    0.35
  -5   4   6    2.90    0.32
   4  -4  -6    0.13    0.12
  -4  -4   6    0.21    0.13
  -4  -4   6    0.23    0.12
  -4  -4   6    0.31    0.14
  -4   4   6    0.39    0.14
   4   4  -6    0.15    0.18
   4   4  -6   -0.36    0.14
  -4   4   6    0.27    0.13
   4   4  -6    0.14    0.16
  -4   4   6    0.21    0.11
  -4   4   6    0.49    0.14
  -4   4   6    0.16    0.07
   4   4  -6    0.17    0.13
   4   4  -6    0.21    0.06
  -3  -4   6    2.60    0.24
  -3  -4   6    1.96    0.23
  -3  -4   6    2.52    0.26
  -3  -4   6    2.24    0.23
  -3   4   6    2.27    0.23
  -3   4   6    1.78    0.24
  -3   4   6    2.14    0.24
  -3   4   6    2.23    0.23
   3   4  -6    2.41    0.25
   3   4  -6    2.23    0.25
   3   4  -6    2.10    0.21
  -3   4   6    1.96    0.24
   3   4  -6    2.71    0.26
   3   4  -6    2.36    0.28
  -2  -4   6    1.99    0.20
  -2  -4   6    2.38    0.24
  -2  -4   6    1.76    0.18
  -2  -4   6    1.99    0.19
   2  -4  -6    1.75    0.21
   2   4  -6    1.98    0.22
  -2   4   6    1.74    0.20
   2   4  -6    2.02    0.23
   2   4  -6    1.98    0.19
   2   4  -6    1.45    0.21
  -2   4   6    2.07    0.23
  -2   4   6    1.85    0.20
  -2   4   6    2.00    0.24
  -2   4   6    1.49    0.20
  -2   4   6    1.54    0.20
   2   4  -6    2.14    0.21
  -1  -4   6   11.93    1.05
  -1  -4   6   13.40    1.11
  -1  -4   6   11.46    1.05
   1  -4  -6   11.60    1.14
   1  -4  -6   10.34    1.17
  -1   4   6   11.50    1.07
   1   4  -6   11.64    1.05
   1   4  -6   12.02    1.05
   1   4  -6   12.80    1.25
   1   4  -6   12.88    1.11
  -1   4   6   11.19    1.07
  -1   4   6   12.92    1.34
  -1   4   6   11.59    1.07
   0  -4  -6    0.57    0.12
   0  -4   6    0.78    0.12
   0  -4  -6    0.63    0.10
   0  -4  -6    0.74    0.16
   0  -4   6    0.90    0.15
   0  -4   6    0.72    0.12
   0   4  -6    0.82    0.09
   0   4  -6    0.65    0.13
   0   4   6    0.63    0.11
   0   4   6    0.73    0.12
   0   4   6    0.74    0.16
   0   4  -6    0.74    0.14
   0   4   6    0.62    0.11
   1  -4   6   98.88    8.57
  -1  -4  -6   77.93    7.84
  -1  -4  -6   84.62    8.32
  -1  -4  -6   78.08    8.09
   1  -4   6   92.86    7.94
   1  -4   6   85.32    7.70
  -1  -4  -6   69.20    7.76
   1   4   6   80.78    7.82
   1   4   6   92.72    7.73
   1   4   6   75.55    7.39
  -1   4  -6   89.87    7.31
  -1   4  -6   92.87    7.96
  -1   4  -6   84.72    8.20
   1   4   6   98.88    9.36
  -2  -4  -6   18.94    1.90
  -2  -4  -6   18.25    2.27
  -2  -4  -6   19.73    1.89
   2  -4   6   23.93    1.97
   2  -4   6   25.29    2.17
   2  -4   6   24.68    2.07
   2  -4   6   23.61    2.20
  -2  -4  -6   20.73    1.93
   2   4   6   21.12    1.98
  -2   4  -6   22.50    1.94
   2   4   6   24.00    2.47
   2   4   6   19.45    1.96
   2   4   6   19.10    1.92
  -2   4  -6   23.44    2.17
   3  -4   6    0.09    0.14
   3  -4   6    0.26    0.20
   3  -4   6    0.05    0.18
  -3  -4  -6    0.07    0.07
   3  -4   6    0.17    0.12
  -3  -4  -6    0.04    0.12
   3   4   6   -0.03    0.18
   3   4   6    0.23    0.18
  -3   4  -6    0.07    0.12
  -3   4  -6    0.13    0.14
   4  -4   6   22.26    2.05
   4  -4   6   21.67    2.20
  -4  -4  -6   22.04    2.00
  -4  -4  -6   20.08    2.17
   4  -4   6   25.65    2.12
   4  -4   6   22.21    2.07
  -4   4  -6   20.91    2.26
   4   4   6   21.89    2.26
  -4   4  -6   24.49    2.13
   4   4   6   21.06    2.11
  -5  -4  -6   12.13    1.09
   5  -4   6   11.90    1.17
   5  -4   6   12.37    1.20
  -5  -4  -6   12.29    1.12
  -5  -4  -6   11.04    1.09
   5   4   6   10.85    1.23
  -5   4  -6   13.77    1.16
   5   4   6   12.43    1.20
   6  -4   6    0.16    0.25
   6  -4   6    0.41    0.40
  -6  -4  -6    0.30    0.18
   6  -4   6    0.63    0.24
  -6  -4  -6    0.24    0.20
   6   4   6   -0.02    0.25
   6   4   6    0.41    0.28
  -6   4  -6    0.44    0.18
   7  -4   6    0.68    0.31
   7  -4   6    0.70    0.24
  -7  -4  -6    0.39    0.28
  -7  -4  -6    0.14    0.15
   7   4   6    0.25    0.39
  -7   4  -6    0.58    0.21
   7   4   6    0.65    0.34
   8  -4   6    0.13    0.36
   8  -4   6   -0.01    0.32
  -8  -4  -6    0.33    0.32
   8   4   6   -0.03    0.39
   8   4   6    0.04    0.30
  -8   4  -6    0.04    0.26
  -9  -4  -6    0.44    0.37
   9  -4   6   -0.08    0.43
   9  -4   6   -0.35    0.37
   9   4   6    0.50    0.61
   9   4   6    0.66    0.42
  11  -5  -6    0.22    0.34
 -11  -5   6    1.85    1.36
  11   5  -6   -0.01    0.45
 -11   5   6    0.60    0.45
 -10  -5   6    0.51    0.35
  10  -5  -6    0.20    0.29
  10   5  -6   -0.08    0.44
 -10   5   6   -0.11    0.36
 -10   5   6    0.40    0.28
   9  -5  -6    0.18    0.29
  -9  -5   6    0.70    0.30
  -9  -5   6    0.14    0.23
  -9   5   6    0.26    0.22
   9   5  -6    0.41    0.31
  -9   5   6    0.06    0.30
  -8  -5   6    0.78    0.23
  -8  -5   6    1.30    0.27
   8  -5  -6    0.97    0.25
  -8   5   6    0.42    0.23
  -8   5   6    0.93    0.27
   8   5  -6    0.88    0.32
  -7  -5   6    0.13    0.17
  -7  -5   6    0.24    0.15
   7  -5  -6    0.43    0.20
  -7   5   6    0.43    0.19
   7   5  -6    0.57    0.26
  -7   5   6    0.42    0.22
   7   5  -6    0.03    0.19
   6  -5  -6    3.29    0.39
  -6  -5   6    4.51    0.41
  -6  -5   6    3.84    0.40
   6  -5  -6    4.08    0.40
  -6   5   6    3.84    0.37
  -6   5   6    4.00    0.39
  -6   5   6    3.21    0.62
   6   5  -6    4.63    0.44
  -6   5   6    4.45    0.48
   6   5  -6    3.30    0.42
  -5  -5   6    0.04    0.11
   5  -5  -6   -0.10    0.15
   5  -5  -6    0.00    0.12
  -5  -5   6   -0.04    0.14
  -5   5   6   -0.05    0.15
  -5   5   6    0.17    0.13
  -5   5   6    0.06    0.09
   5   5  -6    0.07    0.07
   5   5  -6   -0.14    0.18
  -5   5   6    0.02    0.13
   5   5  -6   -0.25    0.20
   5   5  -6    0.09    0.06
   4  -5  -6    3.14    0.31
  -4  -5   6    2.97    0.30
  -4  -5   6    2.59    0.29
  -4  -5   6    3.14    0.30
  -4   5   6    2.86    0.29
   4   5  -6    2.74    0.33
  -4   5   6    2.41    0.27
  -4   5   6    3.08    0.34
   4   5  -6    3.38    0.32
  -4   5   6    2.34    0.30
   4   5  -6    3.14    0.27
   4   5  -6    3.16    0.44
  -3  -5   6    6.02    0.58
  -3  -5   6    7.39    0.60
  -3  -5   6    6.84    0.58
  -3   5   6    6.23    0.57
  -3   5   6    5.99    0.60
   3   5  -6    6.67    0.67
   3   5  -6    6.57    0.57
   3   5  -6    7.37    0.62
  -3   5   6    5.20    0.59
  -3   5   6    5.54    0.61
   3   5  -6    6.42    0.66
  -3   5   6    6.12    0.58
   3   5  -6    6.70    0.59
   2  -5  -6   11.21    1.04
  -2  -5   6   12.03    1.03
  -2  -5   6   14.02    1.10
  -2  -5   6   11.94    1.03
  -2   5   6   10.68    1.11
   2   5  -6   13.22    1.11
   2   5  -6   11.62    1.06
  -2   5   6   10.57    1.05
   2   5  -6   10.88    1.14
  -2   5   6   12.25    1.04
   2   5  -6   11.20    1.08
  -2   5   6   10.87    1.13
  -2   5   6   11.68    1.17
  -2   5   6   11.86    1.04
  -1  -5   6    2.91    0.23
   1  -5  -6    1.85    0.25
   1  -5  -6    2.52    0.26
   1  -5  -6    2.14    0.25
  -1  -5   6    2.24    0.23
  -1  -5   6    3.08    0.31
  -1  -5   6    2.60    0.24
  -1   5   6    1.85    0.23
   1   5  -6    1.93    0.22
   1   5  -6    2.84    0.24
   1   5  -6    2.38    0.28
  -1   5   6    2.32    0.26
  -1   5   6    2.50    0.27
  -1   5   6    2.17    0.33
   1   5  -6    2.67    0.27
   0  -5   6    2.18    0.24
   0  -5   6    1.90    0.19
   0  -5   6    1.88    0.20
   0  -5  -6    1.75    0.21
   0  -5   6    2.12    0.19
   0  -5  -6    1.62    0.20
   0  -5  -6    1.72    0.18
   0   5  -6    1.91    0.24
   0   5   6    1.99    0.24
   0   5   6    1.79    0.21
   0   5  -6    1.78    0.22
   0   5  -6    2.08    0.18
   0   5  -6    1.98    0.21
   0   5   6    1.83    0.22
   0   5   6    1.47    0.21
   0   5   6    1.51    0.19
   1  -5   6    1.25    0.20
   1  -5   6    1.08    0.15
   1  -5   6    0.99    0.13
  -1  -5  -6    1.17    0.17
  -1  -5  -6    0.70    0.13
  -1  -5  -6    0.96    0.11
  -1   5  -6    1.18    0.19
  -1   5  -6    1.34    0.13
   1   5   6    0.53    0.14
   1   5   6    0.85    0.15
  -1   5  -6    1.40    0.18
   1   5   6    1.11    0.21
   2  -5   6  117.14    9.97
  -2  -5  -6  102.59   10.10
  -2  -5  -6   90.11    9.84
   2  -5   6  130.93   10.94
  -2  -5  -6   94.46    9.99
   2  -5   6  113.47   10.43
   2  -5   6  115.51   10.31
  -2   5  -6  117.62   10.39
   2   5   6  110.42   12.72
  -2   5  -6  118.21    9.80
  -3  -5  -6   21.35    2.01
  -3  -5  -6   17.93    1.86
   3  -5   6   21.75    2.10
   3  -5   6   23.93    2.00
  -3  -5  -6   20.27    1.91
   3  -5   6   23.31    2.02
   3   5   6   18.12    1.99
   3   5   6   21.49    2.23
  -3   5  -6   24.74    2.00
  -3   5  -6   22.35    1.97
  -4  -5  -6   10.77    1.08
   4  -5   6   12.38    1.16
  -4  -5  -6   12.03    1.21
   4  -5   6   12.36    1.18
   4  -5   6   12.80    1.19
  -4  -5  -6   11.71    1.11
   4   5   6   11.72    1.27
  -4   5  -6   14.50    1.19
   4   5   6   12.25    1.24
   5  -5   6   19.82    1.75
   5  -5   6   18.60    1.86
  -5  -5  -6   18.41    1.63
  -5  -5  -6   15.17    1.58
  -5  -5  -6   18.20    1.79
   5   5   6   16.75    1.85
   5   5   6   18.70    1.81
  -5   5  -6   21.04    1.83
  -6  -5  -6    0.15    0.20
   6  -5   6    0.30    0.26
   6  -5   6    0.28    0.20
  -6  -5  -6    0.07    0.19
  -6   5  -6    1.63    0.46
   6   5   6    0.10    0.35
   6   5   6    0.49    0.27
   7  -5   6    0.99    0.32
   7  -5   6    0.95    0.30
  -7  -5  -6    1.01    0.32
  -7  -5  -6    0.89    0.25
   7   5   6    0.87    0.35
  -7   5  -6    1.48    0.30
   7   5   6    0.84    0.38
  -8  -5  -6    0.33    0.28
   8  -5   6   -0.04    0.31
  -8  -5  -6    0.17    0.18
   8  -5   6    0.20    0.35
  -8   5  -6    0.06    0.30
   8   5   6    0.07    0.41
   8   5   6    0.52    0.38
   9  -5   6    0.74    0.54
  -9  -5  -6    0.32    0.38
   9  -5   6    0.48    0.38
   9   5   6    0.14    0.61
   9   5   6    0.32    0.43
  10  -6  -6   -0.01    0.30
 -10  -6   6    0.04    0.37
 -10   6   6    0.06    0.48
  10   6  -6   -0.18    0.46
  -9  -6   6    5.71    0.56
  -9  -6   6    4.77    0.54
   9  -6  -6    5.87    0.59
  -9   6   6    5.74    0.55
   9   6  -6    4.20    0.63
  -9   6   6    4.34    0.64
  -8  -6   6    0.51    0.21
  -8  -6   6    0.55    0.20
   8  -6  -6    0.35    0.20
  -8   6   6    0.39    0.27
  -8   6   6    0.15    0.21
   8   6  -6    0.88    0.35
   7  -6  -6    6.41    0.60
  -7  -6   6    5.95    0.57
  -7  -6   6    5.64    0.58
  -7   6   6    6.28    0.60
   7   6  -6    6.32    0.67
   7   6  -6    4.92    0.58
  -7   6   6    6.22    0.67
   6  -6  -6    1.55    0.21
  -6  -6   6    2.09    0.26
   6  -6  -6    1.42    0.25
  -6  -6   6    1.78    0.25
  -6   6   6    1.23    0.26
   6   6  -6    1.81    0.17
  -6   6   6    1.37    0.22
   6   6  -6    1.43    0.27
   6   6  -6    1.64    0.30
   6   6  -6    1.74    0.18
  -5  -6   6    3.65    0.38
   5  -6  -6    3.44    0.38
  -5  -6   6    3.55    0.38
  -5   6   6    3.14    0.35
   5   6  -6    3.99    0.33
   5   6  -6    3.91    0.41
   5   6  -6    4.33    0.44
  -5   6   6    3.54    0.36
  -5   6   6    3.08    0.42
   5   6  -6    3.91    0.35
   5   6  -6    2.96    0.39
  -4  -6   6    1.61    0.22
  -4  -6   6    1.47    0.21
  -4  -6   6    1.65    0.20
  -4   6   6    1.34    0.19
   4   6  -6    1.06    0.25
   4   6  -6    1.75    0.28
   4   6  -6    1.98    0.24
  -4   6   6    1.20    0.22
   4   6  -6    1.82    0.17
  -4   6   6    1.09    0.19
  -3  -6   6   20.48    1.73
  -3  -6   6   24.34    1.99
  -3  -6   6   18.13    1.71
   3  -6  -6   18.40    1.88
   3   6  -6   20.13    1.75
  -3   6   6   20.19    1.75
   3   6  -6   20.27    2.15
  -3   6   6   16.97    1.89
  -3   6   6   18.81    1.86
  -3   6   6   19.19    1.83
   3   6  -6   19.29    2.07
   3   6  -6   21.37    1.80
  -2  -6   6    9.24    0.74
   2  -6  -6    6.75    0.95
   2  -6  -6    7.98    0.78
  -2  -6   6    8.03    0.74
   2   6  -6    9.74    0.78
  -2   6   6    7.67    0.76
   2   6  -6    9.09    0.89
   2   6  -6    8.74    0.75
  -2   6   6    7.60    0.74
  -2   6   6    7.54    0.79
  -2   6   6    7.40    0.76
   2   6  -6    9.18    0.77
  -1  -6   6   32.30    2.65
   1  -6  -6   26.57    3.42
   1  -6  -6   31.00    2.70
  -1  -6   6   33.87    2.69
   1   6  -6   25.73    2.68
   1   6  -6   32.39    2.74
  -1   6   6   28.76    2.83
  -1   6   6   31.12    3.39
  -1   6   6   30.91    2.76
   1   6  -6   29.90    2.88
  -1   6   6   30.78    2.97
   0  -6   6    3.28    0.32
   0  -6   6    3.69    0.32
   0  -6  -6    3.01    0.34
   0  -6  -6    3.28    0.34
   0  -6   6    3.51    0.35
   0  -6  -6    3.37    0.31
   0  -6   6    3.66    0.31
   0   6   6    2.49    0.37
   0   6  -6    3.38    0.31
   0   6  -6    3.55    0.34
   0   6  -6    3.11    0.35
   0   6  -6    3.23    0.33
   0   6   6    3.08    0.32
   0   6   6    2.76    0.33
   1  -6   6   66.10    5.54
   1  -6   6   66.10    6.01
   1  -6   6   65.33    5.48
  -1  -6  -6   51.94    6.25
  -1  -6  -6   64.18    5.85
  -1  -6  -6   55.52    5.72
   1  -6   6   72.85    6.80
  -1   6  -6   72.26    5.86
   1   6   6   56.82    5.60
  -1   6  -6   68.79    5.59
   1   6   6   58.98    5.83
   1   6   6   63.50    6.55
  -2  -6  -6    0.95    0.11
  -2  -6  -6    1.09    0.19
   2  -6   6    1.07    0.16
   2  -6   6    1.02    0.16
   2  -6   6    1.39    0.16
  -2  -6  -6    1.05    0.19
   2  -6   6    0.63    0.17
  -2   6  -6    1.38    0.21
   2   6   6    1.43    0.24
   2   6   6    0.76    0.16
  -3  -6  -6   -0.07    0.07
   3  -6   6    0.23    0.15
   3  -6   6    0.64    0.71
  -3  -6  -6   -0.04    0.11
   3  -6   6    0.31    0.11
  -3  -6  -6    0.64    0.17
   3  -6   6    0.04    0.13
   3   6   6   -0.02    0.13
  -3   6  -6   -0.16    0.15
   3   6   6    0.09    0.21
  -3   6  -6    0.08    0.31
   4  -6   6    1.02    0.18
   4  -6   6    1.16    0.18
  -4  -6  -6    1.12    0.14
   4  -6   6    1.05    0.16
  -4  -6  -6    0.67    0.16
  -4  -6  -6    0.90    0.18
  -4  -6  -6    0.83    0.20
   4  -6   6    0.87    0.21
   4   6   6    0.48    0.27
  -4   6  -6    1.29    0.23
   4   6   6    0.49    0.28
   5  -6   6    1.18    0.26
   5  -6   6    1.33    0.17
  -5  -6  -6    1.14    0.25
  -5  -6  -6    0.78    0.18
  -5  -6  -6    0.89    0.22
   5  -6   6    0.89    0.20
   5   6   6    1.12    0.31
  -5   6  -6    1.13    0.24
   5   6   6    0.59    0.32
   6  -6   6    1.20    0.19
   6  -6   6    0.78    0.25
  -6  -6  -6    0.92    0.24
   6  -6   6    0.72    0.26
  -6  -6  -6    1.42    0.29
   6   6   6    0.99    0.31
   6   6   6    1.01    0.41
  -7  -6  -6    2.10    0.34
  -7  -6  -6    2.52    0.36
   7  -6   6    2.77    0.35
   7  -6   6    2.37    0.41
   7   6   6    2.30    0.42
  -7   6  -6    2.67    0.37
   7   6   6    2.44    0.47
   8  -6   6    0.50    0.32
   8  -6   6    0.21    0.39
  -8  -6  -6   -0.10    0.27
  -8  -6  -6    0.15    0.35
  -8   6  -6    0.51    0.31
   8   6   6    0.24    0.33
   8   6   6   -0.35    0.42
  -9  -6  -6    1.43    0.39
   9  -6   6    0.87    0.50
   9  -6   6    2.63    0.44
   9   6   6    1.06    0.38
   9   6   6    0.65    0.55
 -10  -7   6    0.12    0.31
  10  -7  -6    0.21    0.35
 -10   7   6    0.20    0.51
  10   7  -6    0.65    0.40
   9  -7  -6   -0.10    0.29
  -9  -7   6    0.06    0.26
  -9  -7   6    0.09    0.32
   9   7  -6    0.25    0.35
  -9   7   6    0.03    0.34
  -8  -7   6    0.18    0.21
  -8  -7   6    0.10    0.22
   8  -7  -6    0.55    0.26
  -8   7   6    0.37    0.35
   8   7  -6    0.79    0.37
  -7  -7   6    2.22    0.30
   7  -7  -6    1.78    0.28
  -7  -7   6    1.31    0.26
  -7   7   6    1.55    0.31
   7   7  -6    1.40    0.33
  -7   7   6    1.50    0.25
   7   7  -6    1.41    0.35
  -6  -7   6    8.55    0.83
  -6  -7   6    9.35    0.84
   6  -7  -6    9.03    0.86
   6   7  -6    9.39    0.85
  -6   7   6    8.22    1.03
  -6   7   6    8.55    0.84
   6   7  -6    8.81    0.82
   6   7  -6    9.47    0.90
   6   7  -6    9.83    0.84
  -5  -7   6    0.32    0.19
  -5  -7   6    0.28    0.17
  -5   7   6    0.06    0.14
   5   7  -6   -0.01    0.19
  -5   7   6    0.20    0.14
   5   7  -6    0.16    0.27
  -5   7   6    0.27    0.20
   5   7  -6    0.38    0.12
   5   7  -6    0.01    0.26
   5   7  -6   -0.01    0.14
  -4  -7   6   49.75    4.77
   4  -7  -6   44.96    4.50
  -4  -7   6   45.72    4.17
  -4  -7   6   47.43    4.09
  -4   7   6   46.04    4.43
  -4   7   6   44.45    4.23
   4   7  -6   45.43    4.80
   4   7  -6   46.94    4.30
   4   7  -6   49.59    4.18
   4   7  -6   46.52    4.12
  -4   7   6   44.32    4.22
  -3  -7   6    0.09    0.15
  -3  -7   6    0.06    0.11
   3  -7  -6   -0.15    0.14
   3   7  -6   -0.08    0.17
   3   7  -6   -0.31    0.25
   3   7  -6    0.46    0.16
  -3   7   6    0.10    0.12
  -3   7   6   -0.07    0.14
   3   7  -6    0.16    0.12
  -3   7   6    0.17    0.15
  -3   7   6    0.15    0.12
  -2  -7   6   17.24    1.45
  -2  -7   6   16.49    1.44
   2  -7  -6   16.17    1.56
   2   7  -6   17.17    1.51
   2   7  -6   16.77    1.79
   2   7  -6   17.76    1.50
  -2   7   6   15.23    1.51
  -2   7   6   16.05    1.46
  -2   7   6   15.00    1.57
   2   7  -6   15.85    1.58
  -1  -7   6   -0.21    0.11
  -1  -7   6   -0.03    0.09
   1  -7  -6   -0.01    0.13
   1  -7  -6    0.06    0.17
   1   7  -6   -0.26    0.20
   1   7  -6   -0.19    0.17
  -1   7   6    0.06    0.16
  -1   7   6   -0.12    0.10
  -1   7   6    0.10    0.11
   1   7  -6    0.10    0.13
   1   7  -6   -0.09    0.12
  -1   7   6    0.00    0.13
   0  -7  -6    4.47    0.43
   0  -7   6    4.81    0.40
   0  -7   6    4.47    0.38
   0  -7   6    4.52    0.40
   0  -7  -6    3.98    0.43
   0   7   6    3.39    0.41
   0   7  -6    3.93    0.41
   0   7   6    3.72    0.44
   0   7  -6    4.76    0.45
   0   7   6    3.73    0.95
   0   7   6    3.26    0.39
   0   7  -6    4.32    0.41
  -1  -7  -6    3.88    0.46
   1  -7   6    4.89    0.42
  -1  -7  -6    4.24    0.49
   1  -7   6    4.90    0.43
   1  -7   6    4.87    0.43
   1   7   6    4.77    0.46
   1   7   6    3.62    0.44
  -1   7  -6    5.28    0.50
   1   7   6    3.94    0.48
  -1   7  -6    5.01    0.48
   2  -7   6   32.35    2.60
  -2  -7  -6   26.31    2.98
   2  -7   6   30.03    2.60
   2  -7   6   31.08    2.82
   2  -7   6   29.45    2.67
  -2  -7  -6   23.57    2.84
  -2   7  -6   33.20    3.16
  -2   7  -6   33.47    2.69
   2   7   6   27.70    3.06
   2   7   6   25.47    2.98
   3  -7   6    3.11    0.28
  -3  -7  -6    2.73    0.32
   3  -7   6    3.29    0.29
  -3  -7  -6    2.35    0.29
   3  -7   6    2.41    0.31
   3  -7   6    2.58    0.31
   3   7   6    2.41    0.36
  -3   7  -6    3.61    0.35
   3   7   6    1.80    0.30
   4  -7   6   21.35    1.70
  -4  -7  -6   17.54    1.82
  -4  -7  -6   14.96    1.66
  -4  -7  -6   17.47    1.73
   4  -7   6   18.74    1.82
  -4  -7  -6   16.86    1.62
   4  -7   6   20.64    1.71
   4  -7   6   19.66    1.78
  -4   7  -6   22.68    1.86
   4   7   6   14.76    1.97
   4   7   6   17.13    1.84
  -5  -7  -6    5.01    0.49
  -5  -7  -6    4.24    0.42
  -5  -7  -6    4.00    0.48
   5  -7   6    4.71    0.44
   5  -7   6    4.17    0.47
   5  -7   6    4.94    0.49
  -5   7  -6    6.00    0.57
   5   7   6    4.01    0.58
   5   7   6    3.60    0.52
   6  -7   6    6.77    0.70
  -6  -7  -6    6.41    0.68
  -6  -7  -6    7.12    0.70
   6  -7   6    7.39    0.72
   6   7   6    5.37    0.78
   6   7   6    6.96    0.80
  -6   7  -6    8.26    0.83
  -7  -7  -6    0.04    0.26
   7  -7   6   -0.17    0.34
   7  -7   6    0.37    0.24
  -7  -7  -6    0.39    0.26
   7   7   6    0.29    0.35
   7   7   6   -0.05    0.48
  -7   7  -6    0.25    0.30
   8  -7   6    0.64    0.37
   8  -7   6    0.12    0.40
  -8  -7  -6    0.77    0.31
  -8  -7  -6    0.05    0.28
   8   7   6    1.02    0.38
   8   7   6    0.42    0.56
  -8   7  -6    0.25    0.33
  10  -8  -6    0.01    0.43
 -10  -8   6   -0.13    0.33
  10   8  -6   -0.07    0.51
 -10   8   6   -0.37    0.55
   9  -8  -6    0.00    0.32
  -9  -8   6    0.40    0.34
  -9  -8   6    0.33    0.29
   9   8  -6    0.29    0.46
  -9   8   6    0.06    0.39
  -8  -8   6   -0.02    0.29
   8  -8  -6   -0.18    0.28
  -8  -8   6    0.15    0.25
  -8   8   6   -0.14    0.33
   8   8  -6   -0.46    0.37
  -7  -8   6    0.80    0.25
  -7  -8   6    1.07    0.23
   7  -8  -6    1.43    0.25
   7   8  -6    0.74    0.31
  -7   8   6    1.27    0.36
   7   8  -6    0.77    0.36
  -6  -8   6    2.02    0.26
  -6  -8   6    1.12    0.27
   6   8  -6    1.35    0.23
  -6   8   6    1.14    0.29
   6   8  -6    1.77    0.33
   6   8  -6    1.71    0.36
  -6   8   6    1.23    0.20
   6   8  -6    1.04    0.29
  -5  -8   6    2.95    0.36
  -5  -8   6    2.76    0.32
  -5   8   6    2.43    0.29
   5   8  -6    2.81    0.28
  -5   8   6    2.44    0.36
   5   8  -6    3.03    0.32
   5   8  -6    2.72    0.40
   5   8  -6    2.63    0.38
   5   8  -6    2.73    0.34
  -4  -8   6    1.91    0.24
   4  -8  -6    2.10    0.23
  -4  -8   6    2.01    0.26
   4   8  -6    2.14    0.24
  -4   8   6    1.62    0.27
  -4   8   6    1.64    0.25
  -4   8   6    1.75    0.22
   4   8  -6    1.97    0.30
   4   8  -6    1.70    0.28
   4   8  -6    2.01    0.39
  -3  -8   6   10.47    0.89
  -3  -8   6    9.41    0.88
   3  -8  -6    9.46    0.89
  -3   8   6   11.01    1.04
  -3   8   6    9.76    0.89
   3   8  -6    8.81    0.96
   3   8  -6   10.46    0.89
   3   8  -6   10.97    0.97
  -3   8   6    8.18    0.89
   2  -8  -6   14.94    1.44
  -2  -8   6   15.75    1.38
  -2  -8   6   15.61    1.36
   2   8  -6   16.11    1.41
  -2   8   6   14.49    1.42
  -2   8   6   14.85    1.39
  -2   8   6   13.60    1.44
  -2   8   6   15.24    1.71
   2   8  -6   17.37    1.45
   2   8  -6   16.39    1.46
   1  -8  -6    1.38    0.21
  -1  -8   6    1.49    0.15
  -1  -8   6    1.24    0.18
   1   8  -6    1.19    0.21
  -1   8   6    1.39    0.24
   1   8  -6    1.12    0.21
  -1   8   6    0.79    0.17
   1   8  -6    1.55    0.25
  -1   8   6    1.13    0.21
  -1   8   6    0.97    0.18
   0  -8  -6   -0.29    0.17
   0  -8   6    0.11    0.09
   0  -8  -6   -0.27    0.18
   0  -8   6    0.08    0.13
   0   8   6   -0.04    0.12
   0   8  -6    0.00    0.19
   0   8  -6    0.08    0.14
   0   8   6   -0.36    0.23
   0   8   6   -0.12    0.18
   0   8   6    0.12    0.09
   0   8  -6    0.03    0.16
  -1  -8  -6    7.32    0.77
  -1  -8  -6    6.46    0.82
   1  -8   6    8.81    0.74
   1  -8   6    8.73    0.77
  -1   8  -6    9.34    0.80
   1   8   6    7.17    0.75
  -1   8  -6    9.28    0.78
   1   8   6    7.38    0.80
   2  -8   6    8.34    0.72
   2  -8   6    8.27    0.71
   2  -8   6    9.27    0.73
  -2  -8  -6    6.15    0.74
  -2  -8  -6    7.14    0.83
   2  -8   6    7.89    0.72
   2   8   6    6.89    0.75
   2   8   6    7.30    0.81
  -2   8  -6    8.36    0.76
  -3  -8  -6   -0.07    0.15
   3  -8   6    0.04    0.12
   3  -8   6    0.10    0.12
  -3  -8  -6    0.06    0.20
   3  -8   6    0.02    0.15
   3  -8   6   -0.08    0.18
  -3   8  -6   -0.09    0.23
   3   8   6   -0.57    0.27
   3   8   6    0.12    0.18
   4  -8   6    0.24    0.15
   4  -8   6   -0.11    0.17
   4  -8   6   -0.24    0.21
  -4  -8  -6   -0.10    0.20
  -4   8  -6   -0.15    0.24
   4   8   6    0.04    0.15
   4   8   6   -0.13    0.30
   5  -8   6    0.12    0.19
   5  -8   6    0.37    0.24
  -5  -8  -6    0.20    0.24
   5  -8   6    0.36    0.27
  -5  -8  -6    0.55    0.23
   5   8   6    0.29    0.34
  -5   8  -6   -0.02    0.25
   5   8   6    0.22    0.32
  -6  -8  -6    1.71    0.34
   6  -8   6    2.02    0.34
   6  -8   6    1.20    0.35
  -6  -8  -6    1.72    0.33
  -6   8  -6    2.07    0.55
   6   8   6    1.38    0.40
   6   8   6    1.65    0.52
  -7  -8  -6    0.60    0.28
   7  -8   6    0.65    0.27
   7  -8   6    1.08    0.38
  -7  -8  -6    0.01    0.30
   7   8   6    0.84    0.55
  -7   8  -6    1.24    0.35
   7   8   6    0.81    0.38
   8  -8   6    0.30    0.32
  -8  -8  -6   -0.19    0.32
  -8  -8  -6   -0.06    0.31
   8  -8   6   -0.38    0.43
   8   8   6    0.48    0.69
   8   8   6   -0.22    0.51
  -8   8  -6    0.04    0.39
  -9  -9   6   -0.15    0.32
   9  -9  -6   -0.01    0.35
  -9  -9   6    0.03    0.35
  -9   9   6    0.36    0.42
   9   9  -6    0.47    0.41
  -8  -9   6    0.09    0.32
   8  -9  -6    0.43    0.28
  -8  -9   6   -0.04    0.35
   8   9  -6   -0.02    0.42
  -8   9   6    0.21    0.35
  -7  -9   6    0.47    0.27
  -7  -9   6    0.67    0.26
  -7   9   6    0.30    0.29
   7   9  -6    1.20    0.59
  -6  -9   6    0.09    0.20
  -6  -9   6    0.24    0.23
   6   9  -6    0.11    0.31
   6   9  -6    0.68    0.33
   6   9  -6    0.24    0.24
   6   9  -6    0.17    0.21
  -6   9   6    0.46    0.30
  -5  -9   6    1.31    0.22
  -5  -9   6    0.50    0.21
   5  -9  -6    0.47    0.18
  -5   9   6    0.55    0.25
   5   9  -6    0.29    0.22
   5   9  -6    0.76    0.25
   5   9  -6    0.32    0.32
   5   9  -6    0.27    0.33
  -4  -9   6    5.50    0.49
   4  -9  -6    5.15    0.48
  -4  -9   6    4.76    0.47
  -4   9   6    4.27    0.46
   4   9  -6    4.27    0.49
   4   9  -6    4.73    0.55
  -4   9   6    4.61    0.52
  -3  -9   6    2.50    0.28
   3  -9  -6    9.80    2.77
  -3  -9   6    2.41    0.25
   3   9  -6    2.04    0.29
   3   9  -6    1.98    0.35
  -3   9   6    2.07    0.33
  -3   9   6    1.73    0.27
  -3   9   6    1.60    0.22
  -2  -9   6   -0.09    0.12
   2  -9  -6    0.28    0.18
  -2  -9   6    0.33    0.19
   2   9  -6   -0.14    0.25
  -2   9   6    0.01    0.15
   2   9  -6    0.11    0.21
  -2   9   6   -0.07    0.19
  -2   9   6   -0.01    0.12
  -2   9   6    0.14    0.18
   2   9  -6   -0.22    0.17
  -1  -9   6    2.43    0.26
   1  -9  -6    1.71    0.27
   1   9  -6    2.01    0.25
   1   9  -6    1.98    0.35
  -1   9   6    1.56    0.31
  -1   9   6    1.34    0.29
   1   9  -6    1.87    0.52
  -1   9   6    1.49    0.21
  -1   9   6    1.20    0.21
   0  -9   6    8.92    0.77
   0  -9   6    9.19    0.81
   0  -9  -6    8.95    0.82
   0   9  -6    9.17    0.87
   0   9   6    7.97    0.82
   0   9  -6    9.00    0.81
   0   9   6    7.65    0.84
   1  -9   6    3.04    0.30
   1  -9   6    3.05    0.26
  -1  -9  -6    1.97    0.33
  -1   9  -6    2.68    0.39
   1   9   6    1.93    0.34
   1   9   6    2.19    0.39
  -2  -9  -6    0.55    0.24
   2  -9   6    1.19    0.13
   2  -9   6    0.90    0.19
   2  -9   6    1.15    0.14
  -2   9  -6    0.92    0.28
   2   9   6    0.54    0.28
   2   9   6    1.11    0.32
   3  -9   6    3.97    0.38
  -3  -9  -6    2.66    0.44
   3  -9   6    3.82    0.41
   3  -9   6    4.74    0.42
   3   9   6    3.60    0.50
  -3   9  -6    4.86    0.49
  -4  -9  -6    2.13    0.34
   4  -9   6    2.19    0.33
   4  -9   6    2.61    0.27
  -4   9  -6    2.19    0.36
   4   9   6    1.68    0.35
   4   9   6    1.97    0.32
  -5  -9  -6    0.06    0.26
   5  -9   6    0.09    0.19
   5  -9   6    0.05    0.25
   5  -9   6    0.36    0.29
   5   9   6   -0.01    0.35
   5   9   6   -0.05    0.47
  -5   9  -6    0.19    0.29
   6  -9   6    1.59    0.35
  -6  -9  -6    1.22    0.35
  -6  -9  -6    2.37    0.35
   6  -9   6    1.74    0.38
  -6   9  -6    2.43    0.45
   6   9   6    1.28    0.43
   6   9   6    2.17    0.57
  -7  -9  -6    0.25    0.33
   7  -9   6    0.04    0.28
   7  -9   6   -0.21    0.40
  -7  -9  -6    0.01    0.29
  -7   9  -6    0.57    0.36
   7   9   6    0.92    0.59
   7   9   6    0.65    0.51
  -9 -10   6    2.54    0.41
  -9  10   6    2.04    0.52
  -8 -10   6   -0.23    0.34
  -8 -10   6   -0.24    0.31
  -8  10   6   -0.06    0.37
   8  10  -6    0.74    0.46
  -7 -10   6    3.85    0.47
   7  10  -6    3.64    0.51
  -7  10   6    3.91    0.58
   7  10  -6    3.46    0.53
  -6 -10   6    0.99    0.26
  -6 -10   6    0.56    0.31
   6  10  -6    1.59    0.43
   6  10  -6    0.26    0.38
  -6  10   6    0.46    0.31
  -5 -10   6    1.19    0.23
  -5 -10   6    0.81    0.25
   5 -10  -6    0.98    0.23
  -5  10   6    1.23    0.35
   5  10  -6    0.59    0.30
   5  10  -6    1.33    0.35
   5  10  -6    1.88    0.38
   5  10  -6    1.08    0.37
  -4 -10   6    2.51    0.31
   4 -10  -6    2.04    0.30
  -4 -10   6    2.37    0.28
   4  10  -6    1.70    0.34
   4  10  -6    1.80    0.44
  -4  10   6    1.49    0.36
   3 -10  -6    0.53    0.21
  -3 -10   6    0.40    0.25
  -3 -10   6    0.53    0.15
   3  10  -6    0.16    0.26
  -3  10   6    0.20    0.29
   3  10  -6    0.39    0.38
   2 -10  -6    0.71    0.22
  -2 -10   6    0.41    0.15
  -2 -10   6    0.28    0.19
  -2  10   6    0.25    0.18
  -2  10   6    0.06    0.22
   2  10  -6    0.14    0.19
   2  10  -6    0.20    0.36
   1 -10  -6   11.20    1.18
  -1 -10   6   10.63    1.04
  -1 -10   6   12.06    1.05
   1  10  -6   12.00    1.09
  -1  10   6   12.13    1.14
   1  10  -6   12.17    1.15
  -1  10   6   10.44    1.09
   0 -10  -6    0.54    0.24
   0 -10   6    0.89    0.19
   0 -10   6    0.88    0.12
   0  10   6    0.93    0.28
   0  10  -6    0.76    0.26
   0  10  -6    0.46    0.21
   0  10   6    0.67    0.33
  -1 -10  -6    6.33    0.73
   1 -10   6    7.84    0.68
   1 -10   6    7.72    0.71
  -1  10  -6    8.13    0.87
   1  10   6    8.05    0.77
   1  10   6    6.22    0.79
  -2 -10  -6    2.44    0.38
   2 -10   6    3.33    0.37
   2  10   6    2.55    0.41
  -2  10  -6    3.80    0.41
   2  10   6    2.37    0.45
  -3 -10  -6    1.88    0.35
   3 -10   6    2.27    0.30
   3  10   6    1.75    0.35
   3  10   6    2.43    0.45
  -3  10  -6    3.05    0.37
   4 -10   6    3.05    0.34
  -4  10  -6    2.73    0.43
   4  10   6    1.89    0.47
  -5 -10  -6    0.61    0.32
   5  10   6    0.40    0.42
  -5  10  -6    0.93    0.34
   5  10   6    0.45    0.53
   6 -10   6    0.70    0.35
  -6 -10  -6    0.53    0.34
   6  10   6   -0.24    0.57
  -6  10  -6    0.47    0.37
   6  10   6    0.59    0.43
   7 -10   6    0.31    0.43
  -7 -10  -6   -0.01    0.37
  -7 -10  -6   -0.08    0.24
  -7  10  -6   -0.17    0.37
   7  10   6    0.02    0.55
   7  10   6   -0.84    0.58
  -8 -11   6    0.25    0.36
  -8 -11   6    0.10    0.29
  -8  11   6    0.33    0.41
   8  11  -6    0.76    0.52
  -7 -11   6    0.07    0.32
  -7 -11   6    0.44    0.31
  -7  11   6    0.55    0.43
   7  11  -6    0.36    0.43
   7  11  -6   -0.01    0.47
  -6 -11   6    2.36    0.40
  -6 -11   6    2.57    0.36
   6  11  -6    2.29    0.51
   6  11  -6    2.26    0.47
  -6  11   6    2.34    0.67
  -5 -11   6    0.17    0.31
   5 -11  -6    0.06    0.22
  -5 -11   6    0.13    0.24
  -5  11   6   -0.02    0.34
   5  11  -6    0.07    0.35
   5  11  -6   -0.05    0.37
   5  11  -6   -0.07    0.33
  -4 -11   6    3.57    0.36
  -4 -11   6    2.49    0.38
   4 -11  -6    3.49    0.37
   4  11  -6    3.24    0.49
  -4  11   6    2.30    0.46
   3 -11  -6   -0.28    0.22
  -3 -11   6    0.13    0.26
  -3 -11   6   -0.27    0.17
  -3  11   6   -0.18    0.31
   3  11  -6    0.11    0.23
   3  11  -6    0.09    0.34
  -2 -11   6   10.07    0.91
   2 -11  -6   10.18    0.97
  -2 -11   6    9.38    0.89
  -2  11   6    9.06    0.96
   2  11  -6   10.03    0.97
   2  11  -6    9.28    0.95
  -1 -11   6    1.42    0.27
   1 -11  -6    1.45    0.32
  -1 -11   6    1.96    0.20
  -1  11   6    0.85    0.34
   1  11  -6    1.98    0.35
   1  11  -6    1.26    0.31
  -1  11   6    1.57    0.42
   0 -11  -6    1.44    0.25
   0 -11   6    1.40    0.25
   0  11  -6    1.94    0.39
   0  11   6    1.73    0.42
   0  11   6    0.72    0.34
   0  11  -6    1.52    0.59
  -1 -11  -6   -0.23    0.26
   1 -11   6    0.01    0.23
   1  11   6    0.14    0.75
  -1  11  -6   -0.11    0.28
   1  11   6   -0.56    0.37
  -2 -11  -6   15.11    1.44
   2 -11   6   17.58    1.49
  -2  11  -6   17.13    1.87
   2  11   6   13.25    1.53
   2  11   6   13.06    1.67
   3 -11   6    0.90    0.25
  -3 -11  -6   -0.22    0.30
  -3  11  -6    0.14    0.28
   3  11   6   -0.13    0.43
   3  11   6    0.03    0.33
   4 -11   6   10.99    1.02
  -4 -11  -6    8.25    0.94
   4  11   6    7.69    0.96
  -4  11  -6   11.42    1.12
  -5 -11  -6    0.19    0.35
  -5  11  -6    0.86    0.32
   5  11   6    0.15    0.34
   5  11   6   -0.11    0.57
  -6 -11  -6    0.03    0.38
   6  11   6   -0.33    0.48
   6  11   6    0.93    0.63
  -6  11  -6    0.09    0.31
  -7 -12   6    0.11    0.26
  -7 -12   6    0.64    0.37
  -7  12   6    0.37    0.39
   7  12  -6    0.33    0.47
   7  12  -6    0.39    0.48
  -6 -12   6   -0.40    0.27
  -6 -12   6    0.19    0.33
   6  12  -6    0.45    0.43
  -6  12   6    0.14    0.34
   6  12  -6   -0.10    0.46
  -5 -12   6    0.48    0.30
   5 -12  -6    1.38    0.74
  -5 -12   6    1.44    0.26
   5  12  -6    0.33    0.43
   5  12  -6    1.22    0.35
  -5  12   6   -0.07    0.41
   5  12  -6    0.62    0.41
  -4 -12   6    0.61    0.28
   4 -12  -6    0.41    0.29
  -4 -12   6    0.83    0.24
  -4  12   6    0.04    0.37
   4  12  -6    0.00    0.48
  -3 -12   6    0.44    0.31
  -3 -12   6    0.08    0.19
   3 -12  -6    0.22    0.25
  -3  12   6   -0.08    0.38
   3  12  -6    0.03    0.38
  -2 -12   6    1.18    0.37
   2 -12  -6    0.07    0.28
   2  12  -6   -0.17    0.45
   2  12  -6   -0.48    0.29
  -2  12   6   -0.01    0.34
  -1 -12   6    3.43    0.37
   1 -12  -6    2.67    0.41
   1  12  -6    2.79    0.50
   1  12  -6    2.67    0.40
  -1  12   6    2.63    0.44
  -1  12   6    2.17    0.46
   0 -12   6    1.07    0.25
   0 -12  -6    0.73    0.30
   0  12   6    0.27    0.37
   0  12   6    0.52    0.45
   0  12  -6    0.76    0.41
   0  12  -6    0.52    0.29
   1 -12   6   -0.14    0.27
  -1 -12  -6    0.25    0.30
  -1  12  -6   -0.10    0.28
   1  12   6    0.30    0.38
   1  12   6    0.13    0.30
  -1  12  -6   -0.01    0.31
  -2 -12  -6    0.37    0.33
   2 -12   6    0.43    0.23
   2  12   6   -0.03    0.39
   2  12   6   -0.03    0.35
  -2  12  -6    0.54    0.33
   3 -12   6   -0.15    0.26
  -3 -12  -6    0.07    0.34
   3  12   6   -0.07    0.48
   3  12   6    0.02    0.40
  -3  12  -6    0.17    0.39
  -4 -12  -6    1.84    0.49
   4 -12   6    3.89    0.48
  -4  12  -6    3.54    0.54
   4  12   6    2.75    0.47
  -5 -12  -6    0.18    0.41
  -5  12  -6   -0.14    0.41
   5  12   6    0.07    0.53
   5  12   6   -0.04    0.50
  -6 -13   6   -0.03    0.36
   6  13  -6   -0.13    0.49
   6  13  -6    0.03    0.48
  -6  13   6   -0.37    0.50
  -5 -13   6    0.10    0.33
   5  13  -6   -0.39    0.45
   5  13  -6   -0.10    0.49
  -5  13   6    0.31    0.37
  -4 -13   6    1.50    0.34
   4 -13  -6    1.12    0.30
   4  13  -6    0.71    0.46
  -4  13   6    0.79    0.39
   3 -13  -6    0.32    0.29
  -3 -13   6    0.35    0.35
   3  13  -6    0.66    0.43
  -3  13   6    0.27    0.32
  -2 -13   6    0.63    0.29
   2 -13  -6    0.48    0.33
   2  13  -6    0.19    0.42
  -2  13   6    1.13    0.43
  -1 -13   6    2.10    0.35
   1 -13  -6    2.21    0.42
  -1  13   6    2.12    0.57
  -1  13   6    1.65    0.48
   1  13  -6    2.28    0.44
   0 -13   6    1.14    0.34
   0 -13  -6    0.95    0.37
   0  13  -6    1.60    0.51
   0  13   6    1.22    0.53
   0  13  -6    0.98    0.34
   0  13   6    1.11    0.47
   1 -13   6    4.22    0.52
  -1 -13  -6    4.45    0.56
  -1  13  -6    3.91    0.51
   1  13   6    4.29    0.68
  -1  13  -6    4.62    0.63
   1  13   6    4.05    0.62
   2 -13   6    0.06    0.25
  -2 -13  -6    0.31    0.39
  -2  13  -6    0.54    0.46
   2  13   6   -0.21    0.43
   2  13   6    0.31    0.40
  -3 -13  -6   -0.21    0.40
   3 -13   6   -0.15    0.31
  -3  13  -6    0.01    0.47
   3  13   6    0.58    0.58
  -4 -13  -6    0.50    0.45
   4  13   6   -0.74    0.56
  -4  13  -6   -0.06    0.43
  -4 -14   6    0.18    0.35
  -4  14   6   -0.20    0.48
   4  14  -6   -0.16    0.60
   3 -14  -6    0.97    0.35
  -3 -14   6    1.32    0.36
  -3  14   6    0.73    0.49
   3  14  -6    1.03    0.61
   2 -14  -6    0.61    0.36
  -2 -14   6    0.10    0.31
  -2  14   6    0.24    0.47
   2  14  -6    0.49    0.49
  -2  14   6    0.43    0.38
   1 -14  -6    9.29    0.98
  -1 -14   6   11.12    1.02
  -1  14   6    8.94    1.09
   1  14  -6    9.38    1.09
  -1  14   6    9.58    1.11
   0 -14  -6   -0.67    0.40
   0 -14   6    0.03    0.29
   0  14  -6   -0.42    0.42
   0  14   6    0.39    0.59
   0  14   6   -0.28    0.49
  -1 -14  -6    2.27    0.49
   1 -14   6    2.99    0.39
   1  14   6    2.79    0.65
   1  14   6    0.91    0.54
  -1  14  -6    2.11    0.48
   2 -14   6    0.56    0.39
  -2 -14  -6    0.72    0.45
   2  14   6    0.50    0.66
  -2  14  -6    1.51    0.52
   3 -14   6   -0.03    0.31
  -3 -14  -6   -0.16    0.48
  -3  14  -6    0.31    0.51
   3  14   6   -0.08    0.45
   2 -15  -6    0.52    0.40
  -2  15   6   -1.19    0.64
   2  15  -6    3.43    1.77
  -2  15   6   -0.45    0.56
   1 -15  -6    0.33    0.44
  -1 -15   6    1.01    0.39
  -1  15   6    1.73    0.61
   1  15  -6    1.04    1.80
  -1  15   6    0.61    0.67
   0 -15   6   -0.16    0.36
   0 -15  -6   -0.26    0.45
   0  15   6   -0.27    0.57
   0  15  -6    0.32    0.46
   0  15   6    0.22    0.49
 -11   0   7    0.09    0.35
  11   0  -7    0.45    0.33
 -10   0   7   -0.11    0.30
  10   0  -7   -0.38    0.34
   9   0  -7    3.63    0.45
  -9   0   7    3.22    0.42
  -8   0   7   -0.26    0.20
   8   0  -7    0.02    0.17
  -8   0   7    0.11    0.11
  -7   0   7   15.12    1.27
   7   0  -7   13.21    1.40
  -7   0   7   13.81    1.24
   6   0  -7    0.20    0.21
  -6   0   7    0.10    0.15
  -6   0   7   -0.02    0.03
   6   0  -7    0.66    0.26
  -6   0   7   -0.04    0.09
  -5   0   7   15.67    1.30
  -5   0   7   16.35    1.43
  -5   0   7   15.72    1.51
   5   0  -7   16.37    1.41
  -5   0   7   12.80    1.28
   5   0  -7   14.38    1.36
   4   0  -7    0.05    0.12
  -4   0   7   -0.05    0.10
   4   0  -7    0.06    0.11
  -4   0   7    0.25    0.12
   4   0  -7   -0.15    0.07
  -4   0   7    0.05    0.10
  -4   0   7    0.01    0.05
  -3   0   7    0.58    0.12
   3   0  -7    0.54    0.13
   3   0  -7    0.70    0.10
  -3   0   7    0.87    0.10
   3   0  -7    0.76    0.16
  -3   0   7    0.91    0.14
  -3   0   7    0.79    0.11
  -2   0   7   -0.02    0.09
   2   0  -7   -0.08    0.11
  -2   0   7    3.03    0.63
  -1   0   7   12.90    1.18
  -1   0   7   15.68    1.61
   1   0  -7   14.44    1.32
  -1   0   7   14.45    1.43
   1   0  -7   12.39    1.32
  -1   0   7   14.08    1.24
   0   0  -7   -0.14    0.11
   0   0  -7    0.07    0.10
   0   0   7    0.02    0.07
   0   0   7    0.08    0.07
   0   0   7    0.07    0.10
   1   0   7    3.46    0.33
   1   0   7    2.80    0.30
   1   0   7    2.90    0.27
  -1   0  -7    2.54    0.32
  -1   0  -7    3.23    0.30
   2   0   7   -0.07    0.13
  -2   0  -7    0.02    0.04
   2   0   7   -0.14    0.12
   2   0   7   -0.12    0.10
  -2   0  -7    0.24    0.13
   2   0   7   -0.14    0.12
   3   0   7    2.35    0.27
   3   0   7    2.46    0.25
  -3   0  -7    1.87    0.19
   3   0   7    1.97    0.25
   4   0   7    0.37    0.16
   4   0   7   -0.11    0.19
   4   0   7    0.00    0.16
  -4   0  -7    0.00    0.07
  -5   0  -7   30.35    2.68
   5   0   7   30.31    3.47
   5   0   7   27.76    3.46
   6   0   7   -0.72    0.27
  -6   0  -7   -0.07    0.13
   6   0   7   -0.07    0.27
   7   0   7   16.19    1.54
  -7   0  -7   14.78    1.45
   7   0   7   14.92    1.45
   8   0   7   -0.06    0.40
   8   0   7   -0.22    0.37
   9   0   7    0.65    0.49
   9   0   7    1.68    0.46
 -11  -1   7    0.26    0.35
  11  -1  -7   -0.02    0.38
 -11   1   7    0.09    0.43
 -11   1   7    0.83    0.36
  11   1  -7    0.41    0.44
  10  -1  -7    0.62    0.34
 -10  -1   7    0.45    0.31
 -10   1   7    0.70    0.31
  10   1  -7    0.48    0.36
  -9  -1   7    0.49    0.26
   9  -1  -7    0.32    0.22
  -9   1   7    0.36    0.25
   9   1  -7    0.43    0.29
  -8  -1   7    0.33    0.21
  -8  -1   7   -0.14    0.11
   8  -1  -7    0.31    0.17
   8   1  -7    0.16    0.18
  -8   1   7    0.17    0.20
  -7  -1   7    3.96    0.35
  -7  -1   7    2.58    0.29
   7  -1  -7    3.09    0.33
   7   1  -7    2.99    0.33
  -7   1   7    3.29    0.33
  -7   1   7    2.63    0.27
  -7   1   7    2.77    0.28
  -6  -1   7   27.97    2.51
  -6  -1   7   26.32    2.41
  -6  -1   7   29.18    2.99
   6  -1  -7   28.00    2.53
  -6   1   7   28.48    2.93
  -6   1   7   31.06    2.47
   6   1  -7   26.44    2.65
  -6   1   7   26.21    2.41
   6   1  -7   30.82    3.06
  -5  -1   7   -0.08    0.15
  -5  -1   7    0.31    0.13
   5  -1  -7    0.20    0.10
   5  -1  -7    0.29    0.20
   5   1  -7    0.08    0.17
  -5   1   7    0.04    0.12
  -5   1   7    0.15    0.07
   5   1  -7    0.28    0.12
  -5   1   7    0.39    0.14
  -5   1   7    0.01    0.06
  -4  -1   7   34.26    4.30
  -4  -1   7   32.15    2.63
  -4  -1   7   36.00    3.59
   4  -1  -7   31.69    3.17
   4  -1  -7   26.88    2.68
  -4  -1   7   26.76    2.64
  -4  -1   7   35.88    3.06
   4  -1  -7   32.73    2.84
   4   1  -7   29.61    2.75
   4   1  -7   28.26    2.85
  -4   1   7   28.77    2.64
   4   1  -7   32.33    2.88
  -4   1   7   32.61    2.74
  -4   1   7   35.91    4.53
  -4   1   7   31.81    2.76
  -3  -1   7    1.57    0.18
  -3  -1   7    1.44    0.17
  -3  -1   7    1.22    0.13
   3  -1  -7    1.25    0.14
   3  -1  -7    1.33    0.19
  -3  -1   7    1.58    0.16
  -3  -1   7    1.37    0.15
   3   1  -7    1.10    0.18
  -3   1   7    1.06    0.16
   3   1  -7    1.55    0.17
  -3   1   7    0.95    0.14
   3   1  -7    1.37    0.14
  -3   1   7    1.07    0.14
   3   1  -7    1.35    0.14
  -3   1   7    1.16    0.17
  -2  -1   7   23.85    2.19
   2  -1  -7   22.45    3.02
  -2  -1   7   28.12    2.55
  -2  -1   7   29.30    2.28
   2  -1  -7   23.70    2.63
  -2  -1   7   28.45    2.58
  -2  -1   7   28.78    2.91
   2   1  -7   23.42    2.33
  -2   1   7   25.64    2.28
   2   1  -7   22.07    2.17
  -2   1   7   25.27    2.20
  -2   1   7   28.60    3.27
  -2   1   7   23.71    2.19
   2   1  -7   25.86    2.32
  -1  -1   7    1.62    0.18
  -1  -1   7    1.20    0.17
  -1  -1   7    1.68    0.16
  -1  -1   7    1.05    0.17
   1  -1  -7    1.29    0.16
   1  -1  -7    1.37    0.17
  -1   1   7    1.81    0.21
   1   1  -7    1.39    0.18
   1   1  -7    1.28    0.15
  -1   1   7    1.15    0.16
  -1   1   7    1.27    0.14
   0  -1  -7   75.22    8.46
   0  -1   7   80.94    7.24
   0  -1   7   86.95    7.99
   0  -1  -7   68.42    7.50
   0  -1   7   89.79    7.84
   0   1  -7   76.51    8.05
   0   1   7   86.71    9.23
   0   1  -7   73.48    7.55
   0   1  -7   72.07    7.67
   0   1   7   73.17    7.68
   1  -1   7    0.69    0.15
  -1  -1  -7    0.82    0.13
   1  -1   7    0.52    0.10
  -1  -1  -7    0.45    0.14
   1  -1   7    0.40    0.10
   1   1   7    0.57    0.13
  -1   1  -7    0.71    0.10
  -1   1  -7    0.51    0.13
   1   1   7    0.64    0.13
   1   1   7    0.81    0.14
   2  -1   7   20.08    2.04
   2  -1   7   23.19    2.20
   2  -1   7   22.26    2.46
  -2  -1  -7   18.63    2.08
   2  -1   7   23.69    2.00
   2   1   7   21.69    1.98
  -2   1  -7   19.54    1.92
   2   1   7   23.41    2.51
  -2   1  -7   19.33    1.97
   2   1   7   20.54    2.35
   2   1   7   21.73    2.13
   3  -1   7    2.53    0.27
   3  -1   7    2.34    0.25
   3   1   7    2.60    0.26
  -3   1  -7    2.13    0.24
  -3   1  -7    1.98    0.21
   3   1   7    2.00    0.26
   3   1   7    2.37    0.29
   4  -1   7    9.21    0.99
   4  -1   7   10.00    1.01
  -4  -1  -7    9.46    0.85
  -4  -1  -7    8.98    0.88
  -4   1  -7    9.05    0.99
  -4   1  -7   10.53    0.87
   4   1   7   10.46    0.91
   4   1   7   10.77    1.14
   5  -1   7    3.84    0.40
  -5  -1  -7    2.79    0.32
   5  -1   7    4.73    0.41
  -5  -1  -7    3.64    0.33
   5  -1   7    2.69    0.40
   5   1   7    3.96    0.43
  -5   1  -7    3.59    0.34
   5   1   7    3.60    0.42
   6  -1   7    0.30    0.29
  -6  -1  -7    0.55    0.14
   6  -1   7    0.71    0.29
  -6   1  -7    0.66    0.16
   6   1   7    0.46    0.29
   6   1   7    0.34    0.31
  -7  -1  -7    0.15    0.17
   7  -1   7   -0.18    0.27
   7  -1   7    0.78    0.34
  -7   1  -7    0.14    0.17
   7   1   7   -0.46    0.35
   7   1   7    0.04    0.26
  -8  -1  -7    0.32    0.20
   8  -1   7    0.08    0.37
   8  -1   7    0.06    0.36
   8   1   7   -0.25    0.42
   8   1   7   -0.20    0.38
   9  -1   7    0.54    0.39
   9  -1   7   -0.05    0.38
   9   1   7    0.32    0.53
   9   1   7    0.27    0.44
 -11  -2   7   -0.23    0.35
  11  -2  -7   -0.08    0.37
  11   2  -7    0.18    0.43
 -11   2   7   -0.09    0.43
 -11   2   7   -0.06    0.34
  10  -2  -7   -0.04    0.30
 -10  -2   7   -0.19    0.30
  10   2  -7   -0.30    0.29
 -10   2   7   -0.06    0.29
 -10   2   7   -0.18    0.42
   9  -2  -7    0.16    0.25
  -9  -2   7    0.27    0.27
   9   2  -7    0.31    0.25
  -9   2   7    0.24    0.25
  -8  -2   7    0.86    0.19
  -8  -2   7    1.38    0.25
   8  -2  -7    1.07    0.23
  -8   2   7    1.14    0.24
   8   2  -7    1.38    0.23
  -7  -2   7    1.55    0.19
   7  -2  -7    1.74    0.21
  -7   2   7    1.35    0.17
  -7   2   7    1.74    0.17
  -7   2   7    1.96    0.23
   7   2  -7    1.63    0.24
  -7   2   7    1.13    0.17
  -6  -2   7   18.25    2.14
   6  -2  -7   16.66    1.60
  -6  -2   7   17.69    1.50
  -6  -2   7   17.50    1.83
   6   2  -7   18.52    1.63
  -6   2   7   17.22    1.54
   6   2  -7   16.56    1.63
  -6   2   7   16.18    1.49
  -5  -2   7    4.11    0.39
  -5  -2   7    4.09    0.44
  -5  -2   7    5.34    0.43
   5  -2  -7    4.36    0.40
   5  -2  -7    4.20    0.43
  -5   2   7    3.69    0.42
   5   2  -7    3.99    0.41
  -5   2   7    3.70    0.38
   5   2  -7    4.51    0.46
  -5   2   7    4.05    0.40
  -5   2   7    4.29    0.41
   4  -2  -7    0.02    0.10
  -4  -2   7    0.01    0.11
  -4  -2   7    0.07    0.11
  -4  -2   7    0.17    0.12
   4  -2  -7   -0.14    0.09
  -4  -2   7    0.05    0.13
   4  -2  -7   -0.04    0.12
  -4   2   7    0.28    0.13
  -4   2   7   -0.12    0.10
  -4   2   7   -0.05    0.09
   4   2  -7   -0.08    0.13
  -4   2   7    0.01    0.11
   4   2  -7    0.09    0.12
   4   2  -7   -0.12    0.15
   3  -2  -7   19.17    1.75
  -3  -2   7   23.76    1.96
  -3  -2   7   21.15    1.75
   3  -2  -7   18.99    1.90
  -3  -2   7   22.97    2.07
  -3  -2   7   22.15    2.23
   3   2  -7   21.59    2.03
   3   2  -7   20.60    2.06
   3   2  -7   18.32    1.79
  -3   2   7   22.10    2.27
  -3   2   7   20.35    1.90
  -3   2   7   18.75    1.74
  -3   2   7   17.87    1.76
   3   2  -7   22.00    2.02
  -2  -2   7    1.99    0.19
  -2  -2   7    1.64    0.17
  -2  -2   7    1.88    0.22
   2  -2  -7    1.69    0.20
  -2  -2   7    2.24    0.21
  -2   2   7    2.08    0.21
  -2   2   7    1.51    0.18
  -2   2   7    1.68    0.19
   2   2  -7    1.92    0.20
  -2   2   7    1.79    0.19
   2   2  -7    1.68    0.21
   2   2  -7    1.62    0.21
   2   2  -7    1.69    0.16
  -2   2   7    1.47    0.20
   1  -2  -7    0.41    0.10
  -1  -2   7    0.39    0.10
  -1  -2   7    0.10    0.08
   1  -2  -7    0.13    0.11
  -1  -2   7    0.27    0.11
   1   2  -7    0.14    0.11
   1   2  -7    0.23    0.18
  -1   2   7    0.32    0.08
  -1   2   7    0.11    0.09
   1   2  -7    0.27    0.11
  -1   2   7    0.19    0.11
   0  -2   7    0.48    0.11
   0  -2   7    0.11    0.10
   0  -2  -7    0.44    0.09
   0  -2   7    0.31    0.04
   0  -2  -7    0.18    0.13
   0   2  -7    0.24    0.10
   0   2  -7    0.23    0.11
   0   2   7    0.29    0.12
   0   2   7    0.33    0.11
   0   2  -7    0.22    0.11
   0   2   7    0.26    0.07
   1  -2   7    3.85    0.37
  -1  -2  -7    3.55    0.34
   1  -2   7    3.84    0.35
  -1  -2  -7    3.21    0.40
   1  -2   7    3.88    0.35
   1   2   7    4.12    0.43
  -1   2  -7    3.16    0.38
  -1   2  -7    3.29    0.35
  -1   2  -7    3.03    0.35
   1   2   7    3.63    0.36
   2  -2   7    3.01    0.34
   2  -2   7    3.39    0.36
  -2  -2  -7    2.55    0.33
   2  -2   7    3.27    0.33
   2   2   7    3.29    0.35
   2   2   7    2.99    0.34
   2   2   7    3.39    0.32
   2   2   7    3.58    0.34
  -2   2  -7    2.84    0.33
  -2   2  -7    2.83    0.32
  -2   2  -7    3.33    0.32
   3  -2   7    0.52    0.16
   3  -2   7    0.78    0.18
   3  -2   7    0.19    0.12
   3  -2   7    0.20    0.15
   3   2   7    0.18    0.17
  -3   2  -7    0.34    0.10
  -3   2  -7    0.38    0.13
   3   2   7    0.03    0.32
   3   2   7    0.26    0.17
   4  -2   7    0.22    0.15
   4  -2   7    0.44    0.16
   4  -2   7   -0.28    0.21
   4   2   7    0.47    0.19
   4   2   7    0.32    0.21
  -4   2  -7    0.34    0.13
  -4   2  -7    0.55    0.18
   5  -2   7    0.54    0.23
  -5  -2  -7    0.79    0.11
   5  -2   7    0.69    0.20
  -5  -2  -7    0.73    0.11
   5  -2   7    0.30    0.24
   5   2   7    0.58    0.27
  -5   2  -7    0.68    0.15
   5   2   7    0.64    0.23
  -6  -2  -7    0.26    0.12
  -6  -2  -7    0.09    0.15
   6  -2   7    0.08    0.21
   6  -2   7   -0.11    0.27
   6   2   7    0.00    0.25
  -6   2  -7    0.08    0.18
   6   2   7   -0.12    0.32
  -7  -2  -7   -0.05    0.16
   7  -2   7   -0.43    0.33
   7  -2   7    0.03    0.31
   7   2   7   -0.18    0.31
  -7   2  -7    0.13    0.18
   7   2   7   -0.36    0.32
  -8  -2  -7    0.50    0.28
   8  -2   7    0.48    0.33
   8  -2   7    0.17    0.38
   8   2   7    0.08    0.36
   8   2   7    0.04    0.37
   9  -2   7    0.64    0.46
  -9  -2  -7   -0.14    0.22
   9  -2   7   -0.01    0.32
   9   2   7   -0.35    0.44
   9   2   7   -0.27    0.44
 -11  -3   7    0.20    0.37
  11  -3  -7    0.55    0.33
 -11   3   7   -0.01    0.41
  11   3  -7   -0.06    0.35
 -11   3   7    0.20    0.35
 -10  -3   7    0.49    0.27
  10  -3  -7    0.73    0.33
 -10   3   7    0.01    0.28
 -10   3   7    0.87    0.37
  10   3  -7    0.90    0.37
  -9  -3   7    0.28    0.19
   9  -3  -7    0.61    0.23
  -9  -3   7    0.51    0.28
  -9   3   7    0.53    0.26
   9   3  -7    0.74    0.32
  -9   3   7    1.24    0.33
  -8  -3   7    0.82    0.19
   8  -3  -7    0.99    0.23
  -8  -3   7    1.31    0.26
  -8   3   7    0.84    0.22
   8   3  -7    0.99    0.28
  -8   3   7    0.95    0.27
  -7  -3   7    0.06    0.13
  -7  -3   7    0.04    0.19
   7  -3  -7    0.09    0.17
   7   3  -7   -0.06    0.16
  -7   3   7   -0.04    0.16
  -7   3   7   -0.09    0.19
   7   3  -7   -0.11    0.25
  -7   3   7    0.08    0.11
   6  -3  -7    4.95    0.49
  -6  -3   7    5.65    0.49
  -6  -3   7    4.96    0.46
   6   3  -7    4.70    0.50
  -6   3   7    4.89    0.48
  -6   3   7    4.11    0.45
  -6   3   7    5.18    0.47
   6   3  -7    5.46    0.54
  -5  -3   7    5.04    0.51
   5  -3  -7    5.47    0.53
  -5  -3   7    5.99    0.56
   5  -3  -7    5.56    0.52
  -5  -3   7    5.26    0.51
  -5   3   7    5.92    0.52
  -5   3   7    5.45    0.52
   5   3  -7    6.06    0.53
   5   3  -7    5.33    0.52
   4  -3  -7    0.85    0.16
  -4  -3   7    1.20    0.17
   4  -3  -7    1.46    0.16
  -4  -3   7    1.03    0.16
   4  -3  -7    1.60    0.21
  -4  -3   7    1.75    0.19
   4   3  -7    1.29    0.16
  -4   3   7    1.13    0.16
   4   3  -7    1.50    0.22
   4   3  -7    1.59    0.13
  -4   3   7    1.14    0.14
  -4   3   7    1.37    0.16
  -4   3   7    0.78    0.18
  -4   3   7    1.01    0.19
  -3  -3   7   39.14    3.28
  -3  -3   7   37.74    2.90
  -3  -3   7   28.56    2.70
  -3  -3   7   28.58    2.72
   3  -3  -7   30.06    3.09
   3   3  -7   36.23    3.26
  -3   3   7   33.75    3.43
   3   3  -7   32.54    3.27
   3   3  -7   34.95    3.37
  -3   3   7   32.62    2.92
   3   3  -7   27.58    2.87
  -3   3   7   28.77    2.71
  -3   3   7   30.66    2.72
  -3   3   7   34.07    3.39
  -3   3   7   31.71    3.13
   3   3  -7   33.78    3.50
  -2  -3   7    8.16    0.76
  -2  -3   7    8.08    0.68
   2  -3  -7    7.42    0.72
  -2  -3   7    8.17    0.66
  -2  -3   7    7.10    0.66
   2   3  -7    8.00    0.68
   2   3  -7    6.86    0.67
  -2   3   7    7.61    0.66
   2   3  -7    7.25    0.75
  -2   3   7    7.36    0.74
  -2   3   7    7.53    0.78
  -2   3   7    6.73    0.66
   2   3  -7    6.46    0.70
   2   3  -7    6.64    0.67
  -2   3   7    7.00    0.69
  -2   3   7    7.59    0.72
   1  -3  -7    0.05    0.11
  -1  -3   7    0.10    0.08
  -1  -3   7    0.10    0.10
  -1  -3   7    0.09    0.09
   1  -3  -7    0.00    0.11
   1   3  -7    0.04    0.11
  -1   3   7    0.38    0.11
  -1   3   7    0.04    0.12
   1   3  -7    0.19    0.09
  -1   3   7    0.14    0.09
  -1   3   7    0.04    0.09
   1   3  -7   -0.05    0.11
   0  -3   7   64.42    5.81
   0  -3  -7   55.32    5.83
   0  -3   7   73.29    5.93
   0  -3  -7   56.69    5.79
   0   3   7   56.14    5.58
   0   3  -7   62.49    6.18
   0   3   7   65.62    6.95
   0   3   7   61.46    5.57
   0   3  -7   63.96    6.15
   0   3  -7   63.33    5.91
   0   3   7   62.26    5.47
   0   3  -7   61.53    5.86
   1  -3   7    1.63    0.20
   1  -3   7    1.36    0.15
   1  -3   7    1.67    0.18
  -1  -3  -7    1.29    0.21
  -1  -3  -7    1.46    0.16
   1   3   7    1.08    0.14
   1   3   7    1.32    0.19
  -1   3  -7    1.56    0.15
  -1   3  -7    1.66    0.19
   1   3   7    1.31    0.18
   1   3   7    1.80    0.21
  -1   3  -7    1.39    0.17
   2  -3   7   38.90    3.21
   2  -3   7   34.81    3.45
  -2  -3  -7   29.54    2.95
   2  -3   7   35.33    3.60
   2  -3   7   33.50    3.47
   2   3   7   33.71    4.02
  -2   3  -7   31.50    3.14
  -2   3  -7   31.37    3.26
   2   3   7   31.43    3.06
   3  -3   7    8.41    0.68
   3  -3   7    7.73    0.78
   3  -3   7    6.15    0.73
   3  -3   7    6.18    0.70
  -3   3  -7    7.43    0.66
  -3   3  -7    6.51    0.72
   3   3   7    6.25    0.73
   3   3   7    6.30    0.70
   4  -3   7    2.33    0.28
   4  -3   7    2.13    0.31
   4  -3   7    2.12    0.28
   4   3   7    1.89    0.29
   4   3   7    1.88    0.30
  -4   3  -7    2.79    0.26
  -5  -3  -7    1.24    0.14
  -5  -3  -7    1.31    0.14
   5  -3   7    1.52    0.24
   5  -3   7    1.25    0.28
   5  -3   7    1.44    0.26
   5   3   7    1.40    0.27
   5   3   7    1.17    0.32
  -5   3  -7    1.29    0.21
  -6  -3  -7   -0.06    0.11
   6  -3   7    0.03    0.20
   6  -3   7   -0.44    0.25
  -6  -3  -7   -0.03    0.15
  -6   3  -7   -0.09    0.18
   6   3   7   -0.17    0.25
   6   3   7   -0.20    0.32
   7  -3   7   -0.16    0.32
  -7  -3  -7    0.18    0.24
   7  -3   7   -0.04    0.28
  -7   3  -7    0.24    0.22
   7   3   7    0.81    0.42
   7   3   7    0.63    0.36
   8  -3   7    2.29    0.47
   8  -3   7    2.65    0.38
  -8  -3  -7    2.19    0.37
   8   3   7    1.56    0.47
   8   3   7    1.95    0.45
  -9  -3  -7    0.41    0.25
   9  -3   7    0.81    0.51
   9  -3   7    0.78    0.42
   9   3   7    0.41    0.56
   9   3   7    0.13    0.46
  11  -4  -7    0.44    0.33
 -11  -4   7    0.14    0.40
 -11   4   7   -0.07    0.43
 -11   4   7    0.31    0.37
  11   4  -7   -0.10    0.48
 -10  -4   7    0.12    0.27
  10  -4  -7    0.27    0.33
  10   4  -7    0.40    0.38
 -10   4   7    0.01    0.35
 -10   4   7    0.04    0.28
  -9  -4   7    0.73    0.26
  -9  -4   7    0.67    0.23
   9  -4  -7    0.99    0.25
  -9   4   7    0.58    0.30
  -9   4   7    0.69    0.26
   9   4  -7    1.40    0.36
  -8  -4   7    0.51    0.24
  -8  -4   7    0.19    0.18
   8  -4  -7    0.06    0.21
   8   4  -7    0.29    0.28
  -8   4   7    0.38    0.20
  -8   4   7   -0.02    0.24
   7  -4  -7    0.21    0.18
  -7  -4   7    0.00    0.16
  -7  -4   7   -0.06    0.20
  -7   4   7   -0.15    0.16
   7   4  -7   -0.20    0.21
  -7   4   7   -0.03    0.15
   7   4  -7    0.08    0.25
  -7   4   7   -0.12    0.20
  -6  -4   7    0.47    0.17
   6  -4  -7    0.08    0.15
  -6  -4   7   -0.13    0.14
  -6   4   7    0.09    0.11
  -6   4   7    0.12    0.10
  -6   4   7   -0.04    0.14
  -6   4   7    0.12    0.17
   6   4  -7    0.34    0.17
   6   4  -7   -0.16    0.21
   5  -4  -7    6.58    0.63
  -5  -4   7    6.19    0.62
   5  -4  -7    6.67    0.62
  -5  -4   7    6.98    0.63
  -5   4   7    6.82    0.64
   5   4  -7    7.03    0.66
  -5   4   7    6.99    0.62
   5   4  -7    7.98    0.65
  -5   4   7    6.28    0.69
  -4  -4   7    4.14    0.40
  -4  -4   7    4.62    0.39
   4  -4  -7    4.10    0.38
  -4  -4   7    4.05    0.39
  -4   4   7    4.04    0.40
   4   4  -7    4.26    0.42
   4   4  -7    4.48    0.42
  -4   4   7    3.71    0.38
  -4   4   7    3.07    0.39
  -4   4   7    2.75    0.52
   4   4  -7    4.21    0.38
   4   4  -7    4.39    0.44
  -4   4   7    3.67    0.38
  -3  -4   7   76.10    8.95
  -3  -4   7   81.07    7.13
   3  -4  -7   64.88    7.24
  -3  -4   7   65.56    6.08
  -3  -4   7   72.48    6.10
  -3   4   7   73.51    6.12
   3   4  -7   73.09    6.15
  -3   4   7   78.15    8.40
   3   4  -7   77.04    7.58
   3   4  -7   60.12    6.57
  -3   4   7   70.49    8.29
   3   4  -7   73.94    7.28
  -3   4   7   73.20    7.14
  -3   4   7   63.26    6.06
  -3   4   7   67.96    6.91
   3   4  -7   75.01    7.71
  -2  -4   7    4.33    0.35
  -2  -4   7    4.27    0.37
  -2  -4   7    3.48    0.33
  -2  -4   7    4.51    0.41
   2  -4  -7    3.12    0.36
  -2   4   7    3.74    0.35
  -2   4   7    3.57    0.40
  -2   4   7    3.38    0.35
   2   4  -7    3.34    0.36
  -2   4   7    3.22    0.38
  -2   4   7    3.87    0.35
  -2   4   7    2.73    0.35
   2   4  -7    3.88    0.38
   2   4  -7    3.52    0.36
   2   4  -7    3.60    0.36
   2   4  -7    3.84    0.36
  -1  -4   7   49.45    4.00
  -1  -4   7   43.68    3.76
   1  -4  -7   38.54    3.91
  -1  -4   7   41.78    3.85
  -1   4   7   45.84    5.23
   1   4  -7   44.36    4.29
  -1   4   7   42.11    3.87
   1   4  -7   45.86    4.04
  -1   4   7   40.08    3.81
   1   4  -7   42.24    3.79
   1   4  -7   39.07    3.69
  -1   4   7   41.10    4.08
   0  -4  -7    0.18    0.12
   0  -4   7    0.08    0.10
   0  -4  -7   -0.18    0.11
   0  -4  -7   -0.03    0.13
   0  -4   7    0.05    0.10
   0  -4   7    0.10    0.13
   0   4   7    0.04    0.11
   0   4  -7   -0.06    0.13
   0   4  -7    0.03    0.06
   0   4   7    0.02    0.14
   0   4  -7   -0.06    0.12
   0   4   7   -0.06    0.08
   0   4  -7   -0.07    0.10
   0   4   7   -0.02    0.09
   1  -4   7    6.89    0.67
  -1  -4  -7    5.97    0.61
   1  -4   7    7.21    0.70
  -1  -4  -7    6.74    0.64
   1  -4   7    6.88    0.59
   1   4   7    5.81    0.58
  -1   4  -7    7.07    0.66
  -1   4  -7    6.79    0.65
   1   4   7    6.59    0.61
  -1   4  -7    6.62    0.71
   1   4   7    7.20    0.71
   2  -4   7   10.68    0.95
   2  -4   7    9.22    0.86
   2  -4   7    9.36    0.91
  -2  -4  -7    8.81    0.81
  -2  -4  -7    8.58    0.81
   2   4   7    8.72    0.92
  -2   4  -7    9.84    0.91
   2   4   7    7.74    0.81
  -2   4  -7   10.15    0.92
  -3  -4  -7   17.06    1.63
  -3  -4  -7   15.74    1.60
  -3  -4  -7   17.40    1.64
   3  -4   7   19.77    1.80
   3  -4   7   18.76    1.81
   3  -4   7   20.58    1.73
   3  -4   7   21.72    1.86
  -3   4  -7   18.67    1.92
  -3   4  -7   20.88    1.79
   3   4   7   17.49    1.83
   3   4   7   17.04    1.73
  -4  -4  -7    0.94    0.21
  -4  -4  -7    1.00    0.11
   4  -4   7    0.89    0.21
   4  -4   7    0.76    0.27
   4  -4   7    1.02    0.19
   4   4   7    0.64    0.24
  -4   4  -7    1.40    0.19
   4   4   7    0.88    0.30
   5  -4   7   30.25    3.06
   5  -4   7   30.81    2.92
  -5  -4  -7   26.66    2.56
  -5  -4  -7   29.39    2.95
  -5   4  -7   32.48    2.79
   5   4   7   27.73    2.96
   5   4   7   31.67    3.16
   6  -4   7    3.24    0.50
  -6  -4  -7    3.43    0.43
   6  -4   7    4.10    0.43
   6   4   7    3.49    0.52
  -6   4  -7    4.87    0.44
   6   4   7    3.14    0.46
   7  -4   7    4.79    0.50
   7  -4   7    2.93    0.49
  -7  -4  -7    3.89    0.47
   7   4   7    4.66    0.55
  -7   4  -7    3.87    0.46
   7   4   7    3.95    0.53
   8  -4   7   -0.14    0.37
   8  -4   7    0.22    0.28
  -8  -4  -7    0.19    0.28
   8   4   7    0.01    0.50
   8   4   7   -0.28    0.41
   9  -4   7   -0.04    0.42
  -9  -4  -7    0.80    0.37
   9  -4   7   -0.03    0.44
   9   4   7   -0.22    0.45
   9   4   7   -0.15    0.49
 -11  -5   7    0.69    1.02
  11  -5  -7    0.42    0.40
  11   5  -7   -0.04    0.54
 -11   5   7   -0.01    0.46
  10  -5  -7    0.54    0.34
 -10  -5   7    0.34    0.35
  10   5  -7    0.54    0.43
 -10   5   7    0.59    0.30
 -10   5   7    0.73    0.39
  -9  -5   7    0.42    0.25
  -9  -5   7    0.28    0.30
   9  -5  -7    0.70    0.29
  -9   5   7    0.51    0.24
   9   5  -7    0.51    0.35
  -9   5   7    0.53    0.33
   8  -5  -7    1.82    0.27
  -8  -5   7    2.03    0.29
  -8  -5   7    1.41    0.46
   8   5  -7    2.41    0.36
  -8   5   7    1.74    0.37
  -8   5   7    2.02    0.34
   7  -5  -7    1.45    0.22
  -7  -5   7    1.60    0.25
  -7  -5   7    0.88    0.22
  -7   5   7    1.41    0.28
  -7   5   7    1.13    0.23
   7   5  -7    0.63    0.30
   7   5  -7    1.85    0.29
  -6  -5   7   23.77    1.98
  -6  -5   7   20.60    1.97
   6  -5  -7   24.09    2.06
   6   5  -7   21.01    2.17
  -6   5   7   23.54    2.54
   6   5  -7   23.51    2.35
  -6   5   7   21.51    2.23
  -6   5   7   22.83    2.09
   5  -5  -7   -0.07    0.15
  -5  -5   7   -0.12    0.15
  -5  -5   7    0.13    0.15
   5   5  -7    0.03    0.06
   5   5  -7    0.07    0.16
   5   5  -7    0.00    0.19
   5   5  -7    0.01    0.06
  -5   5   7    0.12    0.17
  -5   5   7    0.04    0.14
  -5   5   7   -0.10    0.10
  -4  -5   7   10.09    1.01
  -4  -5   7   13.35    1.04
   4   5  -7   11.53    1.06
   4   5  -7   11.58    1.14
   4   5  -7   12.30    1.10
  -4   5   7   11.37    1.02
  -4   5   7   10.68    1.16
   4   5  -7   11.94    1.09
  -4   5   7   11.12    1.13
  -3  -5   7    1.71    0.18
  -3  -5   7    1.93    0.20
  -3  -5   7    1.43    0.18
  -3   5   7    0.96    0.19
  -3   5   7    1.62    0.19
  -3   5   7    0.94    0.19
  -3   5   7    1.43    0.23
  -3   5   7    1.26    0.20
  -3   5   7    1.24    0.18
   3   5  -7    1.47    0.22
   3   5  -7    1.89    0.22
   3   5  -7    1.35    0.16
   3   5  -7    1.62    0.21
   3   5  -7    2.04    0.21
  -2  -5   7    3.07    0.54
  -2  -5   7    3.36    0.30
   2  -5  -7    2.83    0.30
  -2  -5   7    2.79    0.28
  -2  -5   7    3.25    0.29
   2   5  -7    3.07    0.30
  -2   5   7    2.69    0.31
  -2   5   7    2.63    0.30
  -2   5   7    2.92    0.32
   2   5  -7    3.12    0.33
  -2   5   7    3.09    0.30
  -2   5   7    2.67    0.31
   2   5  -7    2.88    0.35
  -2   5   7    3.21    0.34
   2   5  -7    3.25    0.32
   1  -5  -7    2.72    0.29
  -1  -5   7    3.02    0.29
   1  -5  -7    2.78    0.30
  -1  -5   7    2.98    0.29
  -1  -5   7    3.50    0.37
   1   5  -7    3.56    0.35
  -1   5   7    2.97    0.32
  -1   5   7    2.38    0.29
  -1   5   7    2.26    0.30
  -1   5   7    2.84    0.33
   1   5  -7    3.42    0.28
   1   5  -7    3.74    0.31
   1   5  -7    3.20    0.32
   0  -5  -7   28.41    3.50
   0  -5   7   34.83    3.15
   0  -5  -7   32.04    3.29
   0  -5   7   33.91    2.92
   0  -5  -7   27.89    3.01
   0  -5   7   37.03    3.30
   0   5  -7   36.83    3.60
   0   5   7   32.35    3.03
   0   5   7   33.64    3.27
   0   5   7   35.62    3.04
   0   5  -7   35.12    3.22
   0   5  -7   34.07    3.04
   0   5  -7   35.89    2.94
   0   5   7   30.88    2.90
   1  -5   7    6.26    0.56
  -1  -5  -7    4.59    0.50
  -1  -5  -7    4.93    0.52
   1  -5   7    6.11    0.53
  -1  -5  -7    5.32    0.56
  -1   5  -7    5.31    0.58
   1   5   7    5.24    0.51
   1   5   7    4.79    0.69
  -1   5  -7    6.17    0.49
   1   5   7    4.73    0.49
   2  -5   7   88.47    7.93
  -2  -5  -7   72.01    7.84
   2  -5   7  100.75    8.19
   2  -5   7   91.60    8.42
   2  -5   7  105.25   10.42
  -2  -5  -7   81.56    7.94
  -2  -5  -7   71.93    7.79
   2   5   7   76.75    7.69
  -2   5  -7   92.17    7.52
   2   5   7   82.61    8.49
  -2   5  -7   90.74    7.91
  -3  -5  -7    0.03    0.10
  -3  -5  -7    0.09    0.15
  -3  -5  -7    0.05    0.15
   3  -5   7    1.69    0.82
   3  -5   7    0.02    0.13
   3  -5   7   -0.08    0.14
   3  -5   7    0.18    0.26
  -3   5  -7   -0.05    0.15
  -3   5  -7    0.00    0.15
   3   5   7   -0.28    0.20
   3   5   7    0.00    0.05
   4  -5   7   -0.22    0.15
   4  -5   7    0.20    0.18
  -4  -5  -7    0.08    0.09
  -4  -5  -7    0.10    0.16
   4  -5   7   -0.47    0.31
   4   5   7    0.39    0.24
  -4   5  -7   -0.03    0.19
   4   5   7   -0.12    0.24
   5  -5   7    1.32    0.27
   5  -5   7    1.67    0.28
  -5  -5  -7    1.61    0.25
  -5   5  -7    1.81    0.26
   5   5   7    1.23    0.32
   5   5   7    1.13    0.32
  -6  -5  -7    0.51    0.27
   6  -5   7    0.70    0.23
  -6  -5  -7    0.48    0.18
   6  -5   7    0.91    0.28
   6   5   7    0.56    0.31
   6   5   7    0.42    0.30
  -6   5  -7    0.39    0.21
   7  -5   7   -0.05    0.31
   7  -5   7   -0.15    0.31
  -7  -5  -7    0.15    0.18
  -7  -5  -7    0.24    0.27
   7   5   7    0.32    0.44
  -7   5  -7   -0.03    0.27
   7   5   7    0.51    0.39
  -8  -5  -7   -0.04    0.30
   8  -5   7   -0.03    0.37
   8  -5   7    0.06    0.28
   8   5   7    0.08    0.87
   8   5   7    0.29    0.34
  -9  -5  -7   -0.05    0.37
   9  -5   7    0.09    0.43
   9  -5   7   -0.04    0.46
   9   5   7   -0.25    0.46
   9   5   7    0.00    0.51
  10  -6  -7    0.12    0.34
 -10  -6   7   -0.29    0.29
  10   6  -7   -0.51    0.34
 -10   6   7   -0.09    0.39
   9  -6  -7    0.39    0.29
  -9  -6   7    0.41    0.26
  -9  -6   7    0.15    0.27
   9   6  -7    0.55    0.39
  -9   6   7    0.59    0.24
  -9   6   7    0.19    0.41
   8  -6  -7    2.36    0.32
  -8  -6   7    2.51    0.35
  -8  -6   7    3.07    0.37
  -8   6   7    2.45    0.34
  -8   6   7    2.39    0.40
   8   6  -7    2.57    0.42
  -7  -6   7    0.03    0.22
  -7  -6   7   -0.15    0.18
   7  -6  -7    0.49    0.21
   7   6  -7    0.26    0.27
  -7   6   7    0.18    0.25
   7   6  -7    0.03    0.27
  -7   6   7    0.17    0.16
  -6  -6   7    5.58    0.51
   6  -6  -7    5.11    0.49
  -6  -6   7    5.29    0.50
   6   6  -7    4.93    0.52
   6   6  -7    4.95    0.48
  -6   6   7    4.86    0.56
  -6   6   7    4.88    0.49
   6   6  -7    4.62    0.54
   6   6  -7    4.87    0.45
  -5  -6   7    0.49    0.18
  -5  -6   7    0.42    0.16
   5  -6  -7    0.26    0.12
   5   6  -7    0.33    0.23
  -5   6   7    0.32    0.19
   5   6  -7    0.56    0.19
   5   6  -7    0.56    0.12
  -5   6   7    0.38    0.13
   5   6  -7    0.30    0.21
  -5   6   7    0.43    0.17
   5   6  -7    0.62    0.11
  -4  -6   7    1.05    0.16
  -4  -6   7    0.83    0.18
   4   6  -7    0.84    0.24
  -4   6   7    0.58    0.14
  -4   6   7    0.51    0.15
   4   6  -7    0.91    0.18
  -4   6   7    0.33    0.21
   4   6  -7    0.95    0.13
   4   6  -7    0.86    0.21
  -3  -6   7    0.76    0.15
  -3  -6   7    1.05    0.16
   3   6  -7    0.84    0.19
   3   6  -7    0.76    0.16
  -3   6   7    0.67    0.15
   3   6  -7    0.97    0.13
   3   6  -7    1.03    0.23
   3   6  -7    0.32    0.20
  -3   6   7    0.22    0.19
  -3   6   7    0.44    0.15
  -3   6   7    0.67    0.21
   2  -6  -7   -0.14    0.12
  -2  -6   7    0.27    0.11
  -2  -6   7   -0.12    0.13
  -2   6   7    0.31    0.15
   2   6  -7   -0.02    0.15
   2   6  -7    0.32    0.16
  -2   6   7   -0.02    0.16
  -2   6   7    0.21    0.16
  -2   6   7    0.15    0.12
   2   6  -7    0.23    0.11
   2   6  -7    0.24    0.22
   1  -6  -7    0.45    0.17
  -1  -6   7    0.92    0.16
   1  -6  -7    0.69    0.14
  -1  -6   7    1.01    0.13
  -1  -6   7    0.86    0.14
   1  -6  -7    0.99    0.17
  -1   6   7    0.91    0.16
  -1   6   7    1.05    0.18
   1   6  -7    1.18    0.16
   1   6  -7    0.71    0.20
   1   6  -7    1.03    0.20
   1   6  -7    1.38    0.13
   0  -6   7   13.48    1.12
   0  -6  -7   12.07    1.13
   0  -6  -7   10.59    1.29
   0  -6   7   13.09    1.13
   0  -6   7   12.79    1.11
   0  -6  -7   11.18    1.11
   0   6   7   11.72    1.14
   0   6   7   11.62    1.13
   0   6  -7   12.20    1.15
   0   6   7   10.88    1.10
   0   6  -7   14.17    1.11
   0   6  -7   14.73    1.19
   0   6   7   13.57    1.42
  -1  -6  -7    1.80    0.18
  -1  -6  -7    1.55    0.23
   1  -6   7    1.65    0.21
   1  -6   7    1.75    0.21
  -1  -6  -7    1.64    0.21
   1  -6   7    1.82    0.21
  -1   6  -7    2.06    0.20
  -1   6  -7    1.87    0.26
   1   6   7    1.50    0.23
   1   6   7    1.82    0.28
  -2  -6  -7   11.45    1.16
  -2  -6  -7   10.03    1.10
  -2  -6  -7    9.90    1.06
   2  -6   7   11.89    1.06
   2  -6   7   11.50    1.14
  -2   6  -7   12.69    1.09
  -2   6  -7   13.68    1.09
   2   6   7   11.13    1.20
   3  -6   7    0.33    0.15
  -3  -6  -7    0.25    0.09
  -3  -6  -7    0.03    0.17
  -3  -6  -7    0.21    0.12
   3  -6   7    0.22    0.17
   3  -6   7    0.36    0.17
  -3   6  -7    0.39    0.19
   3   6   7    0.44    0.24
  -3   6  -7    0.56    0.16
   3   6   7    0.24    0.13
  -4  -6  -7    1.85    0.27
   4  -6   7    2.20    0.26
   4  -6   7    1.77    0.27
  -4  -6  -7    1.99    0.21
  -4  -6  -7    1.74    0.21
  -4   6  -7    3.09    1.42
   4   6   7    1.82    0.34
   4   6   7    1.90    0.34
   5  -6   7    3.06    0.40
   5  -6   7    3.56    0.35
   5  -6   7    3.12    0.41
  -5  -6  -7    3.21    0.39
   5   6   7    3.53    0.51
   5   6   7    2.66    0.45
  -5   6  -7    4.17    0.40
  -6  -6  -7   -0.02    0.17
   6  -6   7   -0.37    0.28
   6  -6   7   -0.07    0.26
   6  -6   7    0.28    0.17
  -6  -6  -7    0.10    0.27
   6   6   7    0.62    0.34
   6   6   7   -0.71    0.31
  -6   6  -7   -0.19    0.26
   7  -6   7    0.53    0.29
  -7  -6  -7    0.73    0.28
   7  -6   7    0.46    0.33
  -7  -6  -7    0.79    0.31
   7   6   7    0.67    0.35
  -7   6  -7    1.22    0.30
   7   6   7    0.05    0.49
   8  -6   7   -0.11    0.29
   8  -6   7   -0.09    0.38
  -8  -6  -7   -0.25    0.32
  -8  -6  -7    0.03    0.21
   8   6   7    0.67    0.46
  -8   6  -7    0.02    0.51
   8   6   7   -0.03    0.54
 -10  -7   7   -0.17    0.39
  10  -7  -7   -0.07    0.29
 -10   7   7    0.23    0.41
  10   7  -7    0.09    0.47
   9  -7  -7    0.04    0.29
  -9  -7   7    0.19    0.33
  -9  -7   7    0.02    0.25
   9   7  -7    0.14    0.41
  -9   7   7    0.60    0.44
   8  -7  -7    0.25    0.22
  -8  -7   7    0.64    0.24
  -8  -7   7    0.21    0.27
  -8   7   7   -0.15    0.34
   8   7  -7    1.97    0.60
  -8   7   7    0.22    0.35
   7  -7  -7    1.75    0.26
  -7  -7   7    1.96    0.27
   7   7  -7    2.26    0.69
   7   7  -7    1.98    0.34
  -7   7   7    1.07    0.30
   6  -7  -7    0.05    0.18
  -6  -7   7   -0.01    0.19
  -6  -7   7    0.17    0.17
  -6   7   7   -0.03    0.21
  -6   7   7    0.11    0.16
   6   7  -7   -0.19    0.26
   6   7  -7    0.05    0.24
   6   7  -7    0.04    0.12
  -5  -7   7   -0.03    0.16
  -5  -7   7    0.17    0.19
   5   7  -7    0.30    0.11
  -5   7   7    0.51    0.26
   5   7  -7    0.69    0.25
   5   7  -7   -0.06    0.26
  -5   7   7    0.29    0.14
  -5   7   7   -0.19    0.14
   5   7  -7    0.58    0.29
   5   7  -7    0.34    0.14
  -4  -7   7    1.24    0.20
  -4  -7   7    0.82    0.17
  -4   7   7    0.72    0.25
   4   7  -7    1.13    0.15
   4   7  -7    0.85    0.21
  -4   7   7    0.67    0.15
   4   7  -7    0.88    0.22
   4   7  -7    0.87    0.26
  -4   7   7    0.40    0.14
  -3  -7   7   18.36    1.62
  -3  -7   7   17.65    1.53
   3  -7  -7   15.66    1.56
   3   7  -7   16.53    1.77
  -3   7   7   16.96    1.55
   3   7  -7   18.23    1.53
   3   7  -7   18.05    1.55
  -3   7   7   15.71    1.64
  -3   7   7   15.93    1.63
  -2  -7   7    0.14    0.12
  -2  -7   7    0.05    0.15
   2  -7  -7    0.17    0.14
  -2   7   7    0.06    0.19
   2   7  -7    0.01    0.17
   2   7  -7   -0.11    0.18
   2   7  -7   -0.01    0.20
  -2   7   7    0.01    0.13
  -2   7   7    0.06    0.16
  -2   7   7   -0.02    0.18
   2   7  -7    0.05    0.13
  -1  -7   7    0.23    0.14
   1  -7  -7    0.11    0.14
   1  -7  -7    0.07    0.14
  -1  -7   7    0.21    0.11
  -1   7   7    0.26    0.15
   1   7  -7   -0.11    0.19
   1   7  -7    0.31    0.18
  -1   7   7    0.20    0.17
   1   7  -7    0.30    0.12
  -1   7   7    0.07    0.12
  -1   7   7    0.35    0.15
   0  -7  -7    1.01    0.20
   0  -7  -7    1.11    0.20
   0  -7   7    1.17    0.16
   0  -7   7    1.20    0.15
   0  -7   7    1.05    0.18
   0   7  -7    0.97    0.20
   0   7  -7    1.39    0.26
   0   7   7    0.91    0.15
   0   7  -7    1.23    0.16
   0   7   7    0.77    0.18
   0   7   7    0.78    0.21
   0   7   7    1.65    1.16
   1  -7   7    0.01    0.12
  -1  -7  -7    0.04    0.16
   1  -7   7   -0.21    0.13
  -1  -7  -7    0.06    0.05
  -1  -7  -7   -0.01    0.13
   1  -7   7    0.20    0.10
  -1   7  -7    0.05    0.17
   1   7   7    0.28    0.17
  -1   7  -7    0.04    0.12
   1   7   7    0.06    0.16
  -2  -7  -7    0.14    0.18
   2  -7   7    0.15    0.13
   2  -7   7    0.26    0.14
   2  -7   7    0.26    0.16
   2  -7   7   -0.09    0.13
  -2  -7  -7   -0.05    0.14
  -2  -7  -7   -0.02    0.05
  -2   7  -7    0.18    0.13
  -2   7  -7    0.24    0.18
   2   7   7   -0.16    0.14
   2   7   7    0.45    0.18
  -3  -7  -7    2.27    0.28
  -3  -7  -7    2.76    0.33
   3  -7   7    2.70    0.29
   3  -7   7    2.78    0.28
  -3  -7  -7    2.17    0.23
   3  -7   7    2.29    0.29
   3  -7   7    3.12    0.29
  -3   7  -7    4.00    0.46
   3   7   7    2.39    0.37
  -4  -7  -7    3.23    0.33
   4  -7   7    4.47    0.40
   4  -7   7    3.74    0.40
   4  -7   7    4.21    0.37
   4  -7   7    3.50    0.41
  -4  -7  -7    3.94    0.41
   4   7   7    2.64    0.36
   4   7   7    3.15    0.45
   4   7   7    3.81    0.51
   5  -7   7    0.80    0.28
   5  -7   7    0.78    0.22
  -5  -7  -7    0.70    0.25
   5  -7   7    1.14    0.20
   5   7   7    0.75    0.35
  -5   7  -7    1.25    0.27
   5   7   7    1.20    0.34
   6  -7   7    0.27    0.27
  -6  -7  -7   -0.16    0.24
   6  -7   7    0.14    0.30
  -6   7  -7   -0.15    0.25
   6   7   7    0.31    0.35
   6   7   7   -0.23    0.46
  -7  -7  -7   -0.02    0.21
   7  -7   7    0.12    0.35
  -7  -7  -7   -0.10    0.28
   7  -7   7   -0.32    0.30
  -7   7  -7    0.29    0.31
   7   7   7   -0.40    0.38
   7   7   7   -0.15    0.40
   8  -7   7    0.38    0.32
  -8  -7  -7   -0.12    0.31
   8  -7   7   -0.05    0.43
  -8  -7  -7    0.17    0.25
   8   7   7   -0.57    0.57
  -8   7  -7    0.44    0.36
   8   7   7   -0.06    0.40
 -10  -8   7   -0.11    0.34
  10  -8  -7    0.20    0.32
  -9  -8   7    0.11    0.28
  -9  -8   7    0.21    0.34
   9  -8  -7    0.51    0.27
  -9   8   7    0.52    0.40
   9   8  -7    1.21    0.45
  -8  -8   7    0.07    0.30
   8  -8  -7    0.23    0.24
  -8  -8   7    0.05    0.24
   8   8  -7   -0.40    0.36
  -8   8   7   -0.02    0.33
  -7  -8   7   -0.14    0.25
   7  -8  -7   -0.20    0.15
  -7  -8   7    0.32    0.25
   7   8  -7    0.04    0.36
   7   8  -7   -0.15    0.29
  -7   8   7    0.05    0.34
  -6  -8   7    0.86    0.23
  -6  -8   7    0.91    0.23
   6   8  -7    0.68    0.34
  -6   8   7    0.60    0.27
  -6   8   7    0.61    0.18
   6   8  -7    0.93    0.17
   6   8  -7    0.63    0.29
   6   8  -7    0.67    0.28
  -5  -8   7    0.81    0.21
  -5  -8   7    0.82    0.20
  -5   8   7    0.65    0.26
   5   8  -7    1.23    0.32
   5   8  -7    0.98    0.15
  -5   8   7    0.44    0.17
   5   8  -7    0.93    0.26
   5   8  -7    0.24    0.23
  -4  -8   7    0.41    0.16
  -4  -8   7    0.10    0.16
   4  -8  -7    0.15    0.18
   4   8  -7    0.14    0.21
  -4   8   7    0.11    0.20
  -4   8   7    0.30    0.14
   4   8  -7    0.35    0.21
   4   8  -7    0.24    0.28
   4   8  -7    0.68    0.15
   3  -8  -7   33.69    3.20
  -3  -8   7   32.09    3.09
  -3  -8   7   35.27    3.08
   3   8  -7   32.98    3.56
  -3   8   7   35.93    3.70
  -3   8   7   30.55    3.20
   3   8  -7   38.79    3.13
   3   8  -7   36.83    3.26
  -3   8   7   36.07    3.17
  -2  -8   7   11.31    0.97
  -2  -8   7   11.60    0.98
   2  -8  -7   11.18    1.01
   2   8  -7   13.05    1.10
  -2   8   7   10.08    1.15
   2   8  -7   10.97    1.03
  -2   8   7   10.03    1.03
   2   8  -7   11.87    1.00
  -2   8   7   10.02    0.99
  -2   8   7    9.78    1.04
  -2   8   7    9.68    1.00
  -1  -8   7   45.33    3.74
  -1  -8   7   43.95    3.77
   1  -8  -7   44.33    4.64
   1   8  -7   41.12    4.13
  -1   8   7   41.49    4.85
   1   8  -7   44.42    3.82
  -1   8   7   39.24    4.06
  -1   8   7   40.62    4.00
   1   8  -7   46.59    4.08
  -1   8   7   40.05    3.83
   0  -8   7    0.11    0.16
   0  -8   7    0.04    0.10
   0  -8  -7   -0.02    0.13
   0  -8  -7   -0.01    0.20
   0   8   7   -0.15    0.17
   0   8  -7   -0.05    0.18
   0   8   7    0.00    0.11
   0   8   7    0.15    0.17
   0   8  -7   -0.05    0.20
   0   8  -7   -0.16    0.13
   0   8   7    0.21    0.18
   1  -8   7    0.68    0.18
   1  -8   7    0.57    0.17
  -1  -8  -7    0.56    0.18
  -1  -8  -7    0.43    0.20
   1  -8   7    0.77    0.12
  -1   8  -7    0.71    0.22
   1   8   7    0.65    0.26
   1   8   7    0.26    0.21
  -1   8  -7    0.67    0.16
   2  -8   7    2.95    0.36
  -2  -8  -7    2.50    0.36
   2  -8   7    3.99    0.33
   2  -8   7    3.38    0.34
   2  -8   7    3.30    0.32
  -2  -8  -7    2.82    0.38
  -2   8  -7    3.76    0.43
   2   8   7    3.24    0.43
   3  -8   7    0.02    0.16
   3  -8   7    0.05    0.15
  -3  -8  -7    0.04    0.21
   3  -8   7   -0.02    0.14
  -3  -8  -7   -0.16    0.18
   3  -8   7    0.02    0.15
   3   8   7    0.15    0.29
   3   8   7   -0.12    0.18
  -3   8  -7    0.12    0.20
   4  -8   7    0.28    0.23
   4  -8   7    0.60    0.20
  -4  -8  -7    0.25    0.23
   4  -8   7    0.63    0.17
  -4   8  -7    0.52    0.26
   4   8   7    0.05    0.32
   5  -8   7    5.55    0.49
   5  -8   7    5.14    0.54
   5  -8   7    6.08    1.01
  -5  -8  -7    4.10    0.53
   5   8   7    3.57    0.58
  -5   8  -7    5.19    0.56
   6  -8   7    0.03    0.24
  -6  -8  -7   -0.08    0.27
   6  -8   7   -0.19    0.31
  -6   8  -7    0.13    0.29
   6   8   7   -0.05    0.38
   6   8   7    0.29    0.40
   7  -8   7    1.46    0.38
   7  -8   7    0.99    0.41
  -7  -8  -7    0.81    0.35
   7   8   7    1.86    0.43
   7   8   7    1.35    0.50
   8  -8   7    0.74    0.46
  -8  -8  -7   -0.16    0.37
   8  -8   7   -0.36    0.42
  -8   8  -7   -0.13    0.42
   8   8   7   -0.31    0.52
  -9  -9   7   -0.24    0.31
   9  -9  -7    0.21    0.29
  -9  -9   7    0.08    0.29
   9   9  -7   -0.40    0.47
  -9   9   7   -0.17    0.41
  -8  -9   7    2.13    0.37
  -8  -9   7    1.55    0.34
  -8   9   7    1.11    0.41
   8   9  -7    1.25    0.42
  -7  -9   7    0.14    0.30
  -7  -9   7   -0.16    0.26
  -7   9   7   -0.13    0.31
   7   9  -7    0.29    0.38
   7   9  -7    0.41    0.35
  -6  -9   7    2.91    0.32
  -6  -9   7    1.98    0.35
   6   9  -7    1.46    0.35
  -6   9   7    2.11    0.41
   6   9  -7    2.41    0.42
   6   9  -7    1.70    0.42
  -5  -9   7    1.46    0.27
  -5  -9   7    1.88    0.26
   5   9  -7    1.81    0.34
   5   9  -7    1.31    0.29
  -5   9   7    1.51    0.31
   5   9  -7    1.88    0.38
  -4  -9   7   -0.05    0.15
  -4  -9   7    0.03    0.23
   4  -9  -7    0.20    0.20
  -4   9   7   -0.06    0.13
  -4   9   7   -0.20    0.23
   4   9  -7    0.04    0.30
   4   9  -7    0.19    0.24
   4   9  -7    0.08    0.27
   3  -9  -7    0.93    0.21
  -3  -9   7    0.79    0.22
  -3  -9   7    1.43    0.19
   3   9  -7    0.79    0.31
  -3   9   7    0.43    0.27
   3   9  -7    1.02    0.25
  -3   9   7    0.88    0.17
  -2  -9   7    2.68    0.31
   2  -9  -7    2.39    0.30
  -2  -9   7    2.55    0.26
  -2   9   7    1.91    0.30
   2   9  -7    1.97    0.32
  -2   9   7    1.92    0.28
   2   9  -7    3.24    0.50
   2   9  -7    2.23    0.33
  -2   9   7    1.91    0.34
  -1  -9   7    0.14    0.15
  -1  -9   7    0.09    0.11
   1  -9  -7    0.33    0.20
  -1   9   7   -0.43    0.27
   1   9  -7   -0.03    0.23
   1   9  -7    0.54    0.22
   1   9  -7    0.10    0.28
  -1   9   7    0.18    0.23
  -1   9   7    0.07    0.16
   0  -9   7    3.38    0.37
   0  -9  -7    3.28    0.42
   0  -9   7    3.54    0.33
   0   9  -7    4.04    0.42
   0   9   7    3.65    0.44
   0   9  -7    3.67    0.43
   0   9  -7    2.92    0.38
  -1  -9  -7    0.02    0.21
   1  -9   7    0.19    0.18
   1  -9   7    0.41    0.12
   1   9   7    0.17    0.23
   1   9   7    0.43    0.32
  -1   9  -7    0.74    0.29
   2  -9   7   10.55    0.87
   2  -9   7    9.78    0.85
   2  -9   7    9.70    0.85
  -2  -9  -7    8.41    0.86
   2   9   7    8.64    0.89
  -2   9  -7    9.71    1.04
   2   9   7    8.43    0.92
   3  -9   7    1.60    0.23
   3  -9   7    1.66    0.18
   3  -9   7    1.14    0.26
  -3  -9  -7    0.51    0.27
   3   9   7    0.82    0.25
   3   9   7    0.98    0.36
  -3   9  -7    1.90    0.33
  -4  -9  -7    2.99    0.46
   4  -9   7    3.62    0.45
   4  -9   7    4.72    0.42
   4   9   7    3.53    0.54
  -4   9  -7    4.69    0.51
  -5  -9  -7    0.70    0.30
   5  -9   7    0.98    0.23
   5  -9   7    1.10    0.26
   5  -9   7    0.63    0.31
   5   9   7    0.98    0.40
   5   9   7   -0.35    0.50
  -5   9  -7    0.81    0.31
  -6  -9  -7    0.24    0.31
   6  -9   7    0.59    0.27
   6  -9   7    0.04    0.35
   6   9   7    0.04    0.42
  -6   9  -7    0.27    0.34
   6   9   7    0.26    0.66
  -7  -9  -7    0.50    0.34
   7  -9   7   -0.04    0.41
   7  -9   7    0.41    0.40
   7   9   7    0.45    0.49
  -7   9  -7   -0.45    0.35
   7   9   7    0.05    0.45
  -8 -10   7    1.94    0.41
  -8 -10   7    1.71    0.37
   8  10  -7    1.95    0.49
  -8  10   7    1.77    0.45
  -7 -10   7    0.22    0.28
  -7 -10   7   -0.18    0.29
   7  10  -7   -0.03    0.31
  -7  10   7    0.18    0.35
   7  10  -7    0.24    0.38
  -6 -10   7    0.11    0.25
  -6 -10   7    0.06    0.24
   6  10  -7    0.00    0.37
   6  10  -7    0.09    0.34
  -6  10   7    0.43    0.32
   5 -10  -7    1.37    0.23
  -5 -10   7    2.09    0.29
  -5 -10   7    1.08    0.26
  -5  10   7    0.69    0.36
   5  10  -7    1.39    0.37
   5  10  -7    1.01    0.38
   5  10  -7    0.38    0.27
  -4 -10   7    0.30    0.20
  -4 -10   7    0.33    0.22
   4 -10  -7    0.71    0.24
   4  10  -7    0.10    0.24
   4  10  -7    0.30    0.32
  -4  10   7    0.06    0.30
  -3 -10   7    5.38    0.48
   3 -10  -7    5.33    0.50
  -3 -10   7    4.63    0.50
   3  10  -7    4.30    0.51
   3  10  -7    4.38    0.57
  -3  10   7    4.80    0.57
  -2 -10   7    3.80    0.41
  -2 -10   7    4.37    0.38
   2 -10  -7    3.59    0.43
  -2  10   7    3.55    0.44
  -2  10   7    3.32    0.47
  -2  10   7    3.25    0.40
   2  10  -7    3.82    0.45
   2  10  -7    4.34    0.50
  -1 -10   7    6.54    0.60
  -1 -10   7    6.31    0.57
   1 -10  -7    5.79    0.62
   1  10  -7    6.89    0.71
   1  10  -7    6.11    0.62
  -1  10   7    5.03    0.63
  -1  10   7    5.87    0.66
   0 -10   7    4.99    0.47
   0 -10  -7    4.25    0.52
   0 -10   7    5.22    0.45
   0  10  -7    4.69    0.57
   0  10   7    3.92    0.51
   0  10  -7    5.22    0.51
   0  10   7    4.09    0.53
   1 -10   7    0.57    0.20
  -1 -10  -7   -0.01    0.17
   1  10   7    0.05    0.36
  -1  10  -7   -0.08    0.31
   1  10   7    0.57    0.28
  -2 -10  -7    3.41    0.40
   2 -10   7    2.86    0.34
   2  10   7    2.38    0.40
   2  10   7    2.25    0.48
  -2  10  -7    3.43    0.42
   3 -10   7    0.36    0.20
  -3 -10  -7    0.35    0.27
   3  10   7    0.54    0.39
  -3  10  -7    0.32    0.25
   3  10   7    0.04    0.26
  -4 -10  -7    0.20    0.29
   4 -10   7    0.27    0.25
   4 -10   7   -0.15    0.18
  -4  10  -7    0.18    0.32
   4  10   7    0.43    0.65
  -5 -10  -7    2.79    0.43
   5 -10   7    2.17    0.35
   5  10   7    2.34    0.51
   5  10   7    2.30    0.53
  -5  10  -7    3.72    0.44
  -6 -10  -7    0.01    0.34
   6 -10   7   -0.16    0.31
   6 -10   7   -0.42    0.26
   6  10   7   -0.06    0.49
  -6  10  -7    0.45    0.37
   6  10   7   -0.38    0.44
  -8 -11   7    0.18    0.36
  -8 -11   7   -0.26    0.34
  -8  11   7    0.14    0.41
   8  11  -7    0.06    0.48
  -7 -11   7   -0.10    0.31
  -7 -11   7   -0.06    0.31
  -7  11   7    0.29    0.44
   7  11  -7    0.20    0.42
   7  11  -7    0.08    0.48
  -6 -11   7    1.09    0.28
  -6 -11   7    0.40    0.30
  -6  11   7    1.00    0.36
   6  11  -7    0.79    0.45
   6  11  -7    0.28    0.44
  -5 -11   7    0.83    0.23
   5 -11  -7    0.27    0.25
  -5 -11   7    0.46    0.26
   5  11  -7    0.01    0.33
  -5  11   7    0.36    0.36
   5  11  -7    0.21    0.39
  -4 -11   7    0.01    0.24
   4 -11  -7    0.16    0.22
  -4 -11   7    0.23    0.19
  -4  11   7    0.30    0.36
   4  11  -7    0.43    0.36
   4  11  -7    0.05    0.26
  -3 -11   7    1.16    0.32
  -3 -11   7    1.50    0.22
   3 -11  -7    1.30    0.27
  -3  11   7    0.79    0.30
   3  11  -7    0.84    0.29
   3  11  -7    1.29    0.45
  -2 -11   7    0.01    0.21
  -2 -11   7   -0.19    0.16
   2 -11  -7    0.08    0.31
   2  11  -7   -0.32    0.28
   2  11  -7    0.13    0.34
  -2  11   7    0.34    0.36
  -2  11   7    0.41    0.33
   1 -11  -7    0.04    0.26
  -1 -11   7    0.20    0.13
  -1 -11   7   -0.11    0.21
   1  11  -7    0.08    0.29
   1  11  -7    0.28    0.35
  -1  11   7   -0.19    0.35
  -1  11   7   -0.02    0.30
   0 -11   7    0.29    0.20
   0 -11  -7    0.30    0.27
   0  11   7    0.06    0.38
   0  11  -7    0.27    0.23
   0  11  -7    0.35    0.39
   0  11   7    0.07    0.31
   1 -11   7    0.06    0.23
  -1 -11  -7    0.23    0.28
   1  11   7   -0.31    0.36
  -1  11  -7    0.00    0.36
  -1  11  -7   -0.04    0.23
   1  11   7   -1.00    0.41
   2 -11   7    0.37    0.24
  -2 -11  -7    0.13    0.29
   2  11   7    1.23    0.64
   2  11   7   -0.26    0.37
  -2  11  -7    0.20    0.31
  -3 -11  -7    0.22    0.31
   3 -11   7    0.49    0.25
   3  11   7    0.11    0.30
  -3  11  -7    0.44    0.38
   4 -11   7    2.14    0.32
  -4 -11  -7    1.82    0.40
  -4  11  -7    2.09    0.44
   4  11   7    0.85    0.52
  -5 -11  -7    0.00    0.35
   5  11   7    0.67    0.48
  -5  11  -7    0.03    0.32
   5  11   7    0.73    0.62
  -6 -11  -7    0.30    0.40
   6  11   7   -0.67    0.50
   6  11   7    0.03    0.64
  -6  11  -7   -0.19    0.33
  -7 -12   7    0.06    0.32
  -7 -12   7   -0.15    0.36
   7  12  -7   -0.18    0.46
  -7  12   7   -0.37    0.47
   7  12  -7    0.33    0.49
  -6 -12   7    0.27    0.28
  -6 -12   7    0.02    0.31
  -6  12   7    0.24    0.36
   6  12  -7   -0.37    0.41
   6  12  -7    0.01    0.46
  -5 -12   7    0.43    0.24
  -5 -12   7    0.25    0.36
  -5  12   7    0.26    0.42
   5  12  -7    0.55    0.42
   5  12  -7    0.73    0.38
   4 -12  -7   -0.03    0.30
  -4 -12   7    0.00    0.20
  -4 -12   7   -0.08    0.26
  -4  12   7    0.06    0.39
   4  12  -7   -0.31    0.47
  -3 -12   7    2.12    0.28
  -3 -12   7    2.08    0.34
   3 -12  -7    1.91    0.34
   3  12  -7    2.12    0.45
  -3  12   7    1.60    0.46
  -2 -12   7    1.19    0.28
   2 -12  -7    1.37    0.32
   2  12  -7    0.64    0.34
  -2  12   7    1.25    0.45
  -2  12   7    0.98    0.38
   2  12  -7    1.26    0.42
   1 -12  -7    4.06    0.51
  -1 -12   7    4.34    0.49
   1  12  -7    4.71    0.56
   1  12  -7    4.34    0.50
  -1  12   7    3.94    0.62
   0 -12  -7    0.29    0.31
   0 -12   7    0.79    0.25
   0  12  -7    0.32    0.44
   0  12   7    0.15    0.36
   0  12  -7    0.32    0.24
   0  12   7    0.80    0.44
   1 -12   7    2.84    0.35
  -1 -12  -7    2.50    0.42
  -1  12  -7    2.25    0.37
   1  12   7    1.98    0.51
   1  12   7    2.11    0.57
  -1  12  -7    2.97    0.50
  -2 -12  -7    0.21    0.33
   2 -12   7   -0.06    0.23
   2  12   7    0.25    0.44
  -2  12  -7    0.20    0.41
   2  12   7    0.35    0.47
  -3 -12  -7    1.43    0.35
   3 -12   7    2.57    0.34
   3  12   7    1.74    0.54
  -3  12  -7    2.82    0.45
  -4 -12  -7    0.13    0.27
   4  12   7   -0.30    0.52
  -4  12  -7   -0.49    0.42
  -5 -12  -7    0.53    0.43
   5  12   7    0.79    0.56
  -5  12  -7    0.93    0.38
   5  12   7   -0.21    0.69
  -6 -13   7    0.02    0.45
  -6  13   7   -0.11    0.51
   6  13  -7    0.80    0.47
   6  13  -7    0.53    0.51
  -5 -13   7    1.00    0.36
   5  13  -7    1.51    0.62
   5  13  -7    1.26    0.45
  -5  13   7    0.56    0.48
   4 -13  -7    1.86    0.34
  -4 -13   7    1.68    0.37
  -4  13   7    1.03    0.51
   4  13  -7    1.46    0.49
   3 -13  -7   -0.03    0.36
  -3 -13   7    0.11    0.29
   3  13  -7   -0.46    0.42
  -3  13   7   -0.34    0.43
   2 -13  -7    0.83    0.34
  -2 -13   7    0.73    0.35
   2  13  -7    0.65    0.54
  -2  13   7    0.79    0.44
  -2  13   7    0.67    0.50
   1 -13  -7    2.94    0.43
  -1 -13   7    2.82    0.41
  -1  13   7    1.56    0.50
   1  13  -7    2.50    0.53
  -1  13   7    1.24    0.53
   0 -13  -7    2.95    0.49
   0 -13   7    3.41    0.43
   0  13   7    3.17    0.58
   0  13   7    3.14    0.63
   0  13  -7    2.82    0.47
   0  13  -7    4.61    0.62
   1 -13   7   -0.18    0.32
  -1 -13  -7    0.03    0.38
   1  13   7   -0.26    0.42
  -1  13  -7    0.27    0.34
  -1  13  -7   -0.06    0.44
   1  13   7   -0.81    0.55
   2 -13   7    5.32    0.51
  -2 -13  -7    3.65    0.59
  -2  13  -7    5.32    0.62
   2  13   7    3.32    0.59
  -2  13  -7    3.78    0.52
  -3 -13  -7    1.05    0.44
   3 -13   7    0.81    0.34
   3  13   7    0.63    0.57
  -3  13  -7    0.85    0.51
  -4 -13  -7    1.96    1.38
  -4  13  -7    1.76    0.47
   4  13   7    1.06    0.44
   4 -14  -7    0.73    0.33
  -4 -14   7   -0.02    0.44
  -4  14   7    0.33    0.43
   4  14  -7   -0.01    0.49
  -3 -14   7    1.55    0.37
   3 -14  -7    1.07    0.44
   3  14  -7    2.10    0.62
  -3  14   7    0.59    0.52
  -3  14   7    0.87    0.40
  -2 -14   7    2.09    0.46
   2 -14  -7    2.43    0.44
  -2  14   7    2.13    0.48
  -2  14   7    1.73    0.55
   2  14  -7    2.05    0.54
   1 -14  -7    3.34    0.53
  -1 -14   7    3.89    0.49
  -1  14   7    4.27    0.72
  -1  14   7    3.26    0.66
   1  14  -7    3.63    0.65
   0 -14   7    0.61    0.32
   0 -14  -7    1.01    0.41
   0  14   7    0.80    0.58
   0  14  -7   -0.06    0.52
   0  14   7   -0.05    0.50
   1 -14   7    0.33    0.39
  -1 -14  -7   -0.53    0.42
   1  14   7   -0.19    0.51
  -1  14  -7    0.66    0.43
   1  14   7   -0.47    0.65
   2 -14   7    0.47    0.31
  -2 -14  -7   -0.49    0.44
  -2  14  -7    0.78    0.51
   2  14   7    0.79    0.45
  -2  14  -7   -0.56    0.40
 -11   0   8   -0.04    0.38
  11   0  -8   -0.09    0.30
 -10   0   8    8.15    0.81
  10   0  -8    7.77    0.84
   9   0  -8    0.19    0.26
  -9   0   8    0.14    0.20
  -8   0   8    4.36    0.43
   8   0  -8    4.93    0.48
   7   0  -8   -0.09    0.16
  -7   0   8   -0.07    0.18
  -7   0   8   -0.01    0.12
   6   0  -8    0.79    0.23
   6   0  -8    0.70    0.16
  -6   0   8    0.46    0.17
   5   0  -8    0.07    0.10
   5   0  -8   -0.11    0.18
  -5   0   8    0.01    0.13
  -5   0   8    0.03    0.05
  -5   0   8   -0.04    0.13
  -5   0   8    0.01    0.05
  -4   0   8    4.27    0.39
   4   0  -8    4.75    0.43
  -4   0   8    4.09    0.44
  -4   0   8    4.44    0.42
   4   0  -8    3.59    0.37
  -3   0   8    0.08    0.10
  -3   0   8   -0.03    0.11
   3   0  -8    0.01    0.06
  -3   0   8    0.01    0.11
  -3   0   8    0.07    0.08
   3   0  -8    0.15    0.14
  -3   0   8   -0.10    0.07
   3   0  -8    0.08    0.07
  -2   0   8  121.13   10.68
   2   0  -8  113.21   10.58
  -2   0   8  114.89   10.52
   2   0  -8  121.24   11.28
  -2   0   8  132.24   16.29
  -2   0   8  139.26   14.98
  -2   0   8  137.87   11.61
  -1   0   8   -0.02    0.05
   1   0  -8    0.01    0.11
  -1   0   8   -0.07    0.11
  -1   0   8   -0.06    0.09
   1   0  -8   -0.09    0.10
  -1   0   8    0.04    0.11
   0   0  -8   73.14    7.87
   0   0   8   83.54    8.14
   0   0  -8   80.88    8.19
   0   0   8   96.39    8.89
   0   0   8   92.41    8.70
   1   0   8   -0.13    0.13
  -1   0  -8    0.36    0.14
   1   0   8    0.07    0.09
   1   0   8   -0.06    0.07
  -1   0  -8    0.09    0.14
   2   0   8   24.01    2.12
   2   0   8   17.23    1.95
   2   0   8   21.48    2.02
   3   0   8   -0.01    0.16
  -3   0  -8    0.09    0.04
   3   0   8   -0.23    0.15
   4   0   8    0.37    0.22
  -4   0  -8    0.45    0.08
   4   0   8    0.31    0.20
   5   0   8   -0.32    0.21
  -5   0  -8   -0.01    0.04
  -5   0  -8   -0.01    0.10
   5   0   8   -0.29    0.24
   6   0   8    7.94    0.70
  -6   0  -8    6.31    0.60
   6   0   8    5.97    0.68
   7   0   8   -0.04    0.37
   7   0   8   -0.02    0.37
   8   0   8    1.68    0.95
   8   0   8    2.75    0.44
   9   0   8   -0.23    0.45
   9   0   8    0.35    0.49
 -11  -1   8    0.42    0.39
  11  -1  -8    0.09    0.37
  11   1  -8    0.21    0.41
 -11   1   8    0.47    0.38
 -10  -1   8   -0.17    0.30
  10  -1  -8    0.19    0.32
 -10   1   8   -0.02    0.24
  10   1  -8    0.44    0.29
  -9  -1   8   -0.02    0.25
   9  -1  -8    0.18    0.26
  -9   1   8   -0.16    0.24
   9   1  -8    0.34    0.27
  -8  -1   8    0.38    0.13
   8  -1  -8    0.80    0.22
  -8  -1   8    0.81    0.19
  -8   1   8    0.51    0.21
  -8   1   8    0.50    0.13
   8   1  -8    0.64    0.19
  -7  -1   8    8.58    0.83
  -7  -1   8   10.55    0.86
   7  -1  -8    9.41    0.94
  -7   1   8    8.24    0.82
   7   1  -8    9.75    0.93
  -7   1   8   10.31    0.87
  -7   1   8    9.74    0.92
   6  -1  -8    0.02    0.21
  -6  -1   8    0.10    0.12
  -6  -1   8    0.07    0.15
   6  -1  -8   -0.04    0.12
  -6  -1   8    0.21    0.20
   6   1  -8    0.23    0.13
  -6   1   8    0.13    0.15
   6   1  -8    0.18    0.22
  -6   1   8    0.08    0.07
  -6   1   8    0.07    0.07
   5  -1  -8    6.22    0.63
  -5  -1   8    6.00    0.61
  -5  -1   8    6.16    0.57
   5  -1  -8    5.75    0.56
   5   1  -8    6.17    0.57
   5   1  -8    6.63    0.59
  -5   1   8    6.24    0.57
  -5   1   8    6.75    0.65
  -5   1   8    5.93    0.61
   4  -1  -8    1.83    0.19
  -4  -1   8    1.84    0.21
   4  -1  -8    1.48    0.27
  -4  -1   8    1.99    0.24
  -4  -1   8    1.61    0.17
  -4  -1   8    1.78    0.22
   4  -1  -8    1.98    0.25
   4   1  -8    2.00    0.22
  -4   1   8    1.60    0.21
  -4   1   8    1.84    0.21
  -4   1   8    2.20    0.24
   4   1  -8    1.89    0.19
  -3  -1   8    0.43    0.14
  -3  -1   8    0.56    0.12
  -3  -1   8    0.54    0.16
  -3  -1   8    0.48    0.09
   3  -1  -8    0.57    0.12
   3  -1  -8    0.48    0.15
  -3  -1   8    0.50    0.09
   3   1  -8    0.53    0.13
   3   1  -8    0.48    0.09
   3   1  -8    0.68    0.07
  -3   1   8    0.61    0.10
  -3   1   8    0.25    0.09
  -3   1   8    0.39    0.12
  -3   1   8    0.48    0.13
   3   1  -8    0.39    0.15
  -2  -1   8    3.60    0.30
  -2  -1   8    2.95    0.29
  -2  -1   8    2.80    0.27
   2  -1  -8    2.95    0.30
  -2  -1   8    3.29    0.32
   2  -1  -8    2.48    0.33
  -2  -1   8    2.77    0.30
  -2   1   8    2.97    0.30
   2   1  -8    2.66    0.30
   2   1  -8    2.80    0.29
  -2   1   8    2.54    0.29
  -2   1   8    3.18    0.35
  -2   1   8    2.65    0.27
   1  -1  -8    0.11    0.11
  -1  -1   8    0.07    0.11
  -1  -1   8    0.07    0.11
   1  -1  -8   -0.01    0.12
  -1  -1   8    0.11    0.11
  -1  -1   8    0.19    0.12
  -1   1   8    0.16    0.07
  -1   1   8    0.25    0.12
   1   1  -8    0.39    0.12
  -1   1   8    0.11    0.08
  -1   1   8    0.17    0.10
   1   1  -8    0.20    0.10
   0  -1   8   38.73    3.56
   0  -1  -8   37.20    3.77
   0  -1  -8   37.24    3.80
   0  -1   8   44.57    4.09
   0  -1   8   43.14    4.04
   0   1   8   39.22    3.86
   0   1  -8   38.59    3.64
   0   1   8   45.30    4.95
   0   1  -8   37.77    3.93
   0   1  -8   38.25    3.78
   1  -1   8   50.84    4.56
  -1  -1  -8   44.60    5.23
  -1  -1  -8   47.83    4.62
   1  -1   8   55.96    5.10
   1  -1   8   51.09    4.92
  -1   1  -8   45.89    5.00
  -1   1  -8   45.92    4.63
  -1   1  -8   44.79    4.71
   1   1   8   49.57    5.42
   1   1   8   49.70    4.43
   1   1   8   55.07    6.57
   1   1   8   59.83    5.19
   2  -1   8    8.19    0.79
   2  -1   8    7.51    0.75
   2  -1   8    9.17    0.85
   2  -1   8    7.81    0.93
   2   1   8    7.87    0.77
   2   1   8    8.46    0.75
   2   1   8    6.24    0.74
  -2   1  -8    7.25    0.74
   3  -1   8    5.64    0.65
   3  -1   8    7.42    0.74
   3   1   8    6.63    0.62
  -3   1  -8    6.56    0.63
   3   1   8    7.53    0.66
   4  -1   8    0.29    0.21
   4  -1   8   -0.11    0.18
   4   1   8   -0.06    0.20
   4   1   8   -0.19    0.24
  -4   1  -8    0.12    0.10
   5  -1   8    3.47    0.44
   5  -1   8    3.90    0.43
   5   1   8    3.20    0.42
   5   1   8    3.20    0.44
  -5   1  -8    3.99    0.36
   6  -1   8    0.52    0.26
   6  -1   8    1.40    0.35
   6   1   8    1.00    0.43
  -6   1  -8    1.12    0.19
   6   1   8    1.36    0.34
   7  -1   8    0.17    0.33
   7  -1   8   -0.32    0.36
   7   1   8    0.22    0.29
   7   1   8    0.29    0.37
   8  -1   8    0.12    0.35
   8  -1   8    0.81    0.34
   8   1   8    0.08    0.46
   8   1   8    1.45    0.37
   9  -1   8   -0.08    0.43
   9  -1   8    0.86    0.58
   9   1   8   -0.19    0.53
   9   1   8   -0.25    0.47
  11  -2  -8    0.25    0.38
 -11  -2   8    0.02    0.31
 -11   2   8    0.07    0.44
  11   2  -8    0.12    0.32
 -11   2   8   -0.27    0.37
  10  -2  -8   -0.04    0.25
 -10  -2   8    0.03    0.31
 -10   2   8   -0.31    0.29
  10   2  -8    0.15    0.34
 -10   2   8   -0.27    0.35
  -9  -2   8   -0.04    0.26
   9  -2  -8    0.10    0.20
   9   2  -8   -0.24    0.28
  -9   2   8   -0.07    0.24
   8  -2  -8   -0.06    0.19
  -8  -2   8    0.07    0.16
  -8  -2   8   -0.06    0.17
  -8   2   8   -0.02    0.20
   8   2  -8    0.00    0.19
   7  -2  -8    0.02    0.15
  -7  -2   8    0.04    0.13
  -7  -2   8   -0.06    0.18
  -7   2   8    0.19    0.17
   7   2  -8    0.29    1.24
   7   2  -8    0.33    0.26
  -7   2   8    0.15    0.10
  -6  -2   8    1.87    0.24
  -6  -2   8    1.61    0.22
  -6  -2   8    2.38    0.26
   6  -2  -8    1.75    0.30
  -6   2   8    1.84    0.19
   6   2  -8    1.99    0.24
   6   2  -8    1.45    0.29
  -6   2   8    1.37    0.22
  -6   2   8    1.24    0.17
  -5  -2   8    6.94    0.61
   5  -2  -8    6.85    0.67
  -5  -2   8    6.52    0.70
  -5  -2   8    5.56    0.59
   5  -2  -8    6.70    0.60
  -5   2   8    6.56    0.60
   5   2  -8    7.25    0.65
  -5   2   8    7.25    0.63
  -5   2   8    5.98    0.64
   5   2  -8    6.52    0.61
   4  -2  -8    0.05    0.16
  -4  -2   8   -0.01    0.10
  -4  -2   8   -0.01    0.04
   4  -2  -8    0.28    0.11
  -4  -2   8    0.04    0.12
  -4   2   8   -0.02    0.08
  -4   2   8   -0.06    0.13
  -4   2   8    0.12    0.11
   4   2  -8   -0.03    0.17
   4   2  -8    0.00    0.05
   4   2  -8    0.05    0.08
  -3  -2   8    0.86    0.16
  -3  -2   8    0.74    0.18
  -3  -2   8    0.80    0.14
  -3  -2   8    0.87    0.11
   3  -2  -8    0.93    0.17
  -3  -2   8    0.63    0.10
  -3   2   8    0.55    0.15
  -3   2   8    1.00    0.14
   3   2  -8    1.13    0.17
  -3   2   8    0.70    0.12
   3   2  -8    0.91    0.10
   3   2  -8    0.70    0.18
   3   2  -8    0.78    0.09
  -3   2   8    0.91    0.13
   2  -2  -8    0.46    0.13
  -2  -2   8    0.23    0.10
  -2  -2   8    0.32    0.09
   2  -2  -8    0.20    0.11
  -2  -2   8    0.41    0.15
  -2  -2   8    0.47    0.15
   2   2  -8    0.03    0.10
  -2   2   8    0.26    0.10
   2   2  -8    0.16    0.13
  -2   2   8    0.22    0.11
  -2   2   8    0.39    0.12
   2   2  -8    0.16    0.10
  -2   2   8    0.14    0.10
  -2   2   8    0.34    0.08
  -1  -2   8    0.11    0.09
   1  -2  -8    0.03    0.11
  -1  -2   8    0.11    0.11
  -1  -2   8    0.18    0.11
   1  -2  -8    0.18    0.11
   1   2  -8    0.03    0.12
  -1   2   8    0.10    0.10
   1   2  -8    0.02    0.14
  -1   2   8    0.15    0.11
   1   2  -8    0.00    0.10
  -1   2   8    0.03    0.11
   0  -2   8    0.33    0.12
   0  -2   8    0.51    0.13
   0  -2   8    0.32    0.05
   0  -2  -8    0.57    0.15
   0  -2  -8    0.24    0.12
   0   2  -8    0.45    0.13
   0   2  -8    0.56    0.12
   0   2   8    0.63    0.14
   0   2   8    0.41    0.14
   0   2  -8    0.48    0.12
   0   2   8    0.34    0.06
   0   2   8    0.39    0.08
   1  -2   8    1.76    0.20
  -1  -2  -8    1.47    0.19
  -1  -2  -8    1.19    0.22
   1  -2   8    1.38    0.16
   1  -2   8    1.62    0.20
   1   2   8    1.39    0.21
  -1   2  -8    1.35    0.19
  -1   2  -8    1.58    0.19
   1   2   8    1.64    0.20
  -1   2  -8    1.57    0.20
  -2  -2  -8    2.54    0.28
   2  -2   8    2.75    0.29
   2  -2   8    2.94    0.30
   2  -2   8    2.32    0.27
   2  -2   8    3.31    0.30
  -2   2  -8    2.16    0.26
  -2   2  -8    2.52    0.28
   2   2   8    2.60    0.29
   2   2   8    2.62    0.30
   3  -2   8    1.11    0.22
   3  -2   8    1.40    0.20
   3  -2   8    1.55    0.21
  -3   2  -8    1.43    0.21
  -3   2  -8    1.56    0.47
   3   2   8    1.26    0.27
   3   2   8    1.29    0.23
   4  -2   8    0.88    0.23
   4  -2   8    0.61    0.21
   4   2   8    0.34    0.23
   4   2   8    0.44    0.22
  -4   2  -8    0.51    0.13
  -4   2  -8    0.71    0.59
   5  -2   8    6.13    0.60
   5  -2   8    4.76    0.57
  -5   2  -8    6.26    0.56
   5   2   8    5.72    0.60
   5   2   8    5.97    0.60
   6  -2   8    0.61    0.30
   6  -2   8    0.10    0.36
   6   2   8   -0.57    0.33
   6   2   8    0.05    0.32
  -6   2  -8    0.17    0.16
   7  -2   8    3.63    0.43
   7  -2   8    2.64    0.46
   7   2   8    2.79    0.47
   7   2   8    2.55    0.51
   8  -2   8    0.39    0.41
   8  -2   8    0.53    0.31
   8   2   8    0.49    0.43
   8   2   8    0.74    0.48
   9  -2   8    0.25    0.39
   9  -2   8    0.60    0.45
   9   2   8    0.52    0.51
   9   2   8    0.61    0.59
  11  -3  -8   -0.28    0.32
 -11  -3   8    0.13    0.39
  11   3  -8   -0.03    0.28
 -11   3   8    0.61    0.45
 -11   3   8    0.63    0.38
  10  -3  -8    0.18    0.25
 -10  -3   8   -0.10    0.26
  10   3  -8    0.08    0.35
 -10   3   8   -0.20    0.29
 -10   3   8    0.22    0.36
  -9  -3   8   -0.12    0.18
   9  -3  -8    0.08    0.21
  -9  -3   8   -0.14    0.27
  -9   3   8   -0.12    0.29
  -9   3   8    0.05    0.24
   9   3  -8   -0.01    0.28
  -8  -3   8    0.41    0.24
  -8  -3   8    0.19    0.19
   8  -3  -8    0.37    0.21
  -8   3   8    0.00    0.20
  -8   3   8    0.22    0.24
   8   3  -8    0.87    0.25
  -7  -3   8    0.39    0.17
   7  -3  -8    0.45    0.18
  -7  -3   8    0.39    0.16
   7   3  -8    1.52    2.14
  -7   3   8    0.46    0.17
   7   3  -8    0.13    0.26
  -6  -3   8    1.55    0.27
   6  -3  -8    2.19    0.23
  -6  -3   8    1.74    0.22
  -6  -3   8    1.74    0.24
  -6   3   8    1.70    0.32
  -6   3   8    1.69    0.19
  -6   3   8    1.33    0.19
   6   3  -8    2.13    0.23
   6   3  -8    1.50    0.29
  -5  -3   8   13.64    1.21
  -5  -3   8   13.36    1.23
   5  -3  -8   15.70    1.36
   5  -3  -8   13.04    1.23
   5   3  -8   13.55    1.31
  -5   3   8   13.33    1.22
  -5   3   8   13.61    1.25
  -5   3   8   15.13    1.36
   5   3  -8   15.09    1.28
   4  -3  -8    0.03    0.11
   4  -3  -8   -0.03    0.11
  -4  -3   8    0.26    0.14
  -4   3   8    0.01    0.10
  -4   3   8    0.30    0.12
   4   3  -8    0.07    0.06
   4   3  -8    0.04    0.09
   4   3  -8   -0.38    0.17
  -4   3   8    0.04    0.13
  -4   3   8   -0.03    0.09
  -3  -3   8   15.35    1.39
  -3  -3   8   14.67    1.34
  -3  -3   8   14.02    1.16
   3  -3  -8   13.07    1.27
  -3  -3   8   11.15    1.15
   3   3  -8   14.08    1.34
  -3   3   8   13.09    1.29
  -3   3   8   11.58    1.16
   3   3  -8   13.99    1.19
  -3   3   8   12.92    1.34
  -3   3   8   14.58    1.16
  -3   3   8   13.55    1.27
   3   3  -8   14.19    1.37
   3   3  -8   11.69    1.18
   3   3  -8   14.30    1.32
  -2  -3   8   23.27    1.83
  -2  -3   8   20.41    1.92
  -2  -3   8   22.51    2.32
   2  -3  -8   19.35    1.82
   2   3  -8   21.09    1.97
  -2   3   8   20.60    1.88
  -2   3   8   20.11    1.80
  -2   3   8   21.58    2.00
   2   3  -8   18.54    1.77
   2   3  -8   24.84    1.90
  -2   3   8   18.23    1.79
  -2   3   8   20.54    1.98
  -2   3   8   22.49    2.66
   2   3  -8   20.96    2.24
   1  -3  -8    4.77    0.77
  -1  -3   8    6.90    0.57
   1  -3  -8    5.70    0.57
  -1  -3   8    7.23    0.60
  -1  -3   8    6.26    0.59
   1   3  -8    5.40    0.64
   1   3  -8    7.03    0.66
   1   3  -8    6.24    0.59
  -1   3   8    6.63    0.71
  -1   3   8    5.58    0.58
  -1   3   8    5.30    0.59
  -1   3   8    6.50    0.63
   0  -3  -8    7.20    0.74
   0  -3  -8    7.09    0.79
   0  -3   8    8.91    0.77
   0  -3   8    9.13    0.82
   0   3  -8    8.18    0.85
   0   3   8    8.60    0.84
   0   3  -8    8.16    0.79
   0   3   8    8.21    0.75
   0   3  -8    7.68    0.78
   0   3   8    9.16    0.91
   1  -3   8    0.28    0.13
   1  -3   8    0.26    0.14
  -1  -3  -8    0.11    0.11
   1  -3   8    0.08    0.08
  -1   3  -8    0.24    0.13
   1   3   8    0.32    0.15
  -1   3  -8    0.26    0.12
   1   3   8    0.07    0.06
  -1   3  -8    0.22    0.08
   2  -3   8   14.77    1.52
   2  -3   8   13.67    1.35
   2  -3   8   13.25    1.48
   2  -3   8   15.94    1.23
  -2  -3  -8   11.44    1.21
   2   3   8   13.25    1.33
  -2   3  -8   12.13    1.30
  -2   3  -8   13.06    1.31
   2   3   8   11.62    1.38
   3  -3   8   40.10    3.85
   3  -3   8   42.36    4.43
   3  -3   8   49.94    4.50
  -3   3  -8   39.56    3.81
   3   3   8   39.08    3.95
   3   3   8   39.33    4.20
  -3   3  -8   34.36    4.07
   4  -3   8    0.07    0.20
   4  -3   8    0.10    0.22
   4  -3   8    0.46    0.17
   4   3   8    0.27    0.25
   4   3   8   -0.24    0.22
  -4   3  -8    0.11    0.15
   5  -3   8    7.20    0.73
   5  -3   8    7.37    0.76
   5   3   8    7.06    0.82
   5   3   8    6.79    0.75
  -5   3  -8    7.96    0.71
   6  -3   8   12.10    1.41
   6  -3   8   12.64    1.20
  -6   3  -8   14.45    1.27
   6   3   8   12.00    1.19
   6   3   8   12.02    1.29
   7  -3   8    0.04    0.34
   7  -3   8    0.30    0.32
   7   3   8    0.11    0.38
   7   3   8    0.38    0.43
   8  -3   8    0.31    0.30
   8  -3   8    0.40    0.43
   8   3   8    0.35    0.43
   8   3   8    0.27    0.43
   9  -3   8    0.07    0.38
   9  -3   8    0.84    0.47
   9   3   8   -0.06    0.47
   9   3   8    0.17    0.50
  11  -4  -8   -0.38    0.40
 -11  -4   8    0.51    0.88
 -11   4   8    0.30    0.37
  11   4  -8    0.04    0.49
 -11   4   8   -0.42    0.45
 -10  -4   8    2.24    0.40
  10  -4  -8    1.75    0.38
  10   4  -8    1.92    0.36
 -10   4   8    2.18    0.43
 -10   4   8    0.86    0.34
  -9  -4   8    0.12    0.20
   9  -4  -8    0.25    0.27
  -9  -4   8    0.08    0.28
   9   4  -8    0.15    0.31
  -9   4   8   -0.05    0.24
  -9   4   8    0.11    0.37
   8  -4  -8    4.46    0.51
  -8  -4   8    4.55    0.48
  -8  -4   8    5.59    0.51
  -8   4   8    4.99    0.52
   8   4  -8    5.32    0.55
  -8   4   8    4.34    0.54
  -7  -4   8    0.82    0.22
  -7  -4   8    0.34    0.17
   7  -4  -8    0.54    0.19
   7   4  -8    0.70    0.28
  -7   4   8    0.55    0.28
  -7   4   8    0.15    0.17
   7   4  -8    0.48    0.21
  -6  -4   8    4.43    0.45
  -6  -4   8    4.97    0.45
   6  -4  -8    4.61    0.44
  -6   4   8    4.83    0.46
   6   4  -8    5.38    0.50
   6   4  -8    3.76    0.45
  -6   4   8    3.76    0.43
  -6   4   8    4.48    0.47
  -6   4   8    5.40    0.53
  -5  -4   8    0.06    0.14
   5  -4  -8   -0.01    0.13
  -5  -4   8   -0.01    0.13
  -5   4   8    0.07    0.15
   5   4  -8    0.07    0.11
  -5   4   8   -0.07    0.19
   5   4  -8   -0.29    0.20
  -5   4   8   -0.22    0.12
  -5   4   8   -0.30    0.11
  -4  -4   8    4.08    0.40
   4  -4  -8    4.23    0.42
  -4  -4   8    4.43    0.40
  -4   4   8    3.84    0.42
  -4   4   8    4.47    0.40
   4   4  -8    4.16    0.40
  -4   4   8    3.36    0.40
   4   4  -8    4.49    0.44
  -4   4   8    4.79    0.44
  -4   4   8    3.67    0.39
   4   4  -8    4.22    0.43
   3  -4  -8    0.10    0.14
  -3  -4   8    0.12    0.07
  -3  -4   8    0.14    0.12
   3   4  -8    0.30    0.09
   3   4  -8    0.05    0.19
   3   4  -8    0.13    0.17
  -3   4   8    0.22    0.13
  -3   4   8    0.33    0.17
   3   4  -8    0.31    0.09
  -3   4   8    0.29    0.12
  -3   4   8    0.11    0.13
  -3   4   8    0.12    0.10
  -3   4   8    0.03    0.12
   2  -4  -8   38.85    3.76
  -2  -4   8   41.74    3.67
  -2  -4   8   49.37    4.32
  -2  -4   8   38.39    3.70
   2   4  -8   40.38    3.99
   2   4  -8   46.40    3.76
   2   4  -8   41.00    4.37
   2   4  -8   42.03    3.98
  -2   4   8   43.92    4.13
  -2   4   8   38.62    3.65
  -2   4   8   42.69    4.11
  -2   4   8   43.35    5.11
  -2   4   8   43.97    3.63
  -2   4   8   40.23    4.02
  -1  -4   8    1.23    0.16
  -1  -4   8    0.90    0.15
   1  -4  -8    1.08    0.16
  -1  -4   8    1.23    0.19
  -1   4   8    0.94    0.17
   1   4  -8    1.23    0.14
   1   4  -8    0.99    0.20
   1   4  -8    1.21    0.10
   1   4  -8    1.05    0.18
  -1   4   8    1.02    0.19
  -1   4   8    0.92    0.16
  -1   4   8    0.64    0.16
   0  -4  -8   25.40    2.86
   0  -4   8   29.64    2.84
   0  -4   8   32.11    2.82
   0  -4   8   32.74    2.82
   0   4  -8   29.33    2.92
   0   4   8   28.78    2.95
   0   4  -8   30.30    2.72
   0   4  -8   28.83    2.81
   0   4  -8   29.10    3.06
   0   4   8   27.28    2.57
   1  -4   8    8.54    0.71
   1  -4   8    6.79    0.61
   1  -4   8    7.02    0.73
  -1  -4  -8    5.97    0.65
  -1   4  -8    7.26    0.69
   1   4   8    6.68    0.65
  -1   4  -8    7.75    0.76
   1   4   8    6.13    0.60
   2  -4   8   36.28    3.45
   2  -4   8   33.09    3.80
   2  -4   8   28.28    2.77
   2  -4   8   33.00    3.04
  -2  -4  -8   27.98    2.79
  -2   4  -8   29.68    2.94
  -2   4  -8   29.92    2.94
   2   4   8   28.05    2.98
   3  -4   8    2.35    0.37
   3  -4   8    3.35    0.40
   3  -4   8    3.13    0.33
  -3  -4  -8    3.10    0.32
  -3   4  -8    3.01    0.34
   3   4   8    3.21    0.39
  -3   4  -8    3.86    0.35
   3   4   8    3.12    0.59
   4  -4   8    4.26    0.50
   4  -4   8    3.67    0.40
   4  -4   8    3.60    0.42
   4   4   8    3.28    0.44
  -4   4  -8    4.48    0.40
   4   4   8    3.16    0.46
   5  -4   8    7.74    0.77
   5  -4   8    8.13    0.88
   5   4   8    7.34    0.82
  -5   4  -8    9.10    0.80
   5   4   8    7.57    0.82
   6  -4   8    1.33    0.33
   6  -4   8    1.39    0.29
   6   4   8    2.33    0.37
   6   4   8    2.25    0.42
  -6   4  -8    2.03    0.31
   7  -4   8    0.04    0.33
   7  -4   8    0.54    0.28
   7   4   8    0.09    0.44
   7   4   8   -0.07    0.32
  -7   4  -8    0.45    0.25
   8  -4   8    2.26    0.40
   8  -4   8    2.16    0.46
   8   4   8    1.12    0.59
   8   4   8    1.97    0.42
 -11   5   8   -0.30    0.47
 -10  -5   8    0.39    0.35
  10  -5  -8    0.24    0.33
  10   5  -8    0.00    0.36
 -10   5   8    0.17    0.38
 -10   5   8   -0.17    0.29
   9  -5  -8    0.18    0.28
  -9  -5   8    0.31    0.29
  -9  -5   8    2.03    0.46
   9   5  -8    0.34    0.35
  -9   5   8    0.17    0.25
  -9   5   8    0.38    0.32
   8  -5  -8   -0.07    0.17
  -8  -5   8   -0.03    0.21
  -8  -5   8   -0.18    0.24
   8   5  -8    0.04    0.25
  -8   5   8    0.06    0.27
   8   5  -8   -0.03    0.26
  -8   5   8    0.31    0.24
   7  -5  -8    0.16    0.19
  -7  -5   8    0.04    0.21
  -7  -5   8    0.29    0.19
  -7   5   8    0.17    0.24
  -7   5   8    0.52    0.21
   7   5  -8    0.02    0.22
   7   5  -8    0.44    0.28
  -6  -5   8    3.42    0.36
   6  -5  -8    3.88    0.37
  -6  -5   8    4.04    0.38
   6   5  -8    3.03    0.41
  -6   5   8    2.79    0.36
   6   5  -8    3.69    0.37
  -6   5   8    2.68    0.42
  -6   5   8    2.93    0.42
  -5  -5   8   14.57    1.29
  -5  -5   8   14.65    1.32
   5  -5  -8   15.68    1.32
   5   5  -8   15.87    1.39
  -5   5   8   14.26    1.39
  -5   5   8   14.28    1.33
   5   5  -8   13.66    1.49
   5   5  -8   14.10    1.37
   5   5  -8   15.06    1.40
  -5   5   8   13.98    1.49
  -4  -5   8    2.56    0.29
  -4  -5   8    2.91    0.30
   4   5  -8    2.88    0.33
   4   5  -8    3.01    0.28
  -4   5   8    2.61    0.32
   4   5  -8    3.00    0.35
  -4   5   8    2.37    0.32
  -4   5   8    2.89    0.30
  -4   5   8    2.48    0.30
  -3  -5   8   27.79    2.30
   3  -5  -8   24.01    2.42
  -3  -5   8   27.06    2.29
   3   5  -8   27.69    2.54
   3   5  -8   27.96    2.68
  -3   5   8   25.04    2.45
  -3   5   8   24.87    2.74
  -3   5   8   25.89    2.82
  -3   5   8   25.18    2.51
  -3   5   8   25.78    2.33
   3   5  -8   27.06    2.33
   3   5  -8   25.79    2.54
  -2  -5   8    7.52    0.69
   2  -5  -8    6.64    0.64
  -2  -5   8    7.13    0.62
  -2  -5   8    6.91    0.61
  -2   5   8    7.25    0.64
   2   5  -8    6.75    0.64
  -2   5   8    6.08    0.65
   2   5  -8    7.81    0.79
  -2   5   8    5.83    0.65
  -2   5   8    6.14    0.65
  -2   5   8    6.28    0.74
   2   5  -8    7.79    0.66
   2   5  -8    7.94    0.71
   1  -5  -8    1.15    0.16
  -1  -5   8    0.87    0.22
  -1  -5   8    1.21    0.15
  -1  -5   8    1.22    0.16
   1   5  -8    1.17    0.11
   1   5  -8    1.44    0.21
   1   5  -8    0.97    0.17
   1   5  -8    0.76    0.19
  -1   5   8    0.91    0.17
  -1   5   8    0.69    0.14
  -1   5   8    0.90    0.20
   0  -5   8    7.39    0.66
   0  -5  -8    7.17    0.65
   0  -5   8    7.86    0.67
   0  -5  -8    6.13    0.70
   0  -5   8    7.74    0.69
   0   5   8    6.49    0.64
   0   5  -8    7.43    0.68
   0   5  -8    6.85    0.67
   0   5   8    5.73    0.64
   0   5   8    6.59    0.70
   0   5  -8    7.64    0.69
   0   5   8    6.85    0.73
   0   5  -8    8.35    0.66
  -1  -5  -8   15.42    1.62
  -1  -5  -8   17.02    1.60
   1  -5   8   18.32    1.76
   1  -5   8   20.63    1.87
   1   5   8   17.93    1.58
  -1   5  -8   18.68    1.68
   1   5   8   16.80    1.82
  -1   5  -8   18.89    1.64
   2  -5   8    1.85    0.30
   2  -5   8    1.73    0.25
  -2  -5  -8    1.68    0.25
  -2  -5  -8    1.64    0.21
   2  -5   8    2.08    0.22
   2  -5   8    2.60    0.25
   2   5   8    1.63    0.19
  -2   5  -8    2.43    0.26
  -2   5  -8    2.24    0.23
   2   5   8    2.08    0.30
  -3  -5  -8    1.55    0.19
   3  -5   8    1.60    0.23
   3  -5   8    1.33    0.21
  -3  -5  -8    1.30    0.23
   3  -5   8    1.79    0.32
   3  -5   8    1.45    0.22
  -3   5  -8    1.18    0.23
  -3   5  -8    1.72    0.25
   3   5   8    1.87    0.29
  -4  -5  -8   -0.15    0.14
   4  -5   8    0.08    0.22
   4  -5   8    0.03    0.18
  -4  -5  -8   -0.14    0.18
  -4   5  -8   -0.04    0.18
   4   5   8   -0.19    0.26
   4   5   8    0.17    0.30
  -5  -5  -8    3.89    0.42
   5  -5   8    3.85    0.43
   5  -5   8    3.86    0.42
   5   5   8    3.90    0.82
   5   5   8    3.24    0.47
   6  -5   8    0.30    0.29
   6  -5   8    0.24    0.27
   6   5   8    0.46    0.33
  -6   5  -8    0.06    0.23
   6   5   8    0.30    0.32
   7  -5   8    1.12    0.32
   7  -5   8    0.94    0.35
   7   5   8    1.27    0.44
  -7   5  -8    1.95    0.33
   7   5   8    0.64    0.48
   8  -5   8    0.21    0.32
   8  -5   8    0.18    0.32
   8   5   8    0.87    0.58
   8   5   8    0.18    0.45
 -10  -6   8    0.17    0.30
  10  -6  -8    0.27    0.32
 -10   6   8    1.04    0.51
  10   6  -8   -0.13    0.22
   9  -6  -8   -0.03    0.27
  -9  -6   8    0.21    0.26
  -9  -6   8    0.12    0.26
  -9   6   8    0.25    0.34
  -9   6   8   -0.19    0.24
   9   6  -8    0.11    0.34
  -8  -6   8    0.16    0.40
  -8  -6   8    0.07    0.23
   8  -6  -8    0.55    0.24
   8   6  -8    0.48    0.29
  -8   6   8    0.08    0.21
  -8   6   8    0.42    0.30
   8   6  -8    0.40    0.27
  -7  -6   8    0.93    0.24
   7  -6  -8    1.21    0.21
  -7  -6   8    1.49    0.26
  -7   6   8    0.85    0.28
  -7   6   8    0.91    0.22
   7   6  -8    1.36    0.28
   7   6  -8    1.16    0.50
   6  -6  -8    0.42    0.16
  -6  -6   8    0.30    0.19
  -6  -6   8    0.49    0.20
   6   6  -8    0.39    0.21
   6   6  -8    0.18    0.25
  -6   6   8   -0.06    0.28
  -6   6   8   -0.01    0.19
  -5  -6   8    1.14    0.20
  -5  -6   8    0.99    0.20
  -5   6   8    1.09    0.19
   5   6  -8    0.96    0.30
  -5   6   8    0.83    0.23
   5   6  -8    0.85    0.26
  -5   6   8    0.64    0.17
   5   6  -8    1.06    0.13
   5   6  -8    1.11    0.23
  -4  -6   8    1.81    0.25
  -4  -6   8    2.10    0.24
   4   6  -8    2.13    0.28
   4   6  -8    2.08    0.29
  -4   6   8    1.51    0.22
  -4   6   8    1.72    0.29
   4   6  -8    1.84    0.32
   4   6  -8    2.39    0.22
  -4   6   8    2.16    0.24
  -3  -6   8    0.10    0.12
  -3  -6   8    0.22    0.15
   3   6  -8    0.08    0.13
  -3   6   8    0.21    0.14
   3   6  -8   -0.09    0.21
   3   6  -8   -0.13    0.18
   3   6  -8    0.05    0.12
  -3   6   8   -0.08    0.16
  -3   6   8    0.10    0.16
  -3   6   8   -0.06    0.19
  -2  -6   8    0.93    0.14
  -2  -6   8    1.11    0.15
  -2  -6   8    0.60    0.12
   2  -6  -8    0.74    0.17
  -2   6   8    0.38    0.15
  -2   6   8    0.48    0.19
   2   6  -8    0.84    0.19
   2   6  -8    0.68    0.21
  -2   6   8    0.36    0.18
   2   6  -8    0.71    0.16
   1  -6  -8    6.48    0.69
  -1  -6   8    6.44    0.60
   1  -6  -8    6.27    0.62
  -1  -6   8    7.42    0.60
  -1  -6   8    6.54    0.61
   1   6  -8    6.30    0.62
  -1   6   8    6.70    0.63
  -1   6   8    7.35    0.68
   1   6  -8    6.87    0.60
   1   6  -8    6.89    0.64
  -1   6   8    5.31    0.62
   0  -6   8    5.78    0.49
   0  -6  -8    5.22    0.55
   0  -6  -8    4.90    0.52
   0  -6   8    5.25    0.50
   0  -6   8    5.70    0.51
   0   6   8    4.16    0.49
   0   6  -8    5.34    0.54
   0   6   8    4.87    0.50
   0   6   8    5.02    0.53
   0   6  -8    6.14    0.49
   0   6  -8    4.81    0.53
   1  -6   8    0.51    0.15
  -1  -6  -8    0.55    0.10
  -1  -6  -8    0.64    0.14
   1  -6   8    0.47    0.15
  -1  -6  -8    0.57    0.17
  -1   6  -8    0.99    0.25
   1   6   8    0.31    0.15
   1   6   8    0.45    0.22
  -1   6  -8    0.68    0.12
   2  -6   8   34.76    3.04
  -2  -6  -8   31.03    3.16
  -2  -6  -8   31.58    3.13
   2  -6   8   38.18    3.43
  -2  -6  -8   29.80    3.25
  -2   6  -8   38.36    3.51
   2   6   8   30.09    3.06
  -2   6  -8   39.44    3.19
   2   6   8   33.77    3.65
   3  -6   8   35.08    3.40
  -3  -6  -8   29.96    3.17
  -3  -6  -8   33.96    3.27
   3  -6   8   40.29    3.25
  -3  -6  -8   29.15    3.12
   3  -6   8   38.51    3.21
   3   6   8   32.91    3.11
  -3   6  -8   38.90    3.43
   3   6   8   27.73    3.35
  -3   6  -8   36.68    3.24
  -4  -6  -8    0.22    0.20
  -4  -6  -8    0.09    0.12
   4  -6   8   -0.14    0.22
   4  -6   8    0.09    0.19
   4   6   8    0.50    0.29
  -4   6  -8   -0.03    0.20
   4   6   8    0.11    0.27
  -5  -6  -8    4.65    0.50
  -5  -6  -8    4.63    0.47
   5  -6   8    4.08    0.51
   5  -6   8    4.53    0.55
   5   6   8    5.08    0.56
   5   6   8    4.50    0.61
  -5   6  -8    5.72    0.52
  -6  -6  -8    0.04    0.24
   6  -6   8    0.23    0.30
   6  -6   8    0.39    0.25
   6   6   8    0.42    0.37
   6   6   8   -0.07    0.34
  -6   6  -8    0.05    0.27
   7  -6   8   -0.40    0.34
   7  -6   8   -0.05    0.35
  -7   6  -8    0.37    0.31
   7   6   8   -0.33    0.52
   7   6   8   -0.21    0.45
   8  -6   8    0.44    0.34
   8  -6   8    0.33    0.43
   8   6   8    0.64    0.57
   8   6   8    0.53    0.50
 -10  -7   8   -0.16    0.39
  10  -7  -8   -0.07    0.28
 -10   7   8   -0.70    0.52
  10   7  -8    0.34    0.39
   9  -7  -8    0.22    0.30
  -9  -7   8    0.24    0.25
  -9  -7   8    0.25    0.27
   9   7  -8    0.15    0.38
  -9   7   8    0.62    0.37
   8  -7  -8    0.37    0.26
  -8  -7   8    0.40    0.24
  -8  -7   8    0.22    0.26
  -8   7   8   -0.10    0.23
  -8   7   8   -0.11    0.36
   8   7  -8    0.47    0.34
   8   7  -8    0.25    0.37
   7  -7  -8    1.43    0.24
  -7  -7   8    1.49    0.28
  -7  -7   8    1.18    0.28
   7   7  -8    1.23    0.34
  -7   7   8    0.98    0.24
   7   7  -8    1.72    0.31
  -7   7   8    1.55    0.32
  -6  -7   8   -0.22    0.21
  -6  -7   8   -0.12    0.16
  -6   7   8    0.18    0.18
   6   7  -8    0.10    0.26
   6   7  -8    0.02    0.24
   6   7  -8    0.04    0.18
  -6   7   8   -0.07    0.22
  -5  -7   8    2.23    0.30
  -5  -7   8    3.27    0.32
   5   7  -8    3.30    0.29
   5   7  -8    2.90    0.32
   5   7  -8    2.26    0.39
  -5   7   8    1.82    0.30
   5   7  -8    2.16    0.35
  -5   7   8    2.76    0.30
  -5   7   8    2.53    0.35
  -4  -7   8   -0.06    0.14
  -4  -7   8    0.05    0.15
   4   7  -8   -0.10    0.22
   4   7  -8    0.08    0.13
  -4   7   8    0.00    0.15
   4   7  -8    0.03    0.20
  -4   7   8   -0.07    0.24
   4   7  -8   -0.15    0.26
  -3  -7   8   13.94    1.18
  -3  -7   8   13.83    1.18
  -3   7   8   13.29    1.20
   3   7  -8   14.04    1.37
   3   7  -8   13.78    1.26
   3   7  -8   14.07    1.28
  -3   7   8   11.25    1.22
  -3   7   8   11.97    1.35
  -3   7   8   11.75    1.25
   3   7  -8   14.10    1.20
  -2  -7   8   15.02    1.35
  -2  -7   8   16.51    1.35
   2  -7  -8   13.86    1.43
   2   7  -8   17.62    1.58
  -2   7   8   13.86    1.47
  -2   7   8   13.83    1.63
  -2   7   8   13.34    1.44
   2   7  -8   15.61    1.44
   2   7  -8   17.60    1.41
  -1  -7   8    0.39    0.13
   1  -7  -8    0.19    0.16
  -1  -7   8    0.37    0.16
  -1  -7   8    0.22    0.11
  -1   7   8    0.71    0.22
  -1   7   8    0.12    0.17
   1   7  -8    0.19    0.10
   1   7  -8    0.45    0.21
  -1   7   8    0.01    0.15
  -1   7   8    0.32    0.16
   1   7  -8    0.12    0.22
   0  -7   8   -0.03    0.14
   0  -7  -8    0.00    0.09
   0  -7   8   -0.06    0.10
   0  -7  -8   -0.11    0.15
   0  -7  -8    0.16    0.17
   0  -7   8    0.09    0.11
   0   7  -8    0.62    0.23
   0   7  -8    0.12    0.10
   0   7   8    0.00    0.16
   0   7  -8   -0.05    0.17
   0   7   8   -0.02    0.15
  -1  -7  -8    2.33    0.23
  -1  -7  -8    2.11    0.29
   1  -7   8    2.00    0.28
   1  -7   8    2.85    0.27
   1  -7   8    2.70    0.28
  -1  -7  -8    1.86    0.27
   1   7   8    1.96    0.34
  -1   7  -8    3.02    0.27
   1   7   8    1.88    0.28
  -1   7  -8    3.01    0.33
   2  -7   8    0.70    0.19
  -2  -7  -8    0.11    0.13
   2  -7   8    0.37    0.15
   2  -7   8    0.43    0.17
   2  -7   8    0.24    0.21
  -2  -7  -8    0.23    0.08
  -2  -7  -8    0.14    0.19
   2   7   8    0.51    0.26
  -2   7  -8    0.79    0.36
  -2   7  -8    0.51    0.17
   2   7   8    0.10    0.14
   3  -7   8    3.20    0.35
   3  -7   8    3.75    0.36
  -3  -7  -8    2.78    0.32
  -3  -7  -8    3.13    0.39
   3  -7   8    3.50    0.36
  -3  -7  -8    2.95    0.33
   3  -7   8    4.01    0.37
   3   7   8    3.72    0.44
  -3   7  -8    3.90    0.41
   4  -7   8    0.32    0.19
   4  -7   8    0.34    0.21
   4  -7   8    0.43    0.23
  -4  -7  -8    0.19    0.22
   4   7   8    0.48    0.33
  -4   7  -8    0.47    0.24
   4   7   8   -0.08    0.37
   5  -7   8    0.80    0.28
  -5  -7  -8    0.70    0.26
   5  -7   8    1.16    0.22
   5  -7   8    0.83    0.29
   5   7   8    0.94    0.37
   5   7   8    0.88    0.45
  -5   7  -8    1.30    0.28
   6  -7   8    0.96    0.33
   6  -7   8    0.75    0.33
  -6  -7  -8    0.90    0.30
  -6   7  -8    1.45    0.32
   6   7   8    1.08    0.38
   6   7   8    1.37    0.50
   7  -7   8   -0.33    0.33
   7  -7   8    0.06    0.28
  -7  -7  -8   -0.08    0.31
   7   7   8   -0.19    0.50
   7   7   8    4.17    1.00
  -7   7  -8    0.28    0.36
   8  -7   8    1.42    0.46
   8  -7   8    1.09    0.46
   8   7   8    1.34    0.47
  -9  -8   8   -0.19    0.27
  -9  -8   8   -0.14    0.27
   9  -8  -8   -0.36    0.26
  -9   8   8   -0.24    0.40
   9   8  -8   -0.23    0.43
  -8  -8   8    4.76    0.49
  -8  -8   8    3.30    0.43
   8  -8  -8    3.59    0.44
  -8   8   8    3.55    0.53
   8   8  -8    2.72    0.52
   8   8  -8    3.54    0.46
  -7  -8   8    0.53    0.26
  -7  -8   8    0.34    0.23
   7   8  -8    0.42    0.31
  -7   8   8    0.22    0.36
   7   8  -8   -0.02    0.38
  -6  -8   8   -0.04    0.19
  -6  -8   8    0.07    0.21
   6   8  -8    0.48    0.48
   6   8  -8    0.34    0.28
   6   8  -8   -0.19    0.34
  -6   8   8    0.09    0.26
  -6   8   8    0.10    0.17
  -5  -8   8    5.80    0.50
  -5  -8   8    4.99    0.51
  -5   8   8    4.88    0.56
   5   8  -8    5.73    0.61
   5   8  -8    4.64    0.54
  -5   8   8    4.08    0.50
   5   8  -8    4.84    0.53
  -4  -8   8    4.72    0.47
  -4  -8   8    4.59    0.44
   4   8  -8    5.06    0.47
   4   8  -8    3.82    0.49
  -4   8   8    4.35    0.50
   4   8  -8    4.70    0.54
  -4   8   8    3.84    0.43
   4   8  -8    4.70    0.48
   3  -8  -8    2.90    0.33
  -3  -8   8    2.47    0.31
  -3  -8   8    2.68    0.28
   3   8  -8    2.18    0.37
  -3   8   8    2.27    0.36
  -3   8   8    2.20    0.34
  -3   8   8    2.12    0.29
   3   8  -8    3.21    0.32
   3   8  -8    2.42    0.34
   2  -8  -8    8.64    0.94
  -2  -8   8    9.88    0.82
  -2  -8   8    9.60    0.84
   2   8  -8    9.99    0.96
  -2   8   8    8.95    0.88
  -2   8   8    8.30    0.94
   2   8  -8    9.43    0.85
  -2   8   8    8.16    0.83
  -1  -8   8    0.07    0.17
  -1  -8   8   -0.06    0.12
   1  -8  -8    0.09    0.18
  -1   8   8    0.14    0.16
   1   8  -8    0.08    0.22
  -1   8   8   -0.32    0.28
  -1   8   8    0.26    0.15
   1   8  -8    0.07    0.19
  -1   8   8   -0.01    0.20
   1   8  -8    0.07    0.13
   0  -8  -8    6.10    0.85
   0  -8  -8    6.34    0.74
   0  -8   8    7.42    0.69
   0  -8   8    7.72    0.69
   0  -8   8    8.12    0.69
   0   8   8    6.60    0.75
   0   8  -8    8.68    0.72
   0   8  -8    7.68    0.75
   0   8  -8    7.71    0.71
   1  -8   8   -0.13    0.15
  -1  -8  -8    0.05    0.17
  -1  -8  -8   -0.04    0.20
   1  -8   8   -0.09    0.12
   1  -8   8    0.16    0.14
  -1   8  -8    0.00    0.14
   1   8   8    0.12    0.20
  -1   8  -8    0.10    0.25
   1   8   8    0.39    0.28
   2  -8   8    1.96    0.24
  -2  -8  -8    1.84    0.30
   2  -8   8    2.26    0.26
   2  -8   8    1.92    0.28
  -2  -8  -8    1.13    0.29
   2  -8   8    2.48    0.27
  -2   8  -8    2.17    0.29
  -2   8  -8    2.62    0.35
   2   8   8    1.58    0.29
   3  -8   8    2.43    0.28
   3  -8   8    2.28    0.27
  -3  -8  -8    1.66    0.31
   3  -8   8    1.90    0.28
  -3   8  -8    2.76    0.36
   3   8   8    1.10    0.37
   4  -8   8    0.52    0.27
   4  -8   8    0.48    0.25
   4  -8   8    0.57    0.18
  -4  -8  -8    0.29    0.25
   4   8   8    0.56    0.35
  -4   8  -8    0.63    0.28
   5  -8   8    0.61    0.29
   5  -8   8    0.83    0.20
   5  -8   8    0.57    0.24
  -5  -8  -8    0.85    0.29
   5   8   8    0.98    0.57
   5   8   8    0.31    0.38
  -5   8  -8    1.11    0.31
  -6  -8  -8    2.96    0.43
   6  -8   8    2.49    0.45
   6  -8   8    3.38    0.44
  -6   8  -8    4.12    0.47
   6   8   8    2.85    0.51
   6   8   8    1.53    0.51
   7  -8   8    0.12    0.40
  -7  -8  -8   -0.14    0.33
   7  -8   8    0.29    0.40
  -7   8  -8    0.01    0.35
   7   8   8   -0.21    0.58
   7   8   8    0.13    0.44
   9  -9  -8    0.12    0.24
  -9  -9   8    0.30    0.38
  -9  -9   8    0.30    0.38
   9   9  -8    0.55    0.39
  -9   9   8    0.18    0.46
  -8  -9   8    0.04    0.31
  -8  -9   8    0.12    0.28
   8   9  -8    0.03    0.39
  -8   9   8   -0.01    0.38
  -7  -9   8    1.82    0.35
  -7  -9   8    2.19    0.34
   7   9  -8    1.43    0.37
  -7   9   8    1.57    0.41
   7   9  -8    1.80    0.38
  -6  -9   8    0.71    0.30
  -6  -9   8    1.05    0.25
   6   9  -8    0.66    0.31
   6   9  -8    0.77    0.30
   6   9  -8    0.96    0.37
  -6   9   8    0.66    0.37
  -5  -9   8    5.52    0.53
  -5  -9   8    5.41    0.53
   5   9  -8    5.18    0.56
  -5   9   8    4.19    0.56
   5   9  -8    5.47    0.61
   5   9  -8    5.48    0.62
  -4  -9   8    0.22    0.17
   4  -9  -8    0.39    0.14
  -4  -9   8    0.27    0.22
   4   9  -8    0.10    0.31
  -4   9   8    0.28    0.16
   4   9  -8    0.20    0.23
  -4   9   8    0.02    0.30
   4   9  -8    0.26    0.26
   3  -9  -8   10.86    1.00
  -3  -9   8   10.81    0.98
  -3  -9   8   10.54    0.96
  -3   9   8    9.80    1.05
   3   9  -8   10.88    0.99
  -3   9   8   10.06    1.00
   3   9  -8   11.65    1.06
  -3   9   8   10.39    1.00
  -2  -9   8    4.40    0.40
   2  -9  -8    3.94    0.44
  -2  -9   8    4.24    0.42
   2   9  -8    4.77    0.48
  -2   9   8    3.49    0.48
  -2   9   8    4.19    0.43
  -2   9   8    2.99    0.47
   2   9  -8    3.97    0.50
   2   9  -8    4.48    0.48
  -1  -9   8    5.89    0.50
  -1  -9   8    5.78    0.52
   1  -9  -8    5.15    0.55
  -1   9   8    4.14    0.55
   1   9  -8    4.87    0.57
   1   9  -8    5.30    0.56
   1   9  -8    5.71    0.54
  -1   9   8    5.31    0.58
   0  -9   8    1.04    0.22
   0  -9   8    0.96    0.15
   0  -9  -8    0.59    0.24
   0   9   8    0.25    0.22
   0   9  -8    0.83    0.20
   0   9  -8    0.71    0.32
   0   9  -8    0.96    0.27
   0   9   8    0.07    0.31
   1  -9   8    2.09    0.21
  -1  -9  -8    1.68    0.26
   1  -9   8    1.48    0.22
   1  -9   8    2.06    0.27
  -1   9  -8    1.58    0.29
   1   9   8    2.20    0.39
   1   9   8    1.31    0.32
  -1   9  -8    1.43    0.34
   2  -9   8    1.57    0.19
  -2  -9  -8    1.41    0.24
   2  -9   8    1.70    0.25
   2  -9   8    1.49    0.27
   2   9   8    1.60    0.29
   2   9   8    0.78    0.29
  -2   9  -8    1.34    0.34
   3  -9   8    7.61    0.75
  -3  -9  -8    6.85    0.74
   3  -9   8    7.99    0.79
  -3   9  -8    9.72    0.93
   3   9   8    6.12    0.79
  -4  -9  -8    0.70    0.30
   4  -9   8    1.33    0.24
   4  -9   8    0.65    0.29
   4   9   8    0.83    0.40
  -4   9  -8    1.56    0.35
   5  -9   8    5.03    0.54
   5  -9   8    4.23    0.56
  -5  -9  -8    4.33    0.55
   5  -9   8    5.15    0.51
  -5   9  -8    6.56    0.62
   5   9   8    5.28    0.70
   5   9   8    3.22    0.62
   6  -9   8    0.20    0.34
   6  -9   8    0.07    0.36
  -6  -9  -8    0.32    0.34
  -6   9  -8    0.14    0.35
   6   9   8   -1.20    0.55
   6   9   8    0.13    0.44
   7  -9   8   -0.05    0.35
  -7  -9  -8    0.02    0.38
   7  -9   8    0.03    0.43
  -7   9  -8   -0.10    0.36
   7   9   8    0.38    0.46
  -8 -10   8    0.27    0.31
  -8 -10   8    0.65    0.36
   8  10  -8   -0.02    0.40
  -8  10   8    0.33    0.50
  -7 -10   8    0.23    0.30
  -7 -10   8    0.16    0.28
  -7  10   8    0.16    0.43
   7  10  -8   -0.05    0.44
  -6 -10   8   -0.07    0.25
  -6 -10   8    0.09    0.38
   6  10  -8   -0.68    0.37
   6  10  -8    0.04    0.39
  -6  10   8    0.22    0.34
   6  10  -8    0.08    0.32
  -5 -10   8    0.33    0.24
  -5 -10   8   -0.06    0.21
   5  10  -8   -0.15    0.37
   5  10  -8   -0.15    0.30
   5  10  -8    0.06    0.28
  -5  10   8   -0.41    0.35
  -4 -10   8    0.44    0.22
  -4 -10   8   -0.16    0.17
   4 -10  -8    0.11    0.25
  -4  10   8    0.08    0.32
   4  10  -8   -0.06    0.30
   4  10  -8    0.27    0.27
   4  10  -8    0.03    0.34
  -3 -10   8   -0.06    0.17
   3 -10  -8   -0.22    0.21
  -3 -10   8   -0.03    0.24
  -3  10   8    0.28    0.31
  -3  10   8    0.29    0.31
   3  10  -8   -0.26    0.26
   3  10  -8    0.16    0.39
  -2 -10   8    3.51    0.34
  -2 -10   8    3.40    0.37
   2 -10  -8    4.48    0.41
   2  10  -8    3.37    0.47
  -2  10   8    2.93    0.37
  -2  10   8    2.23    0.54
  -2  10   8    2.53    0.40
   2  10  -8    3.12    0.43
  -1 -10   8    0.48    0.22
   1 -10  -8    0.52    0.25
  -1 -10   8    0.73    0.15
   1  10  -8    0.45    0.30
   1  10  -8    0.75    0.34
  -1  10   8    0.39    0.32
  -1  10   8    0.25    0.31
   0 -10   8   -0.05    0.12
   0 -10  -8    0.27    0.25
   0 -10   8    0.02    0.16
   0  10  -8    0.14    0.34
   0  10  -8    0.15    0.22
   0  10   8    0.22    0.26
   0  10   8   -0.02    0.35
  -1 -10  -8    0.46    0.19
   1 -10   8    0.48    0.22
   1 -10   8    0.32    0.12
  -1  10  -8    0.38    0.29
   1  10   8    0.38    0.31
  -1  10  -8    0.19    0.27
   1  10   8    0.04    0.35
   2 -10   8    0.17    0.21
  -2 -10  -8   -0.17    0.18
   2  10   8   -0.11    0.37
   2  10   8   -0.17    0.29
  -2  10  -8    0.33    0.34
   3 -10   8    1.80    0.29
  -3 -10  -8    1.35    0.35
  -3  10  -8    2.22    0.37
   3  10   8    1.99    0.35
   4 -10   8    0.64    0.22
   4 -10   8   -0.19    0.25
  -4 -10  -8    0.37    0.52
   4  10   8    0.30    0.43
  -4  10  -8    0.63    0.33
   5 -10   8    3.02    0.44
  -5 -10  -8    2.37    0.43
  -5  10  -8    3.50    0.50
   5  10   8    2.42    0.61
   5  10   8    1.68    0.55
   6 -10   8    0.37    0.41
  -6 -10  -8    0.05    0.36
   6 -10   8   -0.15    0.25
   6  10   8    0.18    0.50
  -6  10  -8    0.01    0.38
   6  10   8    0.15    0.52
  -7 -11   8    0.33    0.32
  -7 -11   8   -0.20    0.37
  -7  11   8    0.83    0.48
   7  11  -8    0.18    0.49
   7  11  -8    0.22    0.46
  -6 -11   8    0.02    0.26
  -6 -11   8    0.04    0.29
  -6  11   8    0.11    0.41
   6  11  -8    0.21    0.44
   6  11  -8   -0.32    0.35
  -5 -11   8    0.01    0.23
  -5 -11   8   -0.16    0.26
   5  11  -8    0.43    0.37
  -5  11   8   -0.13    0.38
   5  11  -8   -0.01    0.40
  -4 -11   8    0.05    0.22
   4 -11  -8    0.03    0.23
  -4 -11   8   -0.21    0.24
   4  11  -8   -0.14    0.36
  -4  11   8   -0.02    0.37
   4  11  -8   -0.16    0.29
   4  11  -8    0.15    0.29
  -3 -11   8   -0.14    0.15
  -3 -11   8   -0.25    0.23
   3 -11  -8    0.02    0.24
  -3  11   8   -0.16    0.35
   3  11  -8    0.07    0.28
   3  11  -8   -0.02    0.35
  -3  11   8    0.40    0.36
  -2 -11   8    0.44    0.22
  -2 -11   8    0.24    0.18
   2 -11  -8    0.51    0.26
  -2  11   8    1.07    0.37
  -2  11   8   -0.02    0.38
   2  11  -8    0.27    0.36
   2  11  -8    0.32    0.32
   1 -11  -8   -0.27    0.27
  -1 -11   8    0.03    0.13
  -1 -11   8    0.12    0.24
  -1  11   8    0.02    0.32
   1  11  -8    2.86    0.83
  -1  11   8   -0.35    0.39
   1  11  -8   -0.06    0.37
   0 -11   8    0.24    0.24
   0 -11  -8    0.46    0.29
   0  11   8    0.36    0.33
   0  11  -8    0.69    0.33
   0  11   8    0.53    0.42
   0  11  -8   -0.02    0.28
  -1 -11  -8   -0.07    0.29
   1 -11   8   -0.10    0.23
   1  11   8   -0.05    0.41
  -1  11  -8   -0.05    0.37
   1  11   8    0.11    0.32
  -1  11  -8   -0.03    0.26
   2 -11   8    0.44    0.20
  -2 -11  -8    0.04    0.31
  -2  11  -8    0.00    0.37
   2  11   8   -0.07    0.44
   3 -11   8    1.77    0.30
  -3 -11  -8    1.46    0.37
  -3  11  -8    2.63    0.46
   3  11   8    0.97    0.49
   4 -11   8    0.09    0.25
  -4 -11  -8   -0.32    0.35
   4  11   8    0.23    0.34
  -4  11  -8    0.10    0.41
  -5 -11  -8   -0.12    0.36
   5  11   8   -0.35    0.64
   5  11   8    0.11    0.50
  -5  11  -8    0.06    0.40
  -7 -12   8   -0.16    0.33
  -7  12   8   -0.27    0.49
  -6 -12   8    0.97    0.31
  -6 -12   8    0.68    0.41
  -6  12   8    1.02    0.48
   6  12  -8    1.48    0.49
   6  12  -8    1.36    0.52
  -5 -12   8    0.07    0.28
   5 -12  -8    0.39    0.19
  -5 -12   8   -0.27    0.29
   5  12  -8    0.45    0.35
   5  12  -8    0.09    0.43
  -5  12   8   -0.14    0.36
  -4 -12   8    0.90    0.30
   4 -12  -8    0.48    0.27
  -4 -12   8    0.50    0.22
  -4  12   8    0.67    0.43
   4  12  -8    0.87    0.41
  -3 -12   8   -0.12    0.27
   3 -12  -8    0.11    0.27
  -3  12   8    0.34    0.43
  -3  12   8   -0.07    0.40
   3  12  -8   -0.23    0.31
   3  12  -8   -0.35    0.39
   2 -12  -8    3.83    0.47
  -2 -12   8    4.19    0.48
  -2  12   8    3.01    0.48
   2  12  -8    3.11    0.60
  -2  12   8    2.84    0.53
   2  12  -8    4.70    0.57
   1 -12  -8    0.02    0.31
  -1 -12   8    0.53    0.25
   1  12  -8    0.11    0.36
   1  12  -8   -0.45    0.35
  -1  12   8    0.07    0.36
  -1  12   8   -0.26    0.44
   0 -12  -8    3.99    0.48
   0 -12   8    4.51    0.46
   0  12   8    2.36    0.51
   0  12  -8    3.18    0.56
   0  12  -8    3.35    0.43
   0  12   8    1.94    0.57
   1 -12   8    1.41    0.28
  -1 -12  -8    0.90    0.36
   1  12   8    0.28    0.49
   1  12   8    0.27    0.38
  -1  12  -8    0.78    0.44
  -1  12  -8    1.18    0.31
  -2 -12  -8    0.32    0.27
   2 -12   8   -0.01    0.29
   2  12   8    0.18    0.37
  -2  12  -8   -0.17    0.35
  -3 -12  -8    1.83    0.47
   3 -12   8    3.33    0.42
  -3  12  -8    3.53    0.56
   3  12   8    2.19    0.46
  -4 -12  -8    0.48    0.39
   4  12   8   -0.59    0.37
  -4  12  -8    0.15    0.38
  -5 -13   8    2.56    0.48
  -5  13   8    1.61    0.57
   5  13  -8    2.13    0.44
   4 -13  -8   -0.38    0.35
  -4 -13   8    0.05    0.31
   4  13  -8   -0.06    0.51
   4  13  -8   -0.23    0.55
  -4  13   8   -0.18    0.40
   3 -13  -8    1.01    0.33
  -3 -13   8    1.35    0.39
  -3  13   8    0.81    0.51
  -3  13   8    0.64    0.47
   3  13  -8    1.00    0.48
  -2 -13   8    0.23    0.29
   2 -13  -8    0.09    0.39
   2  13  -8   -0.24    0.44
  -2  13   8    0.23    0.50
  -2  13   8   -0.11    0.44
  -1 -13   8    0.84    0.30
   1 -13  -8    0.45    0.36
  -1  13   8    1.22    0.38
  -1  13   8    0.05    0.45
   1  13  -8    0.23    0.50
   0 -13   8    0.30    0.28
   0 -13  -8    0.55    0.38
   0  13  -8    0.24    0.36
   0  13   8    0.28    0.45
   0  13  -8   -0.17    0.46
   0  13   8   -0.36    0.37
   1 -13   8    1.84    0.34
  -1 -13  -8    1.92    0.45
  -1  13  -8    2.44    0.57
  -1  13  -8    0.75    0.33
   1  13   8    0.95    0.58
   2 -13   8    1.38    0.44
  -2 -13  -8    0.60    0.43
  -2  13  -8    0.82    0.49
  -2  13  -8    0.07    0.39
   2  13   8    0.71    0.60
   3 -13   8    5.68    0.57
  -3 -13  -8    3.76    0.63
   3  13   8    3.53    0.75
   4 -14  -8   -0.18    0.33
   3 -14  -8    1.58    0.39
  -3 -14   8    0.64    0.45
   3  14  -8    4.89    1.82
  -3  14   8    0.96    0.58
  -3  14   8    1.11    0.56
   2 -14  -8    1.45    0.40
  -2 -14   8    1.26    0.35
   2  14  -8    0.47    0.62
  -2  14   8    0.60    0.53
  -2  14   8    1.28    0.61
   1 -14  -8   -0.11    0.40
  -1 -14   8    0.27    0.38
   1  14  -8    0.31    0.48
  -1  14   8   -0.79    0.59
  -1  14   8   -0.07    0.54
   0 -14  -8    0.37    0.42
   0 -14   8    0.40    0.31
   0  14   8   -0.58    0.63
   0  14  -8    0.61    0.51
   0  14   8   -0.59    0.57
  -1 -14  -8   -0.09    0.32
   1 -14   8    0.05    0.30
   1  14   8   -0.39    0.63
  -1  14  -8    0.18    0.55
  11   0  -9    0.33    0.36
 -11   0   9    0.21    0.39
  10   0  -9   -0.25    0.31
 -10   0   9   -0.32    0.31
   9   0  -9    0.09    0.25
  -9   0   9    0.20    0.26
  -8   0   9    0.17    0.21
  -8   0   9   -0.03    0.16
   8   0  -9    0.17    0.20
  -7   0   9    0.51    0.19
  -7   0   9    0.38    0.13
   7   0  -9    0.02    0.28
   7   0  -9    2.60    2.41
   6   0  -9   -0.24    0.23
  -6   0   9   -0.01    0.03
  -6   0   9   -0.01    0.03
  -6   0   9   -0.10    0.18
   6   0  -9    0.18    0.12
  -6   0   9   -0.37    0.19
   5   0  -9    2.78    0.32
   5   0  -9    2.40    0.23
  -5   0   9    2.01    0.23
  -5   0   9    2.13    0.26
  -5   0   9    2.69    0.28
   4   0  -9   -0.10    0.08
  -4   0   9    0.02    0.07
  -4   0   9    0.08    0.11
  -4   0   9    0.10    0.12
   4   0  -9   -0.03    0.12
   3   0  -9    0.19    0.05
  -3   0   9    0.26    0.09
   3   0  -9    0.11    0.11
  -3   0   9    0.16    0.12
  -3   0   9    0.26    0.13
   3   0  -9    0.09    0.15
  -3   0   9    0.05    0.10
  -2   0   9    0.05    0.09
  -2   0   9   -0.14    0.11
   2   0  -9    0.03    0.11
  -2   0   9   -0.22    0.13
  -2   0   9    0.06    0.12
   2   0  -9    0.01    0.14
  -2   0   9    0.15    0.07
   1   0  -9   70.35    7.92
   1   0  -9   74.09    7.62
  -1   0   9   73.29    6.69
  -1   0   9   83.33    7.18
  -1   0   9   78.72    8.06
  -1   0   9   93.70    8.90
   0   0  -9    0.17    0.14
   0   0  -9   -0.11    0.14
   0   0   9   -0.08    0.08
   0   0   9   -0.01    0.09
   0   0   9   -0.16    0.12
  -1   0  -9   15.38    1.48
   1   0   9   17.25    1.52
   1   0   9   19.27    1.68
   1   0   9   15.86    1.84
   2   0   9   -0.22    0.14
  -2   0  -9   -0.08    0.13
   2   0   9   -0.27    0.16
   3   0   9    2.83    0.36
   3   0   9    3.67    0.38
   4   0   9   -0.12    0.19
   4   0   9   -0.22    0.23
   5   0   9    6.03    0.62
   5   0   9    5.03    0.54
  -5   0  -9    5.01    0.46
   6   0   9   -0.36    0.43
   6   0   9    0.15    0.33
   7   0   9   -0.31    0.39
   7   0   9    0.56    1.25
   8   0   9   -0.13    0.36
   8   0   9    0.00    0.36
   9   0   9    0.03    0.49
  11  -1  -9    0.38    0.36
 -11  -1   9   -0.09    0.39
  11   1  -9   -0.09    0.36
 -11   1   9    0.35    0.39
 -10  -1   9    1.53    0.36
  10  -1  -9    1.77    0.34
 -10   1   9    1.21    0.30
  10   1  -9    1.40    0.35
   9  -1  -9    1.80    0.31
  -9  -1   9    1.78    0.33
   9   1  -9    2.26    0.34
  -9   1   9    1.90    0.33
  -8  -1   9    0.24    0.16
   8  -1  -9    0.16    0.19
  -8  -1   9    0.41    0.22
   8   1  -9    0.59    0.22
  -8   1   9   -0.03    0.12
  -8   1   9    0.09    0.21
  -7  -1   9    1.19    0.24
   7  -1  -9    1.95    0.23
  -7  -1   9    1.11    0.21
  -7   1   9    1.80    0.24
   7   1  -9    1.54    0.23
   7   1  -9    1.66    0.27
   6  -1  -9    0.81    0.25
  -6  -1   9    0.69    0.22
   6  -1  -9    0.44    0.14
  -6  -1   9    0.43    0.17
   6   1  -9    0.59    0.14
  -6   1   9    0.45    0.17
  -6   1   9    0.48    0.09
   6   1  -9    0.69    0.19
  -6   1   9    0.56    0.09
  -5  -1   9    2.44    0.30
  -5  -1   9    2.45    0.29
   5  -1  -9    2.99    0.34
   5  -1  -9    2.45    0.26
  -5   1   9    2.83    0.29
  -5   1   9    2.87    0.29
   5   1  -9    3.01    0.34
  -5   1   9    2.46    0.29
   5   1  -9    2.89    0.28
  -4  -1   9    4.31    0.43
  -4  -1   9    3.51    0.40
   4  -1  -9    4.49    0.36
  -4  -1   9    3.35    0.35
   4  -1  -9    4.13    0.41
   4   1  -9    3.61    0.35
  -4   1   9    3.45    0.37
   4   1  -9    4.36    0.42
  -4   1   9    3.77    0.37
  -4   1   9    4.31    0.46
   3  -1  -9   16.84    1.45
  -3  -1   9   16.04    1.56
  -3  -1   9   16.18    1.40
  -3  -1   9   18.10    1.74
  -3  -1   9   16.43    1.65
  -3   1   9   15.51    1.42
  -3   1   9   15.83    1.54
   3   1  -9   15.65    1.50
   3   1  -9   14.52    1.40
  -3   1   9   17.21    1.82
  -3   1   9   15.79    1.40
   3   1  -9   15.88    1.45
  -2  -1   9   44.29    4.17
   2  -1  -9   40.42    3.83
  -2  -1   9   42.46    3.74
  -2  -1   9   44.71    5.07
  -2  -1   9   41.30    3.58
  -2  -1   9   42.42    4.16
   2  -1  -9   35.53    4.05
   2   1  -9   39.96    3.94
  -2   1   9   46.25    4.83
  -2   1   9   40.71    3.59
  -2   1   9   42.34    3.83
  -2   1   9   42.61    4.85
  -2   1   9   40.87    3.57
   2   1  -9   37.94    3.63
  -1  -1   9    2.28    0.24
   1  -1  -9    2.25    0.23
  -1  -1   9    1.83    0.22
  -1  -1   9    1.71    0.21
   1  -1  -9    2.03    0.23
  -1   1   9    2.28    0.27
   1   1  -9    1.84    0.24
  -1   1   9    1.70    0.21
  -1   1   9    2.20    0.23
   1   1  -9    1.73    0.23
  -1   1   9    1.84    0.19
   0  -1  -9    2.82    0.32
   0  -1  -9    2.93    0.31
   0  -1   9    3.24    0.34
   0  -1   9    3.11    0.29
   0  -1   9    2.70    0.28
   0   1  -9    2.25    0.30
   0   1  -9    3.02    0.30
   0   1   9    3.63    0.35
   0   1   9    2.90    0.28
   1  -1   9   69.46    6.32
   1  -1   9   76.17    7.33
   1  -1   9   67.45    6.40
  -1  -1  -9   62.23    6.57
  -1   1  -9   65.23    6.68
   1   1   9   71.16    6.27
  -1   1  -9   71.16    6.52
   1   1   9   68.92    7.06
   1   1   9   65.83    5.96
   1   1   9   75.52    7.25
  -2  -1  -9    3.95    0.42
   2  -1   9    4.27    0.41
   2  -1   9    3.92    0.44
   2  -1   9    4.88    0.45
   2   1   9    4.52    0.47
  -2   1  -9    4.43    0.44
   2   1   9    3.82    0.46
   3  -1   9   11.83    1.19
   3  -1   9   10.27    1.05
   3   1   9   11.93    1.09
   3   1   9    9.85    1.15
  -3   1  -9   10.81    1.03
   4  -1   9    3.44    0.40
   4  -1   9    3.36    0.40
   4   1   9    4.01    0.43
  -4   1  -9    3.49    0.33
   4   1   9    2.90    0.40
   5  -1   9   -0.06    0.25
   5  -1   9    0.27    0.30
   5   1   9    0.14    0.27
  -5   1  -9    0.14    0.13
   5   1   9    0.70    0.32
   6  -1   9    0.43    0.31
   6  -1   9    0.10    0.34
   6   1   9    0.12    0.32
   6   1   9   -0.63    0.33
   7  -1   9    0.09    0.39
   7  -1   9   -0.08    0.34
   7   1   9    2.07    0.65
   7   1   9    0.22    0.31
   8  -1   9    0.40    0.43
   8  -1   9    0.47    0.44
   8   1   9    0.22    0.50
   8   1   9    0.52    0.39
 -11  -2   9    0.08    0.40
  11  -2  -9    0.61    0.38
 -11   2   9    1.25    0.49
  11   2  -9   -0.12    0.35
 -11   2   9   -0.12    0.46
  10  -2  -9    0.61    0.26
 -10  -2   9    2.38    0.49
  10   2  -9    0.55    0.34
 -10   2   9    0.40    0.67
   9  -2  -9    0.91    0.26
  -9  -2   9    0.14    0.27
   9   2  -9   -0.46    0.27
  -9   2   9    0.17    0.26
  -8  -2   9    0.36    0.16
   8  -2  -9    1.23    0.22
  -8  -2   9    0.73    0.21
   8   2  -9    1.17    0.24
  -8   2   9    0.50    0.23
  -7  -2   9    1.77    0.26
  -7  -2   9    1.59    0.23
   7  -2  -9    2.06    0.24
   7   2  -9    1.43    0.33
  -7   2   9    1.55    0.20
  -7   2   9    1.55    0.25
   7   2  -9    1.85    0.26
  -6  -2   9   18.23    1.52
  -6  -2   9   15.04    1.46
  -6  -2   9   16.65    1.62
   6  -2  -9   17.51    1.53
   6  -2  -9   18.30    1.57
   6   2  -9   18.09    1.70
  -6   2   9   16.56    1.48
  -6   2   9   16.97    1.74
   6   2  -9   16.32    1.57
  -6   2   9   16.07    1.50
  -5  -2   9    0.94    0.19
  -5  -2   9    0.82    0.19
   5  -2  -9    1.18    0.17
   5  -2  -9    1.49    0.25
  -5   2   9    1.47    0.21
   5   2  -9    1.12    0.16
   5   2  -9    1.34    0.25
  -5   2   9    0.99    0.15
  -5   2   9    1.54    0.21
  -4  -2   9   49.68    5.17
  -4  -2   9   48.42    4.19
   4  -2  -9   49.17    4.54
   4  -2  -9   49.36    4.25
  -4  -2   9   41.36    4.25
   4   2  -9   45.63    4.28
  -4   2   9   49.95    4.30
  -4   2   9   55.13    6.92
   4   2  -9   54.69    4.75
  -4   2   9   52.52    4.19
   4   2  -9   46.47    5.02
   3  -2  -9    3.30    0.33
  -3  -2   9    3.32    0.35
  -3  -2   9    3.11    0.31
  -3  -2   9    2.73    0.29
   3   2  -9    3.05    0.28
  -3   2   9    2.99    0.30
   3   2  -9    3.30    0.30
  -3   2   9    3.13    0.32
  -3   2   9    3.52    0.37
  -3   2   9    2.67    0.33
   3   2  -9    3.18    0.32
  -2  -2   9   28.64    2.72
  -2  -2   9   36.36    3.25
  -2  -2   9   33.19    3.38
   2  -2  -9   26.30    2.96
   2  -2  -9   30.44    3.18
  -2   2   9   30.14    2.83
  -2   2   9   32.71    2.70
   2   2  -9   32.43    2.85
  -2   2   9   32.53    3.00
   2   2  -9   29.21    2.78
  -2   2   9   34.88    4.52
  -2   2   9   30.34    2.67
  -1  -2   9    0.19    0.13
   1  -2  -9    0.18    0.14
   1  -2  -9    0.08    0.15
  -1  -2   9    0.32    0.12
  -1  -2   9    0.02    0.10
   1   2  -9    0.22    0.14
  -1   2   9    0.20    0.15
  -1   2   9   -0.07    0.14
  -1   2   9   -0.01    0.13
   1   2  -9    0.12    0.11
   1   2  -9    0.10    0.14
   0  -2  -9   10.27    1.03
   0  -2   9   11.91    1.04
   0  -2  -9   10.35    1.03
   0  -2   9    9.41    0.92
   0  -2   9   13.22    1.32
   0   2   9   10.90    1.10
   0   2  -9   11.62    0.95
   0   2  -9    9.88    1.06
   0   2  -9   10.67    1.02
   0   2   9   10.72    1.00
   0   2   9   10.04    1.01
   1  -2   9    0.96    0.17
  -1  -2  -9    1.06    0.17
   1  -2   9    0.94    0.12
   1  -2   9    1.28    0.19
  -1   2  -9    1.09    0.21
  -1   2  -9    0.94    0.14
   1   2   9    0.70    0.18
   2  -2   9    0.33    0.12
   2  -2   9    0.46    0.15
   2  -2   9    0.58    0.15
  -2  -2  -9    0.26    0.12
   2   2   9    0.36    0.17
   2   2   9    0.53    0.19
  -2   2  -9    0.60    0.12
   3  -2   9    0.52    0.15
   3  -2   9    0.50    0.23
   3  -2   9    0.51    0.16
  -3   2  -9    0.69    0.14
  -3   2  -9    0.61    0.18
   3   2   9    0.57    0.20
   3   2   9    0.45    0.21
   4  -2   9   20.09    2.10
   4  -2   9   20.88    1.93
  -4   2  -9   20.52    1.89
   4   2   9   18.01    2.06
   4   2   9   19.73    2.04
   5  -2   9    2.99    0.42
   5  -2   9    3.48    0.46
   5   2   9    3.44    0.46
   5   2   9    4.13    0.49
  -5   2  -9    3.87    0.37
   6  -2   9   26.81    2.49
   6  -2   9   28.53    2.67
   6   2   9   26.15    2.77
   6   2   9   25.01    2.96
   7  -2   9   -0.03    0.34
   7  -2   9    0.50    0.39
   7   2   9    0.26    0.46
   7   2   9    0.14    0.41
   8  -2   9    0.67    0.44
   8  -2   9    1.29    0.42
   8   2   9    0.68    0.47
   8   2   9    0.83    0.50
 -11  -3   9    0.37    0.43
  11  -3  -9    0.33    0.31
 -11   3   9   -0.17    0.31
 -11   3   9    0.69    0.47
  11   3  -9   -0.30    0.32
  10  -3  -9    0.18    0.25
 -10  -3   9   -0.26    0.33
  10   3  -9    0.50    0.35
 -10   3   9    0.14    0.38
 -10   3   9    0.10    0.31
   9  -3  -9    0.43    0.26
  -9  -3   9   -0.03    0.27
  -9  -3   9    0.00    0.19
   9   3  -9    0.05    0.29
  -9   3   9    0.49    0.32
  -9   3   9   -0.03    0.25
   8  -3  -9    0.23    0.20
  -8  -3   9    0.25    0.16
  -8  -3   9   -0.03    0.22
  -8   3   9   -0.02    0.21
   8   3  -9    0.07    0.25
   8   3  -9    0.62    0.25
  -7  -3   9   -0.02    0.20
   7  -3  -9    0.04    0.16
  -7  -3   9   -0.15    0.15
  -7   3   9    0.06    0.18
   7   3  -9    0.07    0.17
  -7   3   9    0.20    0.15
   7   3  -9   -0.18    0.27
  -6  -3   9    4.69    0.47
  -6  -3   9    4.86    0.46
   6  -3  -9    5.26    0.46
   6   3  -9    4.78    0.46
  -6   3   9    3.69    0.43
   6   3  -9    4.69    0.51
  -6   3   9    4.90    0.45
  -6   3   9    5.01    0.46
  -6   3   9    4.43    0.46
  -5  -3   9   22.99    2.14
   5  -3  -9   24.94    2.67
   5  -3  -9   24.20    2.18
  -5  -3   9   25.48    2.14
   5   3  -9   25.59    2.40
   5   3  -9   23.52    2.26
  -5   3   9   26.23    2.58
  -5   3   9   26.01    2.27
  -5   3   9   24.96    2.52
  -4  -3   9   -0.09    0.13
  -4  -3   9    0.00    0.06
   4  -3  -9   -0.04    0.19
  -4   3   9   -0.09    0.11
   4   3  -9   -0.09    0.19
  -4   3   9   -0.04    0.14
  -4   3   9    0.00    0.10
   4   3  -9   -0.09    0.07
  -4   3   9    0.22    0.15
   4   3  -9   -0.10    0.09
  -3  -3   9    5.59    0.58
  -3  -3   9    7.53    0.60
   3  -3  -9    6.07    0.61
   3   3  -9    6.23    0.57
   3   3  -9    7.05    0.61
   3   3  -9    7.54    0.67
  -3   3   9    6.53    0.66
  -3   3   9    6.46    0.60
  -3   3   9    7.05    0.62
  -3   3   9    6.11    0.64
  -3   3   9    7.49    0.81
   2  -3  -9    5.61    0.53
  -2  -3   9    4.81    0.52
  -2  -3   9    5.68    0.51
  -2  -3   9    6.02    0.60
  -2   3   9    5.43    0.51
  -2   3   9    5.33    0.58
   2   3  -9    5.81    0.56
  -2   3   9    5.40    0.51
  -2   3   9    5.06    0.56
  -2   3   9    5.52    0.51
  -2   3   9    5.07    0.55
   2   3  -9    6.56    0.53
   2   3  -9    5.14    0.55
  -1  -3   9   35.91    3.26
   1  -3  -9   27.76    3.40
  -1  -3   9   34.41    3.54
  -1  -3   9   32.82    2.91
   1  -3  -9   29.06    3.09
  -1   3   9   32.75    3.19
   1   3  -9   33.18    3.03
   1   3  -9   31.18    3.03
  -1   3   9   33.55    4.12
  -1   3   9   33.19    3.01
   1   3  -9   30.59    3.14
   0  -3   9    6.51    0.61
   0  -3  -9    5.41    0.59
   0  -3   9    6.96    0.69
   0   3   9    5.57    0.55
   0   3  -9    6.20    0.63
   0   3  -9    5.67    0.59
   0   3  -9    6.05    0.57
   0   3   9    5.38    0.64
   1  -3   9   29.60    2.66
   1  -3   9   28.59    2.54
   1  -3   9   30.37    3.21
  -1  -3  -9   24.57    2.51
  -1   3  -9   25.90    2.48
   1   3   9   26.91    3.19
  -1   3  -9   27.87    2.93
  -1   3  -9   26.45    2.57
   2  -3   9    7.36    0.70
   2  -3   9    5.55    0.59
   2  -3   9    6.16    0.69
  -2  -3  -9    6.22    0.59
  -2   3  -9    5.60    0.60
  -2   3  -9    7.11    0.73
   2   3   9    6.91    0.69
   2   3   9    6.91    0.64
   3  -3   9    3.80    0.39
   3  -3   9    4.63    0.46
   3  -3   9    3.65    0.45
  -3  -3  -9    4.45    0.41
  -3   3  -9    3.93    0.40
   3   3   9    4.01    0.44
   3   3   9    3.86    0.44
  -3   3  -9    3.73    0.43
   4  -3   9    1.33    0.26
   4  -3   9    0.78    0.22
   4   3   9    0.76    0.28
   4   3   9    0.81    0.33
  -4   3  -9    1.12    0.20
   5  -3   9    1.04    0.30
   5  -3   9    1.75    0.34
   5   3   9    1.12    0.34
   5   3   9    1.24    0.32
   6  -3   9   -0.08    0.32
   6  -3   9    3.50    0.96
   6   3   9    0.20    0.37
   6   3   9   -0.35    0.31
  -6   3  -9   -0.02    0.21
   7  -3   9    0.01    0.29
   7  -3   9   -0.34    0.36
   7   3   9   -0.19    0.41
   7   3   9    0.20    0.45
   8  -3   9    0.50    0.41
   8  -3   9   -0.03    0.41
   8   3   9    0.13    0.38
   8   3   9    0.60    0.52
 -11  -4   9    0.34    0.88
  11  -4  -9   -0.35    0.37
 -11   4   9    0.05    0.47
 -11   4   9   -0.24    0.37
  11   4  -9    0.10    0.49
  10  -4  -9   -0.41    0.25
 -10  -4   9    0.17    0.34
 -10   4   9    0.01    0.31
 -10   4   9   -0.15    0.38
  10   4  -9    0.09    0.39
  -9  -4   9   -0.25    0.22
   9  -4  -9    0.10    0.21
  -9  -4   9    0.20    0.23
   9   4  -9    0.18    0.29
  -9   4   9    0.17    0.29
  -9   4   9   -0.15    0.32
  -8  -4   9    0.11    0.22
  -8  -4   9    0.13    0.20
   8  -4  -9   -0.05    0.20
  -8   4   9   -0.25    0.21
  -8   4   9    0.50    0.33
   8   4  -9   -0.03    0.33
   7  -4  -9    0.98    0.21
  -7  -4   9    0.69    0.22
  -7  -4   9    0.92    0.20
   7   4  -9    0.96    0.31
  -7   4   9    0.57    0.15
  -7   4   9    0.76    0.25
  -7   4   9    0.90    0.21
   7   4  -9    1.07    0.22
  -6  -4   9    7.28    0.61
   6  -4  -9    6.46    0.61
  -6  -4   9    7.58    0.64
  -6   4   9    5.59    0.60
  -6   4   9    6.42    0.76
  -6   4   9    6.35    0.66
   6   4  -9    6.34    0.64
   6   4  -9    5.89    0.66
  -6   4   9    6.46    0.60
  -6   4   9    6.87    0.64
   5  -4  -9    7.98    0.75
  -5  -4   9    8.11    0.75
  -5  -4   9    9.27    0.77
  -5   4   9    8.37    0.83
  -5   4   9    8.39    0.76
  -5   4   9    8.44    0.80
   5   4  -9    8.15    0.81
   5   4  -9    7.98    0.85
  -5   4   9    8.10    0.75
  -4  -4   9    0.00    0.11
  -4  -4   9   -0.10    0.13
   4  -4  -9   -0.02    0.18
   4   4  -9   -0.08    0.20
   4   4  -9   -0.05    0.09
  -4   4   9   -0.05    0.15
   4   4  -9   -0.11    0.10
  -4   4   9   -0.06    0.13
  -4   4   9    0.14    0.15
  -4   4   9   -0.06    0.12
  -3  -4   9    4.48    0.42
  -3  -4   9    4.61    0.44
   3  -4  -9    5.08    0.46
   3   4  -9    5.33    0.50
  -3   4   9    4.99    0.47
  -3   4   9    4.24    0.45
  -3   4   9    4.13    0.46
   3   4  -9    4.72    0.43
  -3   4   9    4.70    0.47
  -3   4   9    5.16    0.46
  -3   4   9    4.37    0.45
   3   4  -9    5.09    0.48
   2  -4  -9    1.20    0.18
  -2  -4   9    1.11    0.15
  -2  -4   9    1.50    0.18
  -2  -4   9    1.39    0.20
   2   4  -9    1.08    0.20
  -2   4   9    1.33    0.19
  -2   4   9    1.09    0.18
  -2   4   9    0.81    0.17
   2   4  -9    1.45    0.22
  -2   4   9    1.23    0.17
   2   4  -9    1.00    0.16
  -2   4   9    1.26    0.18
   1  -4  -9    0.09    0.11
  -1  -4   9    0.11    0.11
  -1  -4   9    0.01    0.11
  -1  -4   9   -0.06    0.16
  -1   4   9   -0.12    0.11
  -1   4   9    0.16    0.13
   1   4  -9    0.26    0.16
   1   4  -9    0.03    0.14
  -1   4   9    0.00    0.16
   1   4  -9    0.02    0.13
   0  -4  -9    0.18    0.12
   0  -4   9   -0.17    0.14
   0  -4   9   -0.05    0.12
   0  -4   9    0.04    0.12
   0   4  -9    0.00    0.05
   0   4  -9   -0.09    0.16
   0   4  -9    0.04    0.15
   0   4   9   -0.18    0.17
   0   4   9    0.10    0.11
   1  -4   9    1.35    0.16
   1  -4   9    1.70    0.25
   1  -4   9    1.42    0.20
  -1  -4  -9    1.77    0.20
  -1   4  -9    1.66    0.21
  -1   4  -9    1.68    0.23
  -1   4  -9    1.97    0.17
   1   4   9    1.97    0.26
   1   4   9    1.10    0.16
  -2  -4  -9    0.13    0.12
   2  -4   9    0.02    0.20
   2  -4   9    0.29    0.18
   2  -4   9    0.51    0.13
   2   4   9    0.10    0.21
  -2   4  -9    0.29    0.13
  -2   4  -9    0.35    0.15
   3  -4   9    4.29    0.49
   3  -4   9    4.70    0.54
   3  -4   9    4.06    0.43
  -3  -4  -9    4.28    0.42
  -3   4  -9    3.29    0.42
   3   4   9    4.34    0.47
  -3   4  -9    4.81    0.44
   3   4   9    4.47    0.48
   4  -4   9   -0.26    0.18
   4  -4   9    0.09    0.21
  -4  -4  -9    0.04    0.15
   4   4   9   -0.21    0.25
   4   4   9    0.32    0.30
  -4   4  -9    0.03    0.17
   5  -4   9    0.57    0.24
   5  -4   9    0.39    0.27
   5   4   9    0.41    0.28
   5   4   9    1.03    0.32
  -5   4  -9    0.93    0.22
   6  -4   9    2.47    0.39
   6  -4   9    2.92    0.38
   6   4   9    2.78    0.43
   6   4   9    2.17    0.48
   7  -4   9   -0.11    0.29
   7  -4   9    0.20    0.34
   7   4   9   -0.62    0.48
   7   4   9   -0.38    0.34
   8  -4   9   -0.04    0.43
   8  -4   9   -0.01    0.40
   8   4   9    0.35    0.56
   8   4   9    0.36    0.46
 -10  -5   9    0.21    0.30
  10  -5  -9   -0.17    0.31
 -10   5   9    0.58    0.40
  10   5  -9    0.41    0.25
 -10   5   9    0.29    0.32
  -9  -5   9    0.32    0.24
  -9  -5   9    0.19    0.30
   9  -5  -9    0.42    0.27
  -9   5   9    0.79    0.35
   9   5  -9    0.55    0.33
  -9   5   9    0.22    0.29
  -8  -5   9    0.56    0.27
   8  -5  -9    0.72    0.23
  -8  -5   9    0.59    0.69
  -8   5   9    0.85    0.31
   8   5  -9   -0.35    0.35
  -8   5   9    1.13    0.99
   8   5  -9    0.55    0.28
  -7  -5   9    1.91    0.27
   7  -5  -9    1.88    0.28
  -7  -5   9    2.04    0.30
  -7   5   9    1.75    0.34
   7   5  -9    1.98    0.28
  -7   5   9    2.08    0.29
   7   5  -9    2.09    0.38
  -6  -5   9    0.04    0.19
   6  -5  -9    0.42    0.18
  -6  -5   9    0.09    0.18
   6   5  -9    0.01    0.18
  -6   5   9    0.18    0.15
  -6   5   9    0.07    0.22
   6   5  -9   -0.09    0.26
  -6   5   9   -0.05    0.16
  -5  -5   9    3.22    0.33
  -5  -5   9    2.98    0.32
   5   5  -9    3.16    0.32
  -5   5   9    2.66    0.33
  -5   5   9    2.78    0.32
  -5   5   9    2.98    0.37
   5   5  -9    2.98    0.38
   5   5  -9    3.26    0.31
  -5   5   9    2.28    0.30
   4  -5  -9    4.09    0.41
  -4  -5   9    3.25    0.36
  -4  -5   9    3.90    0.37
  -4   5   9    3.92    0.44
   4   5  -9    3.53    0.43
  -4   5   9    3.53    0.38
  -4   5   9    3.55    0.38
   4   5  -9    3.93    0.40
   4   5  -9    3.49    0.36
  -4   5   9    4.13    0.38
   4   5  -9    3.91    0.42
  -3  -5   9    0.33    0.14
   3  -5  -9    0.42    0.17
  -3  -5   9    0.72    0.16
  -3  -5   9    0.67    0.11
  -3   5   9    0.30    0.17
   3   5  -9    0.77    0.22
   3   5  -9    0.60    0.21
  -3   5   9    0.17    0.16
  -3   5   9    0.14    0.17
   3   5  -9    0.67    0.11
   3   5  -9    0.66    0.13
  -3   5   9    0.51    0.17
  -2  -5   9    4.58    0.42
  -2  -5   9    4.16    0.42
   2  -5  -9    4.85    0.44
   2   5  -9    5.08    0.44
  -2   5   9    3.40    0.45
   2   5  -9    5.32    0.54
   2   5  -9    4.96    0.47
   2   5  -9    5.26    0.41
  -2   5   9    3.88    0.44
  -2   5   9    4.26    0.49
  -2   5   9    3.59    0.45
   2   5  -9    5.03    0.46
  -1  -5   9   10.15    0.88
  -1  -5   9    9.65    0.87
   1  -5  -9    7.72    0.92
   1   5  -9    9.23    0.87
   1   5  -9    9.55    0.80
  -1   5   9    8.54    0.84
  -1   5   9    7.93    0.86
   1   5  -9    9.01    0.91
  -1   5   9    8.89    0.93
   1   5  -9    9.21    0.83
   0  -5   9    0.56    0.15
   0  -5   9    0.28    0.12
   0  -5  -9    0.42    0.11
   0  -5   9    0.21    0.18
   0   5   9    0.19    0.19
   0   5  -9    0.27    0.17
   0   5  -9    0.92    0.28
   0   5  -9    0.42    0.08
   0   5   9    0.38    0.15
   1  -5   9   17.70    1.48
  -1  -5  -9   12.57    1.35
   1  -5   9   14.81    1.49
  -1   5  -9   15.68    1.41
  -1   5  -9   15.33    1.65
   1   5   9   13.06    1.30
  -1   5  -9   15.29    1.36
   1   5   9   14.90    2.26
   2  -5   9    0.19    0.23
   2  -5   9   -0.11    0.14
  -2  -5  -9    0.29    0.12
   2  -5   9    0.13    0.13
  -2   5  -9    0.31    0.13
   2   5   9    0.05    0.06
  -2   5  -9    0.09    0.17
   2   5   9    0.22    0.24
   3  -5   9   15.63    1.47
   3  -5   9   18.15    1.62
   3  -5   9   18.29    1.89
  -3  -5  -9   13.84    1.45
  -3   5  -9   14.92    1.47
   3   5   9   15.52    1.59
  -3   5  -9   17.29    1.65
   3   5   9   14.32    1.61
   4  -5   9    2.26    0.35
   4  -5   9    2.33    0.32
  -4  -5  -9    2.72    0.29
   4   5   9    2.21    0.43
   4   5   9    2.69    0.40
  -4   5  -9    3.35    0.34
   5  -5   9    3.74    0.44
  -5  -5  -9    3.81    0.39
   5  -5   9    4.57    0.49
   5   5   9    4.16    0.56
   5   5   9    3.07    0.54
   6  -5   9    0.06    0.29
   6  -5   9    0.66    0.33
   6   5   9    0.76    0.36
  -6   5  -9   -0.05    0.24
   6   5   9    0.68    0.55
   7  -5   9   -0.02    0.38
   7  -5   9    0.22    0.34
   7   5   9   -0.65    0.49
   7   5   9    0.85    0.47
   8  -5   9   -0.18    0.41
   8  -5   9   -0.56    0.44
   8   5   9    0.27    0.48
   8   5   9   -0.46    0.49
  10  -6  -9   -0.15    0.32
 -10  -6   9    0.70    0.38
  10   6  -9    0.13    0.17
 -10   6   9    0.54    0.51
   9  -6  -9    0.29    0.28
  -9  -6   9    0.05    0.21
  -9  -6   9   -0.06    0.31
   9   6  -9    0.32    0.35
  -9   6   9   -0.25    0.42
  -9   6   9    0.10    0.26
   8  -6  -9    0.34    0.24
  -8  -6   9    0.16    0.19
  -8  -6   9    0.16    0.27
   8   6  -9    0.24    0.29
  -8   6   9    0.61    0.32
  -8   6   9   -0.05    0.25
   8   6  -9   -0.01    0.36
  -7  -6   9    0.14    0.18
  -7  -6   9    0.29    0.21
   7  -6  -9   -0.09    0.21
  -7   6   9    0.03    0.26
   7   6  -9    0.01    0.25
   7   6  -9   -0.51    0.31
  -7   6   9    0.00    0.22
   6  -6  -9   -0.03    0.12
  -6  -6   9    0.40    0.16
  -6  -6   9    0.44    0.30
   6   6  -9   -0.15    0.26
   6   6  -9    0.54    0.19
  -6   6   9    0.18    0.19
  -6   6   9    0.11    0.23
  -5  -6   9    0.46    0.17
  -5  -6   9    0.25    0.19
   5   6  -9    0.47    0.30
  -5   6   9    0.37    0.17
  -5   6   9    0.09    0.16
   5   6  -9    0.47    0.17
   5   6  -9    0.23    0.25
   5   6  -9    0.35    0.10
  -5   6   9    0.22    0.19
  -5   6   9    0.57    0.26
  -4  -6   9    2.37    0.27
  -4  -6   9    2.27    0.27
   4   6  -9    2.31    0.36
  -4   6   9    2.16    0.30
   4   6  -9    2.36    0.26
   4   6  -9    2.14    0.33
  -4   6   9    1.84    0.28
  -4   6   9    1.74    0.26
   4   6  -9    2.32    0.25
   3  -6  -9    0.74    0.15
  -3  -6   9    0.92    0.18
  -3  -6   9    1.12    0.19
  -3   6   9    0.87    0.20
  -3   6   9    0.73    0.19
  -3   6   9    0.84    0.18
   3   6  -9    0.89    0.24
   3   6  -9    1.14    0.16
   3   6  -9    0.75    0.15
   3   6  -9    0.87    0.26
  -2  -6   9   60.05    5.53
  -2  -6   9   63.74    5.45
  -2  -6   9   65.31    5.41
   2  -6  -9   52.32    5.98
   2   6  -9   61.57    5.76
  -2   6   9   55.79    5.94
   2   6  -9   62.13    6.25
  -2   6   9   60.54    7.13
  -2   6   9   61.95    6.19
   2   6  -9   61.57    5.68
   2   6  -9   70.20    6.67
   2   6  -9   61.72    5.57
  -1  -6   9    7.75    0.68
  -1  -6   9    7.69    0.69
  -1  -6   9    8.74    0.70
   1  -6  -9    6.57    0.71
  -1   6   9    6.13    0.69
  -1   6   9    6.78    0.69
  -1   6   9    6.59    0.74
   1   6  -9    8.53    0.67
   1   6  -9    7.34    0.72
   1   6  -9    7.67    0.73
   0  -6   9   12.85    1.33
   0  -6   9   14.48    1.22
   0  -6  -9   11.11    1.10
   0  -6  -9   11.88    1.17
   0   6   9   10.04    1.15
   0   6  -9   12.28    1.19
   0   6  -9   14.70    1.20
   0   6  -9   13.77    1.12
   0   6   9   11.23    1.09
  -1  -6  -9    3.15    0.35
   1  -6   9    4.21    0.39
   1  -6   9    3.82    0.40
  -1  -6  -9    3.73    0.41
  -1   6  -9    4.30    0.37
   1   6   9    3.37    0.43
  -1   6  -9    4.70    0.43
  -1   6  -9    3.33    0.40
   1   6   9    2.87    0.36
   2  -6   9   23.01    2.00
  -2  -6  -9   20.17    1.83
  -2  -6  -9   18.19    1.91
   2   6   9   17.63    1.98
   2   6   9   16.90    1.85
  -2   6  -9   22.93    1.86
  -2   6  -9   22.05    2.00
   3  -6   9    4.25    0.45
   3  -6   9    4.42    0.48
  -3  -6  -9    4.30    0.44
  -3  -6  -9    4.29    0.51
   3   6   9    4.33    0.53
  -3   6  -9    4.60    0.52
  -3   6  -9    5.72    0.57
  -4  -6  -9    4.20    0.40
   4  -6   9    4.18    0.46
  -4  -6  -9    4.09    0.45
   4  -6   9    3.66    0.42
   4   6   9    3.56    0.52
   4   6   9    3.69    0.50
   5  -6   9   -0.23    0.24
   5  -6   9   -0.18    0.23
  -5  -6  -9   -0.18    0.18
   5   6   9   -0.07    0.31
  -5   6  -9    0.24    0.23
   5   6   9   -0.38    0.34
   6  -6   9    1.68    0.34
   6  -6   9    1.67    0.36
  -6   6  -9    2.35    0.36
   6   6   9    1.34    0.42
   6   6   9    1.99    0.51
   7  -6   9    0.06    0.38
   7  -6   9   -0.04    0.35
   7   6   9    0.77    0.53
   7   6   9   -0.06    0.49
   8  -6   9    0.45    0.46
   8  -6   9    1.11    0.39
   8   6   9    1.09    0.57
  10  -7  -9   -0.06    0.28
 -10  -7   9   -0.21    0.31
 -10   7   9    4.18    1.57
  10   7  -9    0.20    0.48
   9  -7  -9    0.84    0.31
  -9  -7   9    1.09    0.30
  -9  -7   9    0.22    0.26
   9   7  -9    0.82    0.38
  -9   7   9   -0.21    0.62
  -8  -7   9    0.00    0.27
   8  -7  -9    0.20    0.26
  -8  -7   9    0.16    0.23
  -8   7   9    0.15    0.32
  -8   7   9    0.08    0.25
   8   7  -9   -0.36    0.30
   8   7  -9   -0.30    0.37
  -7  -7   9    4.65    0.47
  -7  -7   9    3.82    0.44
   7   7  -9    4.48    0.51
   7   7  -9    4.41    0.54
  -7   7   9    3.56    0.53
  -7   7   9    4.18    0.44
  -6  -7   9    0.45    0.21
  -6  -7   9    0.38    0.22
  -6   7   9    0.38    0.20
  -6   7   9    0.29    0.25
   6   7  -9    0.28    0.25
   6   7  -9    0.04    0.42
  -5  -7   9    7.34    0.62
  -5  -7   9    5.80    0.61
   5   7  -9    7.21    0.68
  -5   7   9    5.32    0.70
  -5   7   9    6.71    0.63
  -5   7   9    6.20    0.64
   5   7  -9    6.26    0.65
   5   7  -9    6.88    0.68
  -4  -7   9    2.83    0.35
  -4  -7   9    4.04    0.36
  -4   7   9    2.60    0.34
  -4   7   9    2.61    0.39
   4   7  -9    3.47    0.42
  -4   7   9    2.51    0.37
   4   7  -9    4.24    0.44
   4   7  -9    3.77    0.38
   4   7  -9    3.86    0.35
  -3  -7   9    6.94    0.56
  -3  -7   9    6.67    0.57
   3   7  -9    6.35    0.61
  -3   7   9    5.28    0.59
   3   7  -9    5.63    0.59
  -3   7   9    4.92    0.56
   3   7  -9    6.32    0.60
   3   7  -9    5.19    0.62
  -3   7   9    5.66    0.64
  -2  -7   9   -0.04    0.08
  -2  -7   9    0.17    0.14
  -2  -7   9    0.31    0.18
   2   7  -9    0.07    0.22
  -2   7   9    0.16    0.21
   2   7  -9   -0.23    0.24
  -2   7   9   -0.10    0.21
  -2   7   9   -0.09    0.19
   2   7  -9    0.62    0.13
  -1  -7   9    0.04    0.13
   1  -7  -9    0.07    0.17
   1  -7  -9   -0.03    0.10
  -1  -7   9    0.10    0.16
  -1  -7   9   -0.01    0.14
   1   7  -9    0.13    0.11
  -1   7   9    0.03    0.20
  -1   7   9   -0.04    0.15
   1   7  -9   -0.19    0.22
  -1   7   9   -0.01    0.15
   1   7  -9   -0.35    0.19
   0  -7   9    8.65    0.74
   0  -7  -9    8.08    0.77
   0  -7   9    8.54    0.74
   0  -7  -9    6.67    0.75
   0  -7   9    8.04    0.73
   0   7  -9    7.37    0.79
   0   7  -9    8.01    0.77
   0   7   9    6.97    0.79
   0   7  -9    9.04    0.78
  -1  -7  -9   12.01    1.39
  -1  -7  -9   13.47    1.41
   1  -7   9   15.91    1.45
   1  -7   9   16.43    1.42
   1  -7   9   15.87    1.46
  -1   7  -9   16.71    1.39
   1   7   9   14.86    1.48
  -1   7  -9   17.75    1.56
  -1   7  -9   19.14    1.69
   2  -7   9    0.44    0.24
  -2  -7  -9    0.99    0.24
  -2  -7  -9    0.67    0.16
  -2  -7  -9    0.63    0.12
   2  -7   9    0.89    0.22
   2  -7   9    0.88    0.20
   2  -7   9    0.96    0.19
  -2   7  -9    1.12    0.26
  -2   7  -9    0.90    0.19
   2   7   9    0.63    0.30
  -3  -7  -9   37.78    3.58
  -3  -7  -9   31.78    3.55
   3  -7   9   39.50    3.47
   3  -7   9   41.75    3.69
   3  -7   9   39.21    3.88
   3   7   9   34.36    3.67
  -3   7  -9   44.73    4.11
  -4  -7  -9    0.01    0.24
   4  -7   9    0.12    0.22
   4  -7   9    0.49    0.21
   4  -7   9    0.55    0.18
  -4   7  -9    0.64    0.42
   4   7   9   -0.07    0.33
   4   7   9   -0.04    0.34
  -5  -7  -9   -0.09    0.26
   5  -7   9   -0.05    0.21
   5  -7   9    0.08    0.30
   5  -7   9    0.45    0.29
   5   7   9    0.26    0.43
  -5   7  -9    0.18    0.25
   5   7   9   -0.07    0.36
   6  -7   9   -0.49    0.31
   6  -7   9    0.47    0.28
  -6  -7  -9    0.21    0.22
   6   7   9    0.41    0.51
   6   7   9    0.42    0.47
  -6   7  -9   -0.01    0.34
   7  -7   9    1.26    0.41
   7  -7   9    1.89    0.44
   7   7   9    0.88    0.55
   7   7   9    0.36    0.58
   9  -8  -9    1.59    0.32
  -9  -8   9    0.86    0.38
  -9  -8   9    1.33    0.36
  -9   8   9    0.47    0.45
   9   8  -9    1.18    0.39
  -8  -8   9   -0.22    0.29
  -8  -8   9   -0.20    0.30
   8   8  -9   -0.20    0.34
  -8   8   9   -0.11    0.36
   8   8  -9   -0.02    0.40
  -7  -8   9    2.50    0.34
  -7  -8   9    1.49    0.30
  -7   8   9    2.32    0.41
   7   8  -9    1.14    0.48
   7   8  -9    2.72    0.48
  -6  -8   9    0.25    0.18
  -6  -8   9    0.21    0.24
  -6   8   9    0.37    0.29
   6   8  -9   -0.05    0.29
   6   8  -9    0.70    0.29
   6   8  -9    0.10    0.26
  -6   8   9    0.27    0.21
  -5  -8   9    0.92    0.24
  -5  -8   9    1.03    0.21
   5   8  -9    1.02    0.26
   5   8  -9    0.36    0.28
   5   8  -9    1.14    0.35
  -5   8   9    0.96    0.34
  -5   8   9    0.93    0.22
  -4  -8   9   -0.20    0.18
  -4  -8   9    0.28    0.17
   4   8  -9    0.09    0.27
   4   8  -9   -0.04    0.20
  -4   8   9    0.03    0.23
   4   8  -9   -0.01    0.23
  -4   8   9   -0.06    0.18
  -4   8   9   -0.28    0.28
   4   8  -9    0.12    0.21
  -3  -8   9    4.32    0.44
  -3  -8   9    4.49    0.42
   3   8  -9    4.04    0.50
  -3   8   9    3.85    0.48
   3   8  -9    4.89    0.48
   3   8  -9    4.74    0.44
  -3   8   9    3.85    0.44
  -3   8   9    4.28    0.50
   2  -8  -9    2.87    0.33
  -2  -8   9    2.92    0.29
  -2  -8   9    2.72    0.31
   2   8  -9    2.50    0.37
  -2   8   9    1.70    0.34
  -2   8   9    2.99    0.32
   2   8  -9    2.66    0.37
   2   8  -9    3.01    0.28
  -2   8   9    1.96    0.35
  -1  -8   9    0.13    0.18
   1  -8  -9    0.32    0.21
  -1  -8   9    0.21    0.13
  -1  -8   9   -0.03    0.10
  -1   8   9    0.11    0.20
  -1   8   9    0.12    0.19
   1   8  -9    0.33    0.21
   1   8  -9    0.10    0.13
   1   8  -9    0.06    0.25
   0  -8   9    1.79    0.24
   0  -8   9    1.85    0.25
   0  -8   9    1.88    0.23
   0  -8  -9    1.77    0.29
   0  -8  -9    1.78    0.29
   0   8  -9    2.15    0.34
   0   8  -9    1.96    0.32
   0   8  -9    2.08    0.23
   0   8   9    1.60    0.29
   1  -8   9    6.38    0.55
  -1  -8  -9    4.68    0.53
  -1  -8  -9    4.00    0.57
   1  -8   9    6.04    0.56
   1  -8   9    5.48    0.51
  -1   8  -9    6.52    0.59
   1   8   9    4.36    0.52
  -1   8  -9    4.71    0.53
  -1   8  -9    6.23    0.57
   1   8   9    3.96    0.52
  -2  -8  -9    1.32    0.27
   2  -8   9    1.16    0.22
   2  -8   9    1.75    0.21
   2  -8   9    0.98    0.24
   2   8   9    0.63    0.22
  -2   8  -9    1.63    0.32
   2   8   9    0.73    0.35
   3  -8   9    0.59    0.23
  -3  -8  -9    0.60    0.25
   3  -8   9    1.00    0.23
   3  -8   9    0.35    0.24
   3   8   9    0.51    0.35
  -3   8  -9    0.87    0.31
   4  -8   9    1.22    0.25
   4  -8   9    0.83    0.28
  -4  -8  -9    0.77    0.28
   4  -8   9    0.44    0.25
   4   8   9    0.29    0.36
  -4   8  -9    0.75    0.31
   4   8   9    0.60    0.39
   5  -8   9    1.32    0.27
   5  -8   9    0.94    0.30
  -5  -8  -9    1.04    0.32
   5  -8   9    1.06    0.32
   5   8   9    0.49    0.49
  -5   8  -9    2.02    0.35
   5   8   9    0.85    0.42
   6  -8   9    1.91    0.41
  -6  -8  -9    1.88    0.39
   6  -8   9    1.48    0.39
   6   8   9    1.46    0.59
   6   8   9    1.11    0.47
  -6   8  -9    2.85    0.42
  -7  -8  -9   -0.16    0.26
   7  -8   9    0.27    0.41
   7   8   9    0.30    0.58
   7   8   9   -0.53    0.59
  -9  -9   9    0.63    0.38
  -9  -9   9    0.50    0.39
   9   9  -9   -0.19    0.55
  -9   9   9   -0.31    0.48
  -8  -9   9   -0.11    0.28
  -8  -9   9    0.23    0.28
   8   9  -9    0.11    0.43
  -8   9   9    0.95    0.50
  -7  -9   9    1.27    0.33
  -7  -9   9    1.62    0.30
   7   9  -9    0.28    0.38
  -7   9   9    1.02    0.46
   7   9  -9    0.40    0.39
  -6  -9   9    0.06    0.23
  -6  -9   9   -0.11    0.23
  -6   9   9   -0.03    0.32
   6   9  -9   -0.19    0.32
   6   9  -9   -0.01    0.37
   6   9  -9    0.00    0.32
  -5  -9   9    0.63    0.22
  -5  -9   9    0.57    0.22
   5   9  -9    0.96    0.30
  -5   9   9    0.80    0.35
   5   9  -9    0.92    0.30
   5   9  -9    0.55    0.35
  -4  -9   9    0.33    0.17
  -4  -9   9    0.11    0.19
   4   9  -9    0.44    0.29
  -4   9   9    0.27    0.33
   4   9  -9   -0.06    0.31
   4   9  -9    0.55    0.25
  -4   9   9    0.37    0.27
  -4   9   9    0.17    0.19
  -3  -9   9   -0.11    0.23
   3  -9  -9    0.20    0.22
  -3  -9   9    0.07    0.18
  -3   9   9    0.15    0.21
   3   9  -9    0.30    0.32
   3   9  -9   -0.04    0.29
  -3   9   9    0.19    0.27
  -3   9   9    0.02    0.28
  -2  -9   9    1.26    0.25
   2  -9  -9    1.08    0.25
  -2  -9   9    1.17    0.18
  -2   9   9    0.73    0.30
  -2   9   9    1.08    0.25
   2   9  -9    0.42    0.25
  -2   9   9    0.58    0.28
   2   9  -9    0.95    0.31
  -1  -9   9   -0.12    0.22
  -1  -9   9    0.36    0.14
   1  -9  -9    0.21    0.23
   1   9  -9    0.14    0.58
  -1   9   9    0.04    0.28
  -1   9   9    0.05    0.29
   1   9  -9    0.19    0.28
   0  -9   9    1.13    0.17
   0  -9   9    0.80    0.19
   0  -9  -9    0.47    0.25
   0   9   9    0.75    0.27
   0   9  -9    0.46    0.24
   0   9   9    0.92    0.33
   0   9  -9    0.74    0.31
  -1  -9  -9   -0.04    0.24
   1  -9   9    0.28    0.14
   1  -9   9    0.38    0.21
   1  -9   9    0.26    0.20
  -1   9  -9    0.14    0.23
   1   9   9    0.13    0.33
   1   9   9    0.23    0.26
  -1   9  -9    0.22    0.33
   2  -9   9    0.23    0.20
   2  -9   9    0.11    0.23
  -2  -9  -9    0.17    0.25
   2  -9   9   -0.17    0.14
   2   9   9    0.04    0.34
  -2   9  -9    0.04    0.25
  -3  -9  -9    0.53    0.30
   3  -9   9    0.76    0.23
   3  -9   9    0.86    0.24
  -3   9  -9    1.45    0.36
   3   9   9    1.30    0.58
   4  -9   9    1.11    0.31
  -4  -9  -9    0.39    0.30
   4  -9   9    1.12    0.28
   4   9   9    0.72    0.42
  -4   9  -9    1.37    0.36
  -5  -9  -9    0.15    0.31
   5  -9   9    0.83    0.28
  -5   9  -9    0.73    0.37
   5   9   9    0.55    0.43
   5   9   9    0.01    0.51
  -6  -9  -9    0.02    0.36
   6  -9   9    0.74    0.41
  -6   9  -9    0.62    0.39
   6   9   9   -0.05    0.48
   6   9   9   -0.42    0.60
  -8 -10   9   -0.35    0.34
  -8 -10   9   -0.17    0.30
   8  10  -9    0.24    0.35
  -8  10   9    0.37    0.45
  -7 -10   9   -0.55    0.28
  -7 -10   9    0.01    0.30
  -7  10   9    0.34    0.37
   7  10  -9    0.25    0.35
  -6 -10   9    0.18    0.32
  -6 -10   9    0.22    0.25
   6  10  -9   -0.17    0.34
   6  10  -9    0.46    0.40
  -6  10   9    0.18    0.43
   6  10  -9    0.42    0.35
  -5 -10   9    2.04    0.35
  -5 -10   9    2.93    0.36
  -5  10   9    1.85    0.42
   5  10  -9    2.27    0.46
   5  10  -9    3.16    0.41
   5  10  -9    3.06    0.49
  -4 -10   9    1.56    0.25
  -4 -10   9    1.18    0.29
   4  10  -9    0.69    0.33
  -4  10   9    0.72    0.38
   4  10  -9    0.79    0.39
   4  10  -9    0.87    0.26
  -4  10   9    1.15    0.27
  -3 -10   9   -0.10    0.18
  -3 -10   9   -0.12    0.23
   3 -10  -9    0.08    0.23
   3  10  -9    0.22    0.63
  -3  10   9    0.07    0.32
  -3  10   9   -0.05    0.32
   3  10  -9   -0.22    0.32
   2 -10  -9    6.15    0.61
  -2 -10   9    6.84    0.56
  -2 -10   9    6.14    0.59
  -2  10   9    4.86    0.64
   2  10  -9    5.40    0.66
  -2  10   9    5.64    0.65
   2  10  -9    5.88    0.64
  -2  10   9    5.61    0.60
  -1 -10   9    0.01    0.18
   1 -10  -9    0.10    0.26
  -1 -10   9    0.02    0.15
   1  10  -9   -0.26    0.31
  -1  10   9    0.01    0.33
   1  10  -9    0.10    0.31
  -1  10   9   -0.06    0.35
   0 -10  -9    0.63    0.28
   0 -10   9    1.54    0.18
   0 -10   9    1.14    0.25
   0  10   9    1.14    0.40
   0  10  -9    0.86    0.31
   0  10  -9    1.07    0.37
   0  10   9    0.18    0.33
  -1 -10  -9    0.02    0.27
   1 -10   9    0.52    0.23
   1 -10   9    0.17    0.26
   1  10   9    0.17    0.28
  -1  10  -9    0.10    0.25
   1  10   9    0.33    0.30
  -1  10  -9    0.52    0.37
  -2 -10  -9    0.26    0.28
   2 -10   9    0.25    0.23
   2 -10   9   -0.02    0.17
  -2  10  -9    0.11    0.35
   2  10   9    0.28    0.41
   3 -10   9   -0.33    0.28
   3 -10   9   -0.01    0.23
  -3 -10  -9   -0.10    0.30
   3  10   9    0.89    0.45
  -3  10  -9   -0.24    0.36
   4 -10   9    2.91    0.36
   4 -10   9    1.93    0.41
  -4 -10  -9    2.47    0.55
  -4  10  -9    3.76    0.51
   4  10   9    1.96    0.52
  -5 -10  -9    0.54    0.36
   5 -10   9    0.16    0.29
   5  10   9   -0.43    0.46
  -5  10  -9    0.40    0.51
   5  10   9    0.83    0.58
  -6 -10  -9    0.79    0.42
   6 -10   9    0.93    0.37
  -6  10  -9    0.84    0.43
  -7 -11   9    0.62    0.34
  -7 -11   9    0.44    0.32
   7  11  -9    0.66    0.38
  -7  11   9    0.30    0.41
  -6 -11   9    0.20    0.29
  -6 -11   9   -0.32    0.35
  -6  11   9   -0.15    0.45
   6  11  -9   -0.27    0.68
  -5 -11   9    0.49    0.34
  -5 -11   9    0.33    0.23
  -5  11   9    0.46    0.41
   5  11  -9    0.47    0.31
   5  11  -9    0.21    0.34
   5  11  -9    0.17    0.42
   4 -11  -9    0.14    0.26
  -4 -11   9    0.35    0.23
  -4 -11   9    0.23    0.26
  -4  11   9    0.08    0.27
   4  11  -9   -0.17    0.49
   4  11  -9    0.73    0.33
   4  11  -9    1.75    0.60
  -4  11   9    0.31    0.38
  -3 -11   9   -0.33    0.28
   3 -11  -9   -0.02    0.26
   3  11  -9    0.03    0.30
   3  11  -9    0.88    0.45
  -3  11   9    0.05    0.25
  -2 -11   9    0.32    0.17
  -2 -11   9    0.20    0.25
   2 -11  -9    0.39    0.28
   2  11  -9    0.05    0.44
  -2  11   9   -0.15    0.35
   2  11  -9   -0.32    0.34
  -2  11   9   -0.04    0.39
  -1 -11   9    9.20    0.81
   1 -11  -9    8.26    0.85
   1  11  -9   10.53    0.98
   1  11  -9    8.83    0.84
  -1  11   9    6.94    0.87
  -1  11   9    8.32    0.90
   0 -11   9    0.38    0.20
   0 -11  -9    0.56    0.31
   0  11  -9   -0.21    0.31
   0  11   9    0.02    0.37
   0  11  -9    0.19    0.39
   0  11   9    0.14    0.44
   1 -11   9   10.65    0.94
  -1 -11  -9    9.09    0.94
  -1  11  -9    9.32    0.96
  -1  11  -9   11.06    1.04
   1  11   9    7.60    0.95
   2 -11   9    0.47    0.31
  -2 -11  -9    0.28    0.32
  -2  11  -9    0.23    0.30
  -2  11  -9    0.28    0.39
   2  11   9    0.65    0.44
  -3 -11  -9    2.52    0.46
   3 -11   9    2.88    0.39
  -3  11  -9    4.04    0.54
   3  11   9    2.23    0.59
   4 -11   9   -0.05    0.26
  -4 -11  -9    0.17    0.36
   4  11   9   -0.15    0.51
  -4  11  -9    0.08    0.43
  -5 -11  -9    0.15    0.41
   5  11   9    0.81    0.54
  -5  11  -9    0.47    0.47
   5  11   9    0.53    0.68
  -6 -12   9   -0.21    0.32
  -6 -12   9    0.53    0.29
   6  12  -9    0.54    0.50
  -6  12   9   -0.09    0.47
  -5 -12   9    0.14    0.38
  -5 -12   9    0.03    0.25
   5  12  -9    0.05    0.44
  -5  12   9    0.36    0.47
  -5  12   9    0.07    0.26
   4 -12  -9    0.44    0.35
  -4 -12   9    0.26    0.30
  -4 -12   9    0.67    0.43
   4  12  -9    0.70    0.44
  -4  12   9    0.47    0.42
  -4  12   9    0.64    1.51
  -3 -12   9    0.40    0.27
   3 -12  -9   -0.09    0.29
  -3  12   9   -0.23    0.42
   3  12  -9    0.41    0.41
   3  12  -9    0.49    0.41
  -3  12   9    0.94    0.45
   2 -12  -9    2.48    0.40
  -2 -12   9    2.32    0.36
  -2  12   9    1.68    0.45
   2  12  -9    1.77    0.56
   2  12  -9    2.34    0.40
  -2  12   9    2.50    0.81
  -1 -12   9    0.97    0.28
   1 -12  -9    1.32    0.36
   1  12  -9    1.03    0.34
  -1  12   9    0.95    0.49
  -1  12   9    0.55    0.44
   1  12  -9    2.59    0.46
   0 -12  -9   -0.07    0.33
   0 -12   9    0.13    0.23
   0  12   9    0.40    0.36
   0  12  -9   -0.02    0.42
   0  12   9    0.16    0.40
   0  12  -9   -0.09    0.34
   1 -12   9    0.30    0.28
  -1 -12  -9   -0.25    0.34
  -1  12  -9   -0.21    0.36
  -1  12  -9   -0.27    0.38
   1  12   9    0.43    0.52
   2 -12   9    0.83    0.26
  -2 -12  -9    0.73    0.37
   2  12   9    0.89    0.37
  -2  12  -9    0.10    0.45
  -2  12  -9    0.29    0.40
  -3 -12  -9    0.23    0.38
   3 -12   9   -0.11    0.30
  -3  12  -9    0.19    0.45
   3  12   9   -0.67    0.53
  -4 -12  -9    1.28    0.45
  -4  12  -9    1.39    0.50
   4  12   9    0.97    0.60
  -5 -13   9    2.69    0.88
  -5  13   9    0.49    0.53
  -5  13   9    0.11    0.47
   5  13  -9    0.23    0.63
   4 -13  -9    0.38    0.32
  -4 -13   9    0.14    0.32
   4  13  -9    0.51    0.48
  -4  13   9    0.31    0.35
  -4  13   9    2.87    0.74
   3 -13  -9    0.40    0.37
  -3 -13   9    0.59    0.32
  -3  13   9    0.29    0.49
  -3  13   9   -0.14    0.41
   3  13  -9    0.05    0.45
   2 -13  -9    0.03    0.34
  -2 -13   9   -0.26    0.30
  -2  13   9    0.69    0.52
  -2  13   9    0.46    0.47
   2  13  -9   -0.32    0.45
   1 -13  -9    0.38    0.36
  -1 -13   9   -0.35    0.35
   1  13  -9    0.05    0.35
   1  13  -9   -0.46    0.56
  -1  13   9    0.10    0.53
  -1  13   9   -0.16    0.47
   0 -13  -9   -0.45    0.37
   0 -13   9   -0.24    0.28
   0  13   9    0.22    0.41
   0  13  -9   -0.47    0.48
   0  13  -9    0.58    0.32
  -1 -13  -9   -0.34    0.40
   1 -13   9    0.25    0.29
   1  13   9    0.24    0.41
  -1  13  -9   -0.22    0.40
  -1  13  -9    0.29    0.42
   2 -13   9    0.81    0.31
  -2 -13  -9    0.64    0.42
  -2  13  -9    0.43    0.45
   2  13   9    0.01    0.57
  -2  13  -9    0.88    0.51
   3 -14  -9   -0.12    0.36
   2 -14  -9    0.38    0.40
  -2 -14   9    0.18    0.33
  -2  14   9   -0.14    0.52
  -2  14   9    0.07    0.59
   2  14  -9    0.37    0.51
   1 -14  -9   -0.38    0.41
  -1 -14   9   -0.16    0.33
  -1  14   9   -0.06    0.63
  -1  14   9   -0.44    0.56
   1  14  -9    0.21    0.51
   0 -14   9    0.79    0.42
   0 -14  -9    1.54    0.45
   0  14  -9    0.97    0.46
   0  14   9    0.17    0.67
  11   0 -10   -0.07    0.30
 -11   0  10    0.18    0.40
  10   0 -10   -0.39    0.23
 -10   0  10   -0.10    0.31
  -9   0  10    0.07    0.21
   9   0 -10   -0.24    0.28
  -8   0  10    0.27    0.22
   8   0 -10    0.12    0.18
  -8   0  10   -0.11    0.15
  -7   0  10   -0.22    0.18
   7   0 -10   -0.09    0.14
   7   0 -10   -0.14    0.28
  -6   0  10    3.85    0.32
  -6   0  10    3.40    0.31
  -6   0  10    3.12    0.41
   5   0 -10   -0.14    0.10
   5   0 -10   -0.02    0.21
  -5   0  10   -0.06    0.17
  -5   0  10   -0.06    0.17
  -5   0  10    0.16    0.10
   4   0 -10    0.18    0.09
   4   0 -10    0.09    0.19
  -4   0  10    0.20    0.14
  -4   0  10   -0.10    0.13
  -4   0  10    0.07    0.10
  -3   0  10    0.03    0.15
  -3   0  10    0.05    0.11
  -3   0  10   -0.01    0.13
   3   0 -10    0.04    0.16
  -3   0  10    0.01    0.09
   3   0 -10   -0.28    0.11
  -2   0  10    4.53    0.44
   2   0 -10    4.51    0.47
  -2   0  10    5.90    0.50
  -2   0  10    4.78    0.53
  -2   0  10    5.36    0.50
   2   0 -10    4.73    0.50
  -1   0  10   -0.01    0.12
  -1   0  10   -0.04    0.06
  -1   0  10   -0.11    0.15
   1   0 -10    0.06    0.14
   1   0 -10   -0.36    0.13
   0   0  10    0.53    0.10
   0   0  10    0.64    0.19
   0   0  10    0.35    0.11
   0   0 -10    0.73    0.15
   1   0  10    0.03    0.12
  -1   0 -10    0.18    0.13
   1   0  10    0.04    0.19
   1   0  10    0.00    0.09
  -2   0 -10    7.22    0.69
   2   0  10    6.88    0.70
   2   0  10    6.97    0.67
   3   0  10   -0.10    0.20
   3   0  10   -0.11    0.16
   4   0  10    3.79    0.50
   4   0  10    5.56    0.57
   5   0  10   -0.19    0.26
   5   0  10   -0.22    0.33
   6   0  10    0.38    0.32
   6   0  10   -0.08    0.34
   7   0  10    0.17    0.40
   7   0  10    0.11    0.44
   8   0  10   -0.14    0.38
   8   0  10    0.34    0.47
  11  -1 -10    1.08    0.33
 -11  -1  10    0.69    0.34
  11   1 -10    0.40    0.34
 -11   1  10    0.97    0.42
  10  -1 -10   -0.14    0.24
 -10  -1  10    0.01    0.25
  10   1 -10    0.80    0.31
 -10   1  10   -0.13    0.31
  -9  -1  10    0.27    0.27
   9  -1 -10    0.29    0.25
  -9   1  10   -0.14    0.26
   9   1 -10    0.59    0.28
  -8  -1  10    0.80    0.24
   8  -1 -10    0.62    0.20
  -8  -1  10    0.34    0.18
   8   1 -10    0.28    0.21
   8   1 -10    0.50    0.27
  -8   1  10    0.89    0.24
  -8   1  10    0.18    0.16
  -7  -1  10   -0.02    0.19
  -7  -1  10    0.09    0.15
   7  -1 -10    0.04    0.15
   7  -1 -10    0.18    0.29
  -7   1  10    0.03    0.18
   7   1 -10    0.00    0.18
   7   1 -10    0.06    0.28
  -6  -1  10    9.67    0.85
  -6  -1  10    8.20    0.94
   6  -1 -10    9.89    0.93
   6  -1 -10    9.34    0.84
   6   1 -10    9.41    1.02
  -6   1  10    8.93    0.85
   6   1 -10    9.34    0.84
  -6   1  10    9.82    0.89
  -6   1  10    8.20    0.80
  -5  -1  10    0.24    0.73
   5  -1 -10   -0.21    0.12
  -5  -1  10   -0.05    0.06
  -5  -1  10   -0.06    0.14
   5  -1 -10    0.06    0.22
   5   1 -10    0.01    0.10
  -5   1  10   -0.13    0.11
  -5   1  10    0.17    0.15
  -5   1  10   -0.05    0.15
   5   1 -10   -0.12    0.69
  -4  -1  10    9.16    0.90
   4  -1 -10    9.89    0.86
  -4  -1  10    9.84    0.87
   4  -1 -10   10.04    1.01
  -4  -1  10    9.82    0.98
  -4   1  10    9.40    0.91
   4   1 -10    8.78    0.86
   4   1 -10   11.11    0.92
  -4   1  10    9.25    1.00
   4   1 -10    8.35    0.99
  -4   1  10   10.61    0.87
  -3  -1  10    1.14    0.15
  -3  -1  10    1.59    0.20
   3  -1 -10    1.47    0.23
  -3  -1  10    1.19    0.17
  -3  -1  10    1.54    0.21
   3  -1 -10    1.10    0.18
  -3   1  10    1.38    0.20
   3   1 -10    1.16    0.23
  -3   1  10    1.73    0.18
  -3   1  10    1.08    0.16
   3   1 -10    1.42    0.17
  -3   1  10    1.37    0.18
   2  -1 -10    5.25    0.57
  -2  -1  10    5.15    0.59
  -2  -1  10    6.67    0.54
  -2  -1  10    5.85    0.58
   2  -1 -10    6.03    0.55
  -2   1  10    5.74    0.62
  -2   1  10    5.58    0.52
  -2   1  10    5.84    0.69
   2   1 -10    5.46    0.56
   2   1 -10    6.27    0.57
   1  -1 -10   24.16    2.56
  -1  -1  10   28.07    2.64
  -1  -1  10   26.84    2.82
  -1  -1  10   26.14    2.41
   1  -1 -10   24.25    2.61
  -1   1  10   25.81    2.73
  -1   1  10   26.52    2.30
   1   1 -10   25.56    2.75
   1   1 -10   24.99    2.67
  -1   1  10   29.52    3.33
  -1   1  10   30.64    2.46
   0  -1  10    0.92    0.19
   0  -1 -10    0.85    0.15
   0  -1  10    0.84    0.14
   0  -1  10    0.69    0.09
   0   1  10    0.51    0.11
   0   1 -10    0.79    0.17
   0   1  10    1.19    0.18
   1  -1  10    1.00    0.16
   1  -1  10    1.39    0.23
   1  -1  10    0.79    0.14
  -1  -1 -10    0.86    0.17
   1   1  10    0.97    0.17
   1   1  10    1.32    0.24
  -1   1 -10    1.33    0.13
  -1   1 -10    0.98    0.18
   1   1  10    0.92    0.10
   1   1  10    0.95    0.10
   2  -1  10   13.88    1.50
   2  -1  10   18.09    1.57
  -2  -1 -10   15.16    1.42
   2  -1  10   17.28    1.48
  -2   1 -10   14.81    1.41
   2   1  10   12.72    1.57
   2   1  10   14.74    1.53
  -2   1 -10   14.46    1.50
   3  -1  10    8.60    0.89
   3  -1  10    8.63    1.02
  -3   1 -10    9.06    0.89
   3   1  10   10.75    0.96
   3   1  10    8.70    0.83
   4  -1  10    6.38    0.66
   4  -1  10    7.57    0.69
   4   1  10    6.79    0.70
   4   1  10    5.43    0.68
  -4   1 -10    6.27    0.59
   5  -1  10    0.16    0.33
   5  -1  10    0.23    0.27
   5   1  10   -0.15    0.27
   5   1  10   -0.05    0.29
   6  -1  10    0.67    0.34
   6  -1  10    2.78    0.64
   6   1  10    0.85    0.40
   6   1  10    0.60    0.36
   7  -1  10    1.39    0.35
   7  -1  10    1.94    0.47
   7   1  10    2.69    0.49
   7   1  10    0.96    0.37
   8  -1  10   -0.01    0.45
   8  -1  10    0.03    0.45
   8   1  10    0.63    0.50
   8   1  10    0.56    0.52
 -11  -2  10    0.14    0.41
  11  -2 -10    0.47    0.38
 -11   2  10    0.54    0.42
  11   2 -10    0.14    0.33
 -11   2  10    0.11    0.48
 -10  -2  10    0.06    0.32
  10  -2 -10    0.10    0.30
  10   2 -10    0.14    0.32
 -10   2  10   -0.37    0.31
  -9  -2  10    5.85    0.62
   9  -2 -10    5.75    0.59
   9   2 -10    5.59    0.61
  -9   2  10    5.85    0.61
  -8  -2  10   -0.16    0.17
  -8  -2  10    0.13    0.19
   8  -2 -10   -0.07    0.15
   8   2 -10    0.43    0.34
   8   2 -10   -0.07    0.24
  -8   2  10   -0.16    0.21
  -7  -2  10    1.69    0.25
   7  -2 -10    2.00    0.24
  -7  -2  10    1.76    0.27
  -7   2  10    1.26    0.25
   7   2 -10    1.93    0.25
  -7   2  10    1.68    0.27
   7   2 -10    1.43    0.34
   6  -2 -10    0.24    0.14
   6  -2 -10    0.73    0.26
  -6  -2  10    0.36    0.14
  -6  -2  10    0.12    0.18
  -6  -2  10   -0.37    0.20
  -6   2  10    0.38    0.18
  -6   2  10    0.07    0.08
   6   2 -10    0.46    0.27
  -6   2  10    0.09    0.11
   6   2 -10    0.55    0.15
  -5  -2  10    0.70    0.08
  -5  -2  10    1.34    0.19
   5  -2 -10    1.67    0.27
  -5  -2  10    0.80    0.18
   5  -2 -10    1.19    0.16
  -5   2  10    1.10    0.15
   5   2 -10    0.97    0.25
  -5   2  10    0.82    0.18
  -5   2  10    0.55    0.18
   5   2 -10    1.16    0.14
  -4  -2  10    0.19    0.11
  -4  -2  10    0.09    0.07
   4  -2 -10    0.12    0.20
  -4  -2  10    0.00    0.14
   4   2 -10    0.15    0.07
  -4   2  10    0.09    0.14
  -4   2  10    0.19    0.13
   4   2 -10    0.17    0.15
   4   2 -10    0.13    0.08
  -4   2  10   -0.08    0.10
  -3  -2  10    7.51    0.70
  -3  -2  10    7.20    0.72
   3  -2 -10    7.55    0.80
  -3  -2  10    7.10    0.97
  -3   2  10    6.91    0.69
   3   2 -10    8.10    0.74
  -3   2  10    9.25    0.72
  -3   2  10    8.33    0.81
   3   2 -10    7.43    0.70
  -2  -2  10    2.36    0.24
  -2  -2  10    2.27    0.28
   2  -2 -10    1.86    0.26
   2  -2 -10    2.01    0.28
  -2  -2  10    2.74    0.26
   2   2 -10    2.33    0.35
  -2   2  10    1.97    0.23
   2   2 -10    2.47    0.27
  -2   2  10    1.25    0.71
  -2   2  10    2.39    0.25
  -2   2  10    2.22    0.28
  -1  -2  10   35.87    3.62
   1  -2 -10   27.64    3.56
  -1  -2  10   41.84    3.36
   1  -2 -10   34.32    3.52
  -1  -2  10   37.04    4.39
  -1   2  10   35.91    3.53
   1   2 -10   32.65    3.14
  -1   2  10   31.62    3.68
  -1   2  10   38.57    3.34
   1   2 -10   36.54    3.15
   1   2 -10   31.73    3.27
   0  -2  10   19.10    2.10
   0  -2 -10   16.01    1.62
   0  -2  10   20.06    1.75
   0   2  10   17.85    1.77
   0   2  10   17.67    1.67
   0   2  10   16.09    1.64
   0   2 -10   18.58    1.78
   0   2 -10   15.57    1.72
   1  -2  10   18.19    1.79
   1  -2  10   18.38    2.05
  -1  -2 -10   16.43    1.65
   1  -2  10   19.61    1.71
  -1   2 -10   17.39    1.62
   1   2  10   17.60    1.87
  -1   2 -10   17.45    2.02
   1   2  10   17.26    1.82
  -2  -2 -10    2.08    0.25
   2  -2  10    1.76    0.24
   2  -2  10    2.33    0.30
   2  -2  10    2.56    0.28
  -2   2 -10    2.33    0.23
   2   2  10    2.08    0.33
   2   2  10    1.81    0.28
   3  -2  10    0.31    0.23
  -3  -2 -10    0.06    0.17
   3  -2  10   -0.17    0.16
   3  -2  10   -0.14    0.18
  -3   2 -10    0.26    0.12
   3   2  10    0.12    0.20
   3   2  10   -0.21    0.26
   4  -2  10    0.25    0.22
   4  -2  10   -0.02    0.23
   4   2  10    0.17    0.25
   4   2  10    1.05    0.31
  -4   2 -10    0.57    0.14
   5  -2  10    4.26    0.50
   5  -2  10    4.09    0.48
  -5   2 -10    4.70    0.56
   5   2  10    4.36    0.54
   5   2  10    4.17    0.52
   6  -2  10    0.72    0.38
   6  -2  10    0.66    0.34
   6   2  10    0.70    0.41
   6   2  10    0.55    0.39
   7  -2  10   -0.51    0.37
   7  -2  10    0.40    0.43
   7   2  10    0.51    0.43
   7   2  10    0.60    0.43
   8  -2  10    0.28    0.44
   8  -2  10   -0.10    0.44
   8   2  10    0.79    0.51
   8   2  10    0.09    0.50
  11  -3 -10    0.10    0.30
 -11  -3  10   -0.40    0.41
  11   3 -10    0.22    0.46
 -11   3  10   -0.66    0.58
 -11   3  10    0.38    0.40
 -10  -3  10   -0.48    0.27
  10  -3 -10    0.14    0.29
 -10   3  10    1.11    0.51
  10   3 -10    0.01    0.33
 -10   3  10    0.11    0.31
  -9  -3  10    0.05    0.20
   9  -3 -10   -0.02    0.24
  -9  -3  10   -0.07    0.28
  -9   3  10    0.03    0.32
  -9   3  10   -0.04    0.26
   9   3 -10    0.05    0.26
  -8  -3  10   -0.01    0.17
  -8  -3  10   -0.15    0.23
   8  -3 -10   -0.09    0.20
   8   3 -10    0.14    0.22
  -8   3  10   -0.24    0.22
   8   3 -10    0.22    0.34
  -7  -3  10    0.76    0.23
   7  -3 -10    1.15    0.20
  -7  -3  10    0.70    0.19
  -7   3  10    0.98    0.23
  -7   3  10    0.80    0.17
   7   3 -10    0.67    0.34
   7   3 -10    1.11    0.22
  -6  -3  10   29.23    2.43
   6  -3 -10   27.16    2.48
  -6  -3  10   26.63    2.40
   6  -3 -10   26.92    2.73
  -6   3  10   27.39    2.77
  -6   3  10   28.52    2.47
   6   3 -10   26.27    2.59
  -6   3  10   26.59    2.55
   6   3 -10   28.02    2.74
  -5  -3  10    0.82    0.17
   5  -3 -10    0.32    0.14
   5  -3 -10    0.30    0.23
  -5   3  10    0.28    0.16
   5   3 -10    0.56    0.13
   5   3 -10    0.71    0.26
  -5   3  10    0.37    0.13
  -5   3  10    0.23    0.16
   4  -3 -10   25.72    2.37
  -4  -3  10   29.82    2.23
  -4  -3  10   22.51    2.20
  -4   3  10   25.29    2.60
   4   3 -10   27.55    2.32
  -4   3  10   24.59    2.20
   4   3 -10   26.50    2.50
  -4   3  10   23.50    2.26
   4   3 -10   23.80    2.23
  -3  -3  10    1.77    0.20
  -3  -3  10    1.97    0.23
   3  -3 -10    2.34    0.26
   3   3 -10    2.14    0.28
  -3   3  10    1.50    0.23
  -3   3  10    1.52    0.23
  -3   3  10    1.72    0.22
   3   3 -10    1.87    0.22
   3   3 -10    2.07    0.17
   2  -3 -10    5.08    0.47
  -2  -3  10    6.05    0.48
  -2  -3  10    4.94    0.52
  -2  -3  10    4.54    0.47
  -2   3  10    4.15    0.45
  -2   3  10    4.51    0.51
   2   3 -10    4.75    0.50
  -2   3  10    4.71    0.49
   2   3 -10    5.16    0.47
   2   3 -10    5.67    0.50
  -2   3  10    4.56    0.47
   1  -3 -10    0.48    0.17
  -1  -3  10    0.40    0.16
  -1  -3  10    0.46    0.14
  -1  -3  10    0.47    0.16
   1   3 -10    0.29    0.14
  -1   3  10    0.35    0.15
   1   3 -10    0.51    0.15
  -1   3  10    0.30    0.15
   1   3 -10    0.10    0.16
  -1   3  10    0.05    0.17
   0  -3  10   12.11    1.24
   0  -3 -10   10.23    1.14
   0  -3  10   12.37    1.10
   0   3  10   11.17    1.07
   0   3  10    9.87    1.20
   0   3  10   11.44    1.10
   0   3 -10   11.47    1.16
   0   3 -10   10.91    1.11
  -1  -3 -10   14.78    1.46
   1  -3  10   16.82    1.63
   1  -3  10   17.89    1.52
   1  -3  10   15.01    1.43
  -1   3 -10   14.79    1.55
   1   3  10   15.65    1.54
  -1   3 -10   15.28    1.55
  -2  -3 -10    3.93    0.41
   2  -3  10    4.40    0.45
   2  -3  10    3.94    0.46
   2  -3  10    3.70    0.39
   2   3  10    4.24    0.45
  -2   3 -10    4.60    0.45
   2   3  10    3.68    0.45
   3  -3  10    0.25    0.17
   3  -3  10    0.39    0.23
   3  -3  10    0.12    0.23
  -3  -3 -10    0.50    0.17
  -3   3 -10    0.21    0.18
  -3   3 -10    0.59    0.17
   3   3  10    0.34    0.25
   3   3  10    0.32    0.24
   4  -3  10    2.63    0.34
  -4  -3 -10    3.14    0.33
   4  -3  10    3.14    0.37
   4   3  10    2.37    0.39
  -4   3 -10    3.14    0.32
   4   3  10    2.05    0.38
   5  -3  10    0.98    0.29
   5  -3  10    0.75    0.31
  -5   3 -10    1.06    0.22
   5   3  10    0.63    0.34
   5   3  10    1.15    0.38
   6  -3  10    4.90    0.61
   6  -3  10    5.19    0.63
   6   3  10    5.06    0.71
   6   3  10    6.14    0.62
   7  -3  10   -0.15    0.36
   7  -3  10    0.41    0.39
   7   3  10   -0.11    0.47
   7   3  10    0.23    0.36
   8  -3  10   -0.34    0.40
   8  -3  10   -0.19    0.36
   8   3  10   -0.23    0.52
   8   3  10    0.48    0.52
 -10  -4  10   -0.06    0.28
  10  -4 -10    0.28    0.29
  10   4 -10    0.44    0.36
 -10   4  10    0.23    0.32
 -10   4  10    0.06    0.40
   9  -4 -10    0.17    0.25
  -9  -4  10    0.19    0.23
  -9  -4  10   -0.03    0.29
   9   4 -10    0.25    0.28
  -9   4  10    0.09    0.26
  -9   4  10    0.15    0.33
  -8  -4  10    0.02    0.20
  -8  -4  10    0.09    0.20
   8  -4 -10    0.25    0.21
  -8   4  10   -0.11    0.28
  -8   4  10    0.34    0.23
   8   4 -10   -0.01    0.23
   8   4 -10   -0.21    0.36
  -7  -4  10    0.35    0.21
   7  -4 -10    0.19    0.18
  -7  -4  10    0.33    0.19
   7   4 -10    0.17    0.32
  -7   4  10    0.30    0.20
  -7   4  10    0.10    0.25
  -7   4  10    0.13    0.18
   7   4 -10    0.56    0.18
  -6  -4  10    0.06    0.17
  -6  -4  10   -0.17    0.18
   6  -4 -10   -0.05    0.13
   6   4 -10    0.37    0.13
  -6   4  10    0.01    0.20
  -6   4  10   -0.08    0.13
  -6   4  10    0.07    0.13
  -6   4  10   -0.10    0.21
   6   4 -10   -0.04    0.27
  -5  -4  10    4.48    0.41
   5  -4 -10    4.60    0.45
  -5  -4  10    3.94    0.40
  -5   4  10    3.53    0.41
  -5   4  10    3.48    0.40
  -5   4  10    3.36    0.45
   5   4 -10    3.52    0.38
   5   4 -10    4.58    0.46
   5   4 -10    4.51    0.37
  -5   4  10    3.24    0.60
   4  -4 -10   25.52    2.29
  -4  -4  10   21.79    2.20
  -4  -4  10   28.41    2.20
   4   4 -10   21.35    2.22
   4   4 -10   25.15    2.52
  -4   4  10   25.24    2.70
  -4   4  10   25.33    2.49
  -4   4  10   28.84    2.32
   4   4 -10   25.59    2.23
   3  -4 -10    1.77    0.27
  -3  -4  10    2.17    0.22
  -3  -4  10    2.73    0.26
   3   4 -10    2.43    0.20
  -3   4  10    1.91    0.28
   3   4 -10    2.40    0.30
  -3   4  10    1.78    0.25
   3   4 -10    2.12    0.26
   3   4 -10    2.27    0.30
  -3   4  10    1.90    0.25
  -3   4  10    1.49    0.26
  -2  -4  10    4.33    0.43
  -2  -4  10    5.37    0.44
   2  -4 -10    4.71    0.44
   2   4 -10    4.62    0.46
   2   4 -10    4.68    0.48
  -2   4  10    4.02    0.43
  -2   4  10    4.36    0.52
   2   4 -10    5.06    0.48
  -2   4  10    4.29    0.44
  -2   4  10    4.15    0.46
  -2   4  10    4.19    0.48
  -1  -4  10    0.32    0.18
  -1  -4  10   -0.01    0.15
   1  -4 -10    0.07    0.13
  -1  -4  10    0.03    0.12
  -1   4  10    0.00    0.16
  -1   4  10   -0.21    0.17
  -1   4  10   -0.10    0.12
   1   4 -10    0.51    0.17
   1   4 -10    0.11    0.19
   1   4 -10    0.11    0.17
   0  -4 -10    0.84    0.17
   0  -4  10    0.79    0.16
   0  -4  10    0.84    0.17
   0  -4  10    0.83    0.19
   0   4 -10    0.50    0.77
   0   4  10    0.86    0.21
   0   4 -10    0.65    0.19
   0   4  10    0.39    0.15
   1  -4  10    1.53    0.15
  -1  -4 -10    1.59    0.20
   1  -4  10    2.03    0.21
   1  -4  10    1.43    0.23
   1   4  10    2.08    0.27
   1   4  10    1.32    0.14
   1   4  10    1.20    0.14
   2  -4  10   19.17    1.72
   2  -4  10   18.32    1.79
  -2  -4 -10   15.58    1.57
   2  -4  10   16.84    1.55
  -2   4 -10   14.76    1.65
   2   4  10   16.29    1.66
  -2   4 -10   17.32    1.79
   3  -4  10   -0.02    0.24
  -3  -4 -10    0.26    0.15
   3  -4  10    0.16    0.17
  -3   4 -10    0.51    0.18
   3   4  10    0.38    0.27
   3   4  10    0.33    0.27
  -3   4 -10    0.91    0.19
   4  -4  10    0.94    0.27
   4  -4  10    0.78    0.23
  -4  -4 -10    1.21    0.21
   4   4  10    1.11    0.33
   4   4  10    0.91    0.32
  -4   4 -10    1.43    0.23
   5  -4  10    0.42    0.29
   5  -4  10    0.37    0.24
   5   4  10    0.19    0.35
  -5   4 -10    0.68    0.24
   5   4  10    0.83    0.39
   6  -4  10    2.75    0.42
   6  -4  10    1.81    0.38
   6   4  10    3.39    0.45
   6   4  10    2.02    0.47
   7  -4  10    0.87    0.39
   7  -4  10   -0.19    0.36
   7   4  10   -0.35    0.51
   7   4  10   -0.13    0.37
   8  -4  10    0.75    0.43
   8  -4  10   -0.09    0.38
   8   4  10   -0.41    0.60
   8   4  10   -0.44    0.51
 -10  -5  10    0.33    0.36
  10  -5 -10   -0.02    0.26
  10   5 -10   -0.13    0.25
 -10   5  10    0.06    0.36
 -10   5  10   -0.05    0.40
   9  -5 -10    0.75    0.27
  -9  -5  10    0.34    0.25
  -9  -5  10    0.43    0.25
  -9   5  10    0.63    0.28
  -9   5  10    0.82    0.44
   9   5 -10    0.26    0.29
  -8  -5  10    0.09    0.21
   8  -5 -10    0.00    0.22
  -8  -5  10    0.16    0.18
  -8   5  10   -0.13    0.29
   8   5 -10   -0.26    0.24
   8   5 -10   -0.04    0.38
  -8   5  10    0.36    0.23
  -7  -5  10   -0.16    0.16
   7  -5 -10    0.17    0.19
  -7  -5  10   -0.13    0.22
   7   5 -10    0.32    0.32
  -7   5  10    0.16    0.21
  -7   5  10    0.02    0.31
   7   5 -10    0.12    0.23
  -7   5  10    0.02    0.16
   6  -5 -10    0.16    0.12
  -6  -5  10    0.42    0.20
  -6  -5  10    0.52    0.19
  -6   5  10    0.09    0.21
   6   5 -10    0.36    0.18
   6   5 -10    0.22    0.28
  -6   5  10   -0.24    0.22
  -6   5  10    0.18    0.17
  -5  -5  10   -0.03    0.17
  -5  -5  10   -0.02    0.18
  -5   5  10    0.21    0.20
  -5   5  10    0.12    0.16
   5   5 -10   -0.28    0.24
   5   5 -10   -0.03    0.09
  -5   5  10    0.09    0.16
   5   5 -10    0.13    0.14
  -4  -5  10    3.04    0.36
   4  -5 -10    3.22    0.38
  -4  -5  10    3.95    0.36
   4   5 -10    3.38    0.32
  -4   5  10    3.01    0.38
   4   5 -10    3.22    0.41
  -4   5  10    3.06    0.35
   4   5 -10    4.07    0.43
   4   5 -10    4.15    0.39
  -4   5  10    3.11    0.36
  -3  -5  10   -0.04    0.10
   3  -5 -10    0.12    0.18
  -3  -5  10    0.22    0.15
   3   5 -10   -0.14    0.22
  -3   5  10    0.00    0.17
  -3   5  10   -0.07    0.17
   3   5 -10    0.19    0.23
   3   5 -10   -0.23    0.12
   3   5 -10   -0.03    0.07
  -3   5  10    0.05    0.21
  -2  -5  10    2.87    0.30
   2  -5 -10    3.28    0.32
   2   5 -10    3.15    0.36
   2   5 -10    3.11    0.35
  -2   5  10    2.31    0.32
  -2   5  10    2.54    0.34
  -2   5  10    2.91    0.35
   2   5 -10    3.85    0.36
   1  -5 -10   22.15    2.26
  -1  -5  10   27.17    2.40
  -1  -5  10   29.98    2.50
  -1   5  10   23.61    2.35
   1   5 -10   26.27    2.33
  -1   5  10   24.25    2.66
  -1   5  10   23.56    2.40
   1   5 -10   25.76    2.51
   0  -5 -10    1.98    0.24
   0  -5  10    2.52    0.27
   0   5 -10    1.87    0.28
   0   5  10    1.17    0.29
   0   5 -10    2.69    0.30
   0   5  10    1.72    0.25
   0   5 -10    2.45    0.21
   1  -5  10   17.21    1.89
  -1  -5 -10   16.66    1.56
   1  -5  10   17.11    1.91
   1   5  10   16.12    1.59
  -1   5 -10   16.68    1.57
  -1   5 -10   16.28    1.45
   1   5  10   13.90    1.43
  -1   5 -10   17.22    1.46
   2  -5  10    0.31    0.12
  -2  -5 -10    0.35    0.15
   2  -5  10   -0.34    0.29
  -2   5 -10    0.33    0.20
  -2   5 -10    0.16    0.14
   2   5  10    0.56    0.27
   3  -5  10    0.09    0.16
  -3  -5 -10    0.01    0.14
   3  -5  10   -0.15    0.22
   3   5  10    0.54    0.29
   3   5  10   -0.29    0.30
  -3   5 -10    0.22    0.21
  -3   5 -10    0.22    0.19
  -4  -5 -10    0.77    0.18
   4  -5  10    1.13    0.28
   4  -5  10    0.94    0.23
   4   5  10    1.59    0.38
   4   5  10    1.59    0.34
   5  -5  10    1.33    0.36
  -5  -5 -10    1.53    0.26
   5  -5  10    1.21    0.29
  -5   5 -10    2.26    0.31
   5   5  10    1.21    0.42
   5   5  10    1.17    0.38
   6  -5  10   -0.34    0.29
   6  -5  10   -0.12    0.35
   6   5  10   -0.26    0.37
   6   5  10    0.34    0.46
   7  -5  10    3.27    0.50
   7  -5  10    1.82    0.44
   7   5  10    1.22    0.55
   7   5  10    1.96    0.55
  10  -6 -10    0.25    0.34
 -10  -6  10   -0.15    0.30
  10   6 -10   -0.05    0.27
 -10   6  10   -0.32    0.43
  -9  -6  10    0.49    0.30
   9  -6 -10    0.89    0.25
  -9  -6  10    0.68    0.33
  -9   6  10    0.46    0.29
  -9   6  10    1.28    0.41
   9   6 -10    1.31    0.37
   8  -6 -10    0.33    0.25
  -8  -6  10   -0.12    0.24
  -8  -6  10    0.00    0.22
   8   6 -10    0.50    0.41
   8   6 -10    0.55    0.53
  -8   6  10    0.15    0.24
  -8   6  10    0.23    0.40
   7  -6 -10    3.57    0.37
  -7  -6  10    2.90    0.38
  -7  -6  10    3.17    0.37
  -7   6  10    2.57    0.38
  -7   6  10    3.19    0.43
  -7   6  10    2.48    0.36
   7   6 -10    3.34    0.38
   7   6 -10    3.22    0.47
  -6  -6  10    0.90    0.30
  -6  -6  10    0.24    0.17
   6   6 -10    0.51    0.29
  -6   6  10    0.12    0.19
  -6   6  10    0.42    0.26
   6   6 -10    0.44    0.20
  -6   6  10    0.53    0.20
  -5  -6  10   -0.05    0.19
  -5  -6  10    0.20    0.18
   5   6 -10    0.06    0.12
  -5   6  10   -0.06    0.19
  -5   6  10   -0.24    0.18
   5   6 -10    0.10    0.16
   5   6 -10    0.28    0.27
  -5   6  10   -0.09    0.22
  -4  -6  10    3.54    0.32
  -4  -6  10    2.89    0.30
   4   6 -10    2.73    0.37
   4   6 -10    2.81    0.30
   4   6 -10    2.46    0.27
  -4   6  10    2.74    0.32
  -4   6  10    1.79    0.36
   4   6 -10    2.53    0.38
  -4   6  10    2.01    0.29
  -3  -6  10   23.84    1.92
   3  -6 -10   18.44    2.01
  -3  -6  10   22.47    1.96
   3   6 -10   20.90    2.22
  -3   6  10   21.59    2.20
   3   6 -10   20.60    2.03
   3   6 -10   22.49    2.02
  -3   6  10   19.52    2.02
   3   6 -10   22.61    2.07
  -3   6  10   23.87    1.94
  -2  -6  10   15.48    1.37
   2  -6 -10   13.53    1.36
  -2  -6  10   15.88    1.33
  -2  -6  10   15.08    1.32
   2   6 -10   15.51    1.28
  -2   6  10   14.19    1.52
  -2   6  10   14.58    1.52
   2   6 -10   14.65    1.51
  -2   6  10   12.48    1.37
   2   6 -10   14.40    1.36
   2   6 -10   14.07    1.32
   2   6 -10   14.18    1.53
  -1  -6  10   22.29    1.80
   1  -6 -10   16.63    1.76
  -1  -6  10   19.12    1.85
   1   6 -10   19.55    1.86
   1   6 -10   19.38    1.75
  -1   6  10   17.55    1.78
  -1   6  10   19.08    1.75
  -1   6  10   18.45    1.79
   1   6 -10   19.79    1.73
   0  -6  10    0.11    0.16
   0  -6  10   -0.04    0.15
   0  -6 -10   -0.07    0.13
   0   6  10    0.09    0.18
   0   6 -10   -0.03    0.19
   0   6 -10    0.14    0.09
   0   6 -10   -0.17    0.19
   0   6  10    0.37    0.23
   1  -6  10    1.50    0.29
   1  -6  10    2.44    0.29
  -1  -6 -10    2.22    0.25
   1   6  10    2.17    0.35
  -1   6 -10    2.63    0.24
  -1   6 -10    2.23    0.34
  -1   6 -10    2.10    0.29
  -2  -6 -10    4.87    0.52
   2  -6  10    5.92    0.56
  -2   6 -10    5.77    0.54
  -2   6 -10    7.00    0.64
   2   6  10    4.09    0.58
  -3  -6 -10    1.94    0.25
   3  -6  10    1.97    0.27
   3  -6  10    2.19    0.30
   3   6  10    2.64    0.36
   3   6  10    2.41    0.39
   4  -6  10    1.38    0.31
   4  -6  10    0.94    0.23
  -4  -6 -10    1.08    0.18
   4   6  10    0.80    0.36
   4   6  10    0.56    0.32
   5  -6  10    0.67    0.27
   5  -6  10    0.96    0.28
   5   6  10    0.88    0.37
  -5   6 -10    1.05    0.31
   5   6  10   -0.08    0.43
   6  -6  10    0.09    0.31
   6  -6  10   -0.05    0.30
   6   6  10    0.05    0.41
   6   6  10    0.00    0.47
   7  -6  10    1.91    0.49
   7   6  10    1.26    0.46
   7   6  10    1.28    0.56
   9  -7 -10    0.34    0.31
  -9  -7  10   -0.10    0.33
  -9  -7  10    0.15    0.30
  -9   7  10    0.68    0.49
   9   7 -10    0.17    0.37
  -8  -7  10    0.08    0.27
   8  -7 -10   -0.23    0.17
  -8  -7  10    0.41    0.29
   8   7 -10    0.43    0.41
  -8   7  10   -0.24    0.33
   8   7 -10    0.36    0.30
  -8   7  10   -0.20    0.27
  -7  -7  10    0.02    0.24
  -7  -7  10   -0.20    0.25
  -7   7  10    0.09    0.25
   7   7 -10    0.37    0.35
  -7   7  10   -0.05    0.35
   7   7 -10   -0.38    0.24
  -7   7  10    0.12    0.22
  -6  -7  10    2.03    0.33
  -6  -7  10    3.31    0.34
   6   7 -10    1.91    0.40
  -6   7  10    2.30    0.43
  -6   7  10    2.56    0.34
   6   7 -10    3.08    0.35
  -6   7  10    1.94    0.33
  -5  -7  10   -0.14    0.21
  -5  -7  10    0.37    0.19
   5   7 -10   -0.18    0.28
  -5   7  10   -0.26    0.29
  -5   7  10   -0.14    0.19
  -5   7  10    0.00    0.21
   5   7 -10    0.20    0.18
   5   7 -10    0.01    0.30
  -4  -7  10    0.22    0.19
  -4  -7  10    0.31    0.21
   4   7 -10    0.03    0.14
   4   7 -10    0.21    0.28
   4   7 -10   -0.23    0.25
  -4   7  10    0.20    0.18
  -4   7  10    0.08    0.21
   4   7 -10    0.13    0.17
  -4   7  10   -0.09    0.28
  -3  -7  10   -0.07    0.14
  -3  -7  10   -0.19    0.16
   3   7 -10   -0.04    0.15
  -3   7  10    0.03    0.19
   3   7 -10    0.26    0.15
   3   7 -10    0.24    0.26
  -3   7  10   -0.02    0.21
   3   7 -10   -0.17    0.24
  -3   7  10    0.14    0.22
  -2  -7  10    6.40    0.56
   2  -7 -10    4.97    0.54
  -2  -7  10    5.78    0.54
  -2  -7  10   15.40    2.37
   2   7 -10    5.57    0.60
   2   7 -10    6.06    0.56
  -2   7  10    5.43    0.59
  -2   7  10    4.70    0.59
  -2   7  10    5.36    0.59
   2   7 -10    5.79    0.58
   2   7 -10    6.75    0.53
  -1  -7  10    0.38    0.19
   1  -7 -10    0.33    0.16
  -1  -7  10    0.99    0.17
  -1  -7  10    0.44    0.19
  -1   7  10    0.45    0.19
   1   7 -10    0.25    0.23
  -1   7  10    0.15    0.27
   1   7 -10    0.76    0.29
   1   7 -10    0.74    0.11
  -1   7  10    0.20    0.19
   0  -7  10    0.12    0.17
   0  -7  10    0.05    0.15
   0  -7 -10    0.17    0.12
   0  -7  10   -0.07    0.17
   0  -7 -10    0.10    0.15
   0   7 -10   -0.02    0.20
   0   7  10    0.07    0.17
   0   7 -10    0.16    0.11
   0   7  10   -0.30    0.26
   0   7 -10    0.10    0.22
   1  -7  10    0.25    0.18
   1  -7  10    0.06    0.19
  -1  -7 -10    0.03    0.11
  -1  -7 -10    0.01    0.22
   1  -7  10    0.37    0.15
  -1   7 -10    0.56    0.25
   1   7  10    0.18    0.28
  -1   7 -10   -0.05    0.22
   1   7  10   -0.06    0.16
  -1   7 -10    0.37    0.15
  -2  -7 -10   14.16    1.53
  -2  -7 -10   15.89    1.66
   2  -7  10   17.94    1.54
   2  -7  10   19.10    1.88
  -2   7 -10   18.64    1.91
   2   7  10   14.02    1.64
  -3  -7 -10    0.08    0.25
   3  -7  10   -0.16    0.19
   3  -7  10    0.17    0.16
  -3   7 -10    0.25    0.26
   3   7  10   -0.38    0.33
  -4  -7 -10   -0.26    0.19
   4  -7  10    0.01    0.22
   4  -7  10    0.26    0.21
   4   7  10    0.65    0.41
   4   7  10    0.01    0.48
  -4   7 -10    0.27    0.27
   5  -7  10   -0.05    0.31
   5  -7  10   -0.12    0.23
  -5   7 -10    0.04    0.29
   5   7  10    0.22    0.39
   5   7  10    0.62    0.47
   6  -7  10   -0.21    0.37
   6   7  10    0.20    0.52
   6   7  10    0.62    0.43
   7  -7  10   -0.04    0.44
   7   7  10    0.88    0.47
   7   7  10    0.17    0.47
  -9  -8  10   -0.31    0.27
  -9  -8  10    0.26    0.28
  -9   8  10   -0.40    0.58
  -8  -8  10   -0.16    0.30
  -8  -8  10    0.29    0.27
   8   8 -10    0.04    0.40
  -8   8  10   -0.06    0.45
   8   8 -10    0.52    0.52
  -7  -8  10    0.11    0.26
  -7  -8  10    0.41    0.24
  -7   8  10    0.11    0.26
   7   8 -10    0.39    0.38
  -7   8  10   -0.13    0.43
   7   8 -10    0.62    0.32
  -6  -8  10    1.26    0.25
  -6  -8  10    1.56    0.24
  -6   8  10    1.52    0.36
   6   8 -10    1.42    0.30
   6   8 -10    0.96    0.35
  -6   8  10    0.73    0.26
  -6   8  10    0.75    0.28
  -5  -8  10    0.22    0.19
  -5  -8  10    0.15    0.20
  -5   8  10   -0.09    0.25
  -5   8  10    0.09    0.28
   5   8 -10   -0.04    0.31
  -5   8  10   -0.13    0.19
   5   8 -10   -0.15    0.30
   5   8 -10    0.12    0.22
  -4  -8  10    1.02    0.21
  -4  -8  10    0.67    0.24
  -4   8  10    0.27    0.26
   4   8 -10    0.71    0.32
   4   8 -10    0.41    0.29
  -4   8  10    0.53    0.33
  -4   8  10    0.59    0.20
   4   8 -10    0.89    0.21
  -3  -8  10    0.27    0.21
  -3  -8  10    0.49    0.16
  -3   8  10    0.19    0.28
   3   8 -10    0.32    0.30
  -3   8  10    0.26    0.20
   3   8 -10    0.16    0.26
  -3   8  10    0.03    0.24
   3   8 -10    0.78    0.21
  -2  -8  10    0.73    0.18
  -2  -8  10    0.26    0.20
  -2   8  10    0.15    0.24
   2   8 -10    0.40    0.24
   2   8 -10    0.76    0.28
  -2   8  10    0.33    0.28
  -1  -8  10    0.02    0.15
   1  -8 -10   -0.30    0.22
  -1  -8  10   -0.01    0.20
  -1  -8  10   -0.10    0.16
   1   8 -10   -0.18    0.26
  -1   8  10   -0.08    0.24
   1   8 -10   -0.02    0.23
  -1   8  10    0.05    0.20
   0  -8  10    0.69    0.27
   0  -8  10    1.45    0.18
   0  -8  10    0.69    0.21
   0  -8 -10    0.76    0.15
   0  -8 -10    0.88    0.25
   0   8  10    0.59    0.31
   0   8 -10    0.73    0.24
   0   8 -10    1.16    0.28
   0   8  10    0.48    0.23
  -1  -8 -10    0.08    0.12
  -1  -8 -10    0.30    0.24
   1  -8  10    0.11    0.18
   1  -8  10    0.08    0.17
   1  -8  10    0.01    0.16
   1   8  10    0.06    0.20
   1   8  10   -0.11    0.30
  -1   8 -10   -0.08    0.28
  -1   8 -10    0.12    0.25
   2  -8  10    0.40    0.20
   2  -8  10    0.26    0.23
   2  -8  10    0.28    0.19
  -2  -8 -10    0.28    0.25
  -2   8 -10    0.11    0.29
   2   8  10    0.57    0.33
   3  -8  10    3.24    0.37
  -3  -8 -10    1.99    0.36
   3  -8  10    2.26    0.32
   3   8  10    1.49    0.44
   4  -8  10   11.12    0.93
   4  -8  10   10.43    1.07
  -4  -8 -10    8.48    0.92
   4   8  10    7.87    0.98
   4   8  10    9.20    1.04
   5  -8  10    0.16    0.24
  -5  -8 -10    0.38    0.33
   5  -8  10    0.66    0.33
   5   8  10    0.08    0.43
  -5   8 -10   -0.01    0.39
   5   8  10    0.05    0.50
   6  -8  10    1.27    0.41
   6   8  10    0.59    0.56
   6   8  10    0.48    0.47
  -8  -9  10    0.31    0.29
  -8  -9  10   -0.31    0.32
  -8   9  10    0.16    0.41
   8   9 -10   -0.13    0.44
  -7  -9  10   -0.21    0.25
  -7  -9  10   -0.06    0.27
   7   9 -10   -0.08    0.30
  -7   9  10   -0.11    0.38
   7   9 -10    0.18    0.39
  -6  -9  10    0.75    0.26
  -6  -9  10    1.36    0.28
   6   9 -10    1.22    0.37
   6   9 -10    1.03    0.31
  -6   9  10    0.44    0.44
   6   9 -10    1.19    0.33
  -6   9  10    0.51    0.31
  -5  -9  10    1.22    0.28
  -5  -9  10    0.94    0.27
  -5   9  10    0.82    0.32
   5   9 -10    0.86    0.26
   5   9 -10    0.87    0.40
  -5   9  10    0.28    0.30
   5   9 -10    0.92    0.35
  -5   9  10    1.11    0.32
  -4  -9  10    0.47    0.19
  -4  -9  10    0.39    0.25
   4   9 -10    0.14    0.33
  -4   9  10    0.42    0.22
   4   9 -10    0.23    0.31
  -4   9  10    0.01    0.34
  -4   9  10    0.08    0.28
   4   9 -10    0.71    0.23
  -3  -9  10    1.34    0.28
  -3  -9  10    1.45    0.23
  -3   9  10    0.71    0.31
  -3   9  10    1.12    0.25
   3   9 -10    0.95    0.34
  -3   9  10    1.10    0.38
   3   9 -10    0.73    0.32
   3   9 -10    1.94    0.26
   2  -9 -10    0.44    0.26
  -2  -9  10    0.00    0.17
  -2  -9  10    0.27    0.20
  -2   9  10    0.12    0.31
   2   9 -10    0.09    0.25
   2   9 -10    0.27    0.30
  -2   9  10   -0.03    0.24
  -2   9  10   -0.13    0.44
  -1  -9  10   12.79    1.04
   1  -9 -10   10.86    1.12
  -1  -9  10   12.47    1.03
   1   9 -10   11.09    1.05
  -1   9  10    8.95    1.08
   1   9 -10   12.10    1.09
  -1   9  10    9.83    1.10
   0  -9  10    0.11    0.21
   0  -9  10    0.00    0.18
   0  -9  10    0.22    0.15
   0  -9 -10    0.01    0.25
   0   9 -10    0.30    0.24
   0   9  10   -0.12    0.23
   0   9  10    0.14    0.25
   0   9 -10   -0.27    0.26
   1  -9  10    0.05    0.19
   1  -9  10    0.27    0.21
   1  -9  10   -0.11    0.19
  -1  -9 -10   -0.12    0.26
   1   9  10   -0.14    0.33
  -1   9 -10   -0.09    0.25
  -1   9 -10    0.22    0.32
   2  -9  10    0.50    0.22
   2  -9  10    0.51    0.19
   2  -9  10    0.60    0.23
  -2  -9 -10    0.29    0.28
  -2   9 -10    0.22    0.33
   2   9  10    0.55    0.40
   3  -9  10    0.43    0.23
   3  -9  10    0.47    0.29
  -3  -9 -10    0.44    0.30
   3   9  10    0.31    0.41
  -3   9 -10    0.69    0.50
   4  -9  10    1.19    0.32
  -4  -9 -10    1.43    0.37
   4  -9  10    2.29    0.31
   4   9  10    1.43    0.54
  -4   9 -10    2.82    0.44
   4   9  10    1.20    0.48
  -5  -9 -10    0.86    0.38
   5  -9  10    1.61    0.34
   5   9  10    0.49    0.47
  -5   9 -10    2.11    0.48
   5   9  10    0.22    0.47
   6  -9  10    0.29    0.44
  -6  -9 -10    0.29    0.41
  -6   9 -10    0.24    0.41
   6   9  10    0.17    0.52
   6   9  10    0.21    0.50
  -8 -10  10    0.41    0.37
  -8 -10  10    0.73    0.38
  -8  10  10   -0.51    0.47
  -7 -10  10    0.14    0.29
  -7 -10  10    0.06    0.29
  -7  10  10    0.19    0.47
  -6 -10  10   -0.12    0.25
  -6 -10  10    0.23    0.27
  -6  10  10   -0.44    0.36
  -6  10  10    0.23    0.33
   6  10 -10   -0.01    0.37
   6  10 -10    0.01    0.41
  -5 -10  10    0.17    0.24
  -5 -10  10    0.10    0.26
  -5  10  10   -0.24    0.42
   5  10 -10    0.32    0.35
   5  10 -10   -0.37    0.39
  -5  10  10   -0.17    0.34
  -4 -10  10    0.69    0.21
  -4 -10  10    0.09    0.22
  -4  10  10   -0.05    0.36
   4  10 -10    0.83    0.38
   4  10 -10    0.29    0.33
   4  10 -10    0.88    0.38
  -4  10  10    0.40    0.23
  -3 -10  10    5.38    0.49
  -3 -10  10    5.00    0.52
  -3  10  10    4.43    0.59
   3  10 -10    5.10    0.77
  -3  10  10    4.56    0.57
   3  10 -10    4.99    0.56
   3  10 -10    4.77    0.55
  -3  10  10    3.60    0.61
  -2 -10  10    0.61    0.26
   2 -10 -10    0.67    0.29
  -2 -10  10    1.00    0.19
   2  10 -10    0.75    0.35
  -2  10  10    0.28    0.24
  -2  10  10    0.63    0.73
  -2  10  10    0.89    0.37
   2  10 -10    0.60    0.29
  -1 -10  10   15.87    1.31
   1 -10 -10   14.83    1.40
  -1 -10  10   14.76    1.31
  -1  10  10   11.45    1.34
   1  10 -10   15.05    1.36
  -1  10  10   11.61    1.33
   1  10 -10   14.91    1.40
   0 -10 -10   -0.06    0.28
   0 -10  10    0.04    0.16
   0 -10  10   -0.18    0.24
   0  10 -10   -0.39    0.35
   0  10 -10    0.28    0.26
   0  10  10   -0.09    0.32
   0  10  10    0.45    0.40
  -1 -10 -10    0.95    0.33
   1 -10  10    1.76    0.30
  -1  10 -10    1.92    0.42
  -1  10 -10    1.54    0.32
   1  10  10    1.18    0.31
   2 -10  10    0.96    0.31
  -2 -10 -10    1.00    0.32
   2 -10  10    0.64    0.28
  -2  10 -10    0.81    0.38
  -2  10 -10    1.13    0.40
   2  10  10    0.25    0.42
   3 -10  10    0.79    0.23
  -3 -10 -10    0.32    0.32
   3 -10  10    0.28    0.26
   3  10  10    0.96    0.47
  -3  10 -10    1.68    0.44
   4 -10  10    1.17    0.29
  -4 -10 -10    0.23    0.36
   4 -10  10    0.01    0.35
  -4  10 -10    0.49    0.40
   4  10  10   -0.40    0.47
  -5 -10 -10    0.40    0.39
   5 -10  10    0.37    0.35
  -5  10 -10    0.49    0.43
   5  10  10    0.08    0.51
   5  10  10    0.97    0.63
  -7 -11  10   -0.29    0.38
  -7 -11  10   -0.04    0.27
  -7  11  10    0.68    0.55
  -7  11  10   -0.07    0.36
  -6 -11  10    1.64    0.30
  -6 -11  10    0.71    0.33
  -6  11  10    0.27    0.48
  -6  11  10    0.69    0.39
   6  11 -10    1.01    0.46
  -5 -11  10    0.55    0.24
  -5 -11  10    0.27    0.28
   5  11 -10    0.36    0.44
   5  11 -10   -0.11    0.46
  -5  11  10    0.35    0.38
  -5  11  10   -0.03    0.35
  -4 -11  10    5.07    0.45
  -4 -11  10    3.87    0.51
  -4  11  10    2.77    0.54
   4  11 -10    4.64    0.61
  -4  11  10    3.61    0.58
   4  11 -10    3.57    0.55
   3 -11 -10   -0.02    0.29
  -3 -11  10    0.00    0.21
  -3 -11  10    0.03    0.22
  -3  11  10    0.24    0.39
   3  11 -10   -0.45    0.33
  -3  11  10    0.13    0.39
   3  11 -10   -0.26    0.37
  -2 -11  10    0.02    0.26
   2 -11 -10    0.33    0.29
  -2 -11  10   -0.10    0.18
   2  11 -10   -0.10    0.44
  -2  11  10    0.29    0.40
  -2  11  10   -0.20    0.37
   2  11 -10    0.27    0.30
  -1 -11  10    0.71    0.27
   1 -11 -10    0.49    0.39
  -1  11  10    2.22    0.80
   1  11 -10    0.44    0.38
  -1  11  10   -0.27    0.44
   1  11 -10    0.17    0.37
   0 -11 -10    1.36    0.34
   0 -11  10    0.19    0.26
   0  11 -10    0.48    0.51
   0  11 -10    0.22    0.28
   0  11  10    0.48    0.44
  -1 -11 -10    0.71    0.35
   1 -11  10    1.20    0.29
  -1  11 -10    0.88    0.36
  -1  11 -10    0.49    0.36
   1  11  10    0.76    0.33
  -2 -11 -10    0.73    0.37
   2 -11  10    0.59    0.29
  -2  11 -10    0.80    0.34
   2  11  10    1.04    0.49
  -2  11 -10    0.97    0.46
  -3 -11 -10    0.26    0.37
   3 -11  10   -0.09    0.28
  -3  11 -10    0.53    0.42
   3  11  10    0.29    0.34
   4 -11  10    0.10    0.28
  -4 -11 -10    0.75    0.44
  -4  11 -10    1.52    0.47
   4  11  10    1.17    0.65
  -6 -12  10    0.15    0.29
  -6 -12  10   -0.07    0.33
  -6  12  10    0.46    0.45
   6  12 -10   -0.06    0.71
  -6  12  10   -0.26    0.49
  -5 -12  10   -0.43    0.32
  -5 -12  10   -0.03    0.26
  -5  12  10   -0.22    0.41
  -5  12  10    0.24    0.48
   5  12 -10    0.30    0.51
  -4 -12  10    0.07    0.29
  -4  12  10   -0.19    0.46
   4  12 -10    0.22    0.46
  -4  12  10   -0.06    0.30
  -3 -12  10    2.43    0.41
   3 -12 -10    2.33    0.39
   3  12 -10    1.79    0.43
  -3  12  10    1.35    0.50
  -3  12  10    1.46    0.51
   3  12 -10    2.07    0.50
   2 -12 -10    0.91    0.35
  -2 -12  10    0.82    0.28
   2  12 -10    0.68    0.42
  -2  12  10    0.70    0.34
   2  12 -10    0.78    0.36
  -2  12  10    0.49    0.42
  -1 -12  10    1.42    0.33
   1 -12 -10    1.05    0.36
   1  12 -10    1.04    0.45
   1  12 -10    1.09    0.36
  -1  12  10    0.95    0.43
  -1  12  10    1.43    0.53
   0 -12 -10    0.32    0.36
   0 -12  10    0.03    0.23
   0  12 -10    0.42    0.39
   0  12 -10   -0.55    0.39
   0  12  10    0.06    0.50
  -1 -12 -10    0.12    0.38
   1 -12  10    0.07    0.30
  -1  12 -10    0.33    0.46
  -1  12 -10    0.37    0.33
   1  12  10    0.85    0.54
   2 -12  10    1.29    0.34
  -2 -12 -10    1.23    0.43
  -2  12 -10    1.07    0.52
  -2  12 -10    1.38    0.44
   2  12  10    0.91    0.55
  -3 -12 -10    2.42    1.67
   3 -12  10    0.31    0.31
   3  12  10    0.10    0.56
  -3  12 -10   -0.22    0.46
  -4 -13  10    0.54    0.34
   4  13 -10    0.42    0.51
  -4  13  10    0.25    0.55
  -4  13  10    0.45    0.51
   3 -13 -10    1.00    0.37
  -3 -13  10    1.44    0.36
  -3  13  10    0.85    0.44
  -3  13  10    0.37    0.37
   3  13 -10    1.46    0.60
   2 -13 -10   -0.68    0.37
  -2 -13  10   -0.08    0.38
   2  13 -10    0.99    0.58
  -2  13  10   -0.19    0.48
  -2  13  10    0.37    0.37
   1 -13 -10    0.62    0.40
  -1 -13  10    1.04    0.39
   1  13 -10    0.80    0.47
   1  13 -10    0.62    0.58
  -1  13  10   -0.13    0.60
   0 -13  10    0.02    0.31
   0 -13 -10    0.17    0.41
   0  13 -10    0.69    0.46
   0  13  10    0.78    0.41
   0  13 -10    0.63    0.56
   1 -13  10   -0.12    0.37
  -1 -13 -10    0.58    0.44
  -1  13 -10   -0.01    0.40
   1  13  10   -0.46    0.40
  -1  13 -10    0.00    0.34
 -11   0  11    1.45    0.48
  11   0 -11    1.48    0.36
  10   0 -11    0.15    0.22
 -10   0  11   -0.29    0.27
  -9   0  11    1.02    0.29
   9   0 -11    0.69    0.25
  -8   0  11    0.13    0.24
  -8   0  11    0.15    0.17
   8   0 -11   -0.13    0.26
   7   0 -11    0.66    0.32
   7   0 -11    0.37    0.16
  -7   0  11    0.55    0.21
   6   0 -11    0.17    0.26
  -6   0  11    0.82    0.24
  -6   0  11    0.09    0.18
  -6   0  11   -0.14    0.09
   6   0 -11    0.02    0.12
   5   0 -11   14.02    1.33
  -5   0  11   13.22    1.25
   5   0 -11   13.69    1.23
  -5   0  11   13.34    1.30
  -5   0  11   14.60    1.39
  -4   0  11    0.04    0.12
   4   0 -11   -0.12    0.20
   4   0 -11   -0.03    0.05
  -4   0  11    0.20    0.15
  -4   0  11    0.09    0.13
  -3   0  11   17.45    1.77
   3   0 -11   15.23    1.64
  -3   0  11   17.60    1.61
  -3   0  11   17.85    1.89
  -3   0  11   17.12    1.50
   3   0 -11   16.66    1.55
  -2   0  11    0.10    0.18
   2   0 -11   -0.14    0.16
  -2   0  11    0.15    0.12
  -2   0  11    0.02    0.14
  -2   0  11    0.06    0.07
   2   0 -11    0.00    0.17
   1   0 -11   29.39    3.05
  -1   0  11   30.69    2.92
  -1   0  11   28.34    2.60
  -1   0  11   33.17    3.28
  -1   0  11   30.11    2.97
   0   0  11   -0.10    0.18
   0   0  11   -0.03    0.10
   0   0 -11   -0.13    0.18
   0   0  11    0.16    0.12
  -1   0 -11    4.16    0.45
   1   0  11    5.11    0.48
   1   0  11    4.09    0.48
   1   0  11    4.70    0.42
  -2   0 -11    0.23    0.20
   2   0  11   -0.09    0.22
   2   0  11   -0.15    0.15
   3   0  11    0.02    0.21
   3   0  11   -0.03    0.22
  -3   0 -11   -0.01    0.18
   4   0  11   -0.08    0.24
   4   0  11    0.02    0.22
   5   0  11   11.16    1.14
   5   0  11   10.67    1.05
   6   0  11    0.19    0.29
   6   0  11   -0.17    0.42
   7   0  11    3.83    0.53
   7   0  11    4.78    0.65
   8   0  11   -0.22    0.54
   8   0  11    0.41    0.40
 -11  -1  11   -0.22    0.44
  11  -1 -11    0.27    0.33
  11   1 -11    0.07    0.39
 -11   1  11    0.01    0.44
 -10  -1  11    0.10    0.33
  10  -1 -11    0.04    0.28
  10   1 -11   -0.24    0.29
 -10   1  11   -0.06    0.32
  -9  -1  11    0.67    0.25
   9  -1 -11    0.14    0.24
  -9   1  11    1.20    0.29
   9   1 -11    0.80    0.25
   8  -1 -11    2.47    0.28
  -8  -1  11    2.67    0.33
  -8  -1  11    1.63    0.27
   8   1 -11    2.25    0.28
  -8   1  11    1.35    0.24
  -8   1  11    2.01    0.32
   8   1 -11    2.26    0.43
  -7  -1  11   -0.12    0.21
   7  -1 -11    0.09    0.17
   7  -1 -11   -0.10    0.30
  -7  -1  11    0.10    0.14
  -7   1  11    0.16    0.21
   7   1 -11    0.09    0.14
   7   1 -11   -0.57    0.30
  -6  -1  11    2.12    0.31
   6  -1 -11    2.72    0.27
  -6  -1  11    1.76    0.31
   6  -1 -11    3.34    0.40
   6   1 -11    2.38    0.38
   6   1 -11    2.95    0.27
  -6   1  11    2.49    0.31
  -6   1  11    2.44    0.26
  -5  -1  11    0.01    0.14
   5  -1 -11   -0.02    0.17
  -5  -1  11    0.06    0.08
  -5  -1  11   -0.06    0.16
   5  -1 -11   -0.04    0.11
  -5   1  11    0.07    0.16
  -5   1  11   -0.19    0.18
  -5   1  11    0.01    0.11
   5   1 -11   -0.08    0.10
   5   1 -11   -0.15    0.20
  -4  -1  11    0.40    0.12
  -4  -1  11    0.20    0.12
   4  -1 -11    0.35    0.21
  -4  -1  11    0.20    0.15
  -4   1  11    0.34    0.15
   4   1 -11    0.69    0.23
  -4   1  11    0.20    0.12
  -4   1  11    0.12    0.15
   4   1 -11    0.40    0.10
   4   1 -11    0.28    0.13
  -3  -1  11    0.29    0.08
  -3  -1  11   -0.04    0.40
  -3  -1  11    0.48    0.16
  -3  -1  11    0.27    0.14
   3  -1 -11    0.01    0.15
   3  -1 -11    0.36    0.19
  -3   1  11    0.39    0.16
  -3   1  11    0.31    0.14
  -3   1  11    0.58    0.17
  -3   1  11    0.20    0.12
   3   1 -11    0.62    0.21
   3   1 -11    0.33    0.14
  -2  -1  11    6.55    0.64
  -2  -1  11    6.06    0.66
  -2  -1  11    7.51    0.61
   2  -1 -11    6.26    0.70
   2  -1 -11    6.73    0.67
  -2   1  11    7.14    0.62
   2   1 -11    6.43    0.72
  -2   1  11    6.20    0.59
  -2   1  11    5.90    0.68
  -2   1  11    6.83    0.72
   2   1 -11    6.32    0.61
  -1  -1  11    7.02    0.70
   1  -1 -11    6.83    0.63
  -1  -1  11    8.06    0.69
  -1   1  11    6.31    0.60
  -1   1  11    7.88    0.83
   1   1 -11    6.32    0.64
  -1   1  11    6.52    0.67
   1   1 -11    6.83    0.66
   0  -1  11   25.40    2.34
   0  -1  11   26.43    2.45
   0  -1  11   24.94    2.33
   0  -1 -11   22.63    2.53
   0   1 -11   23.09    2.39
   0   1  11   26.33    2.58
   0   1  11   23.01    2.35
   0   1  11   23.34    2.43
   1  -1  11   -0.03    0.10
   1  -1  11   -0.06    0.13
   1  -1  11    0.07    0.16
  -1  -1 -11   -0.05    0.14
   1   1  11   -0.03    0.06
  -1   1 -11   -0.06    0.18
   1   1  11   -0.04    0.14
   1   1  11    0.01    0.22
   2  -1  11   26.80    2.35
  -2  -1 -11   21.39    2.09
   2  -1  11   23.26    2.39
   2  -1  11   21.86    2.13
   2   1  11   22.43    2.29
   2   1  11   20.48    2.19
  -2   1 -11   23.32    2.13
   3  -1  11    2.14    0.34
  -3  -1 -11    2.11    0.29
   3  -1  11    2.54    0.30
   3   1  11    2.32    0.32
  -3   1 -11    1.80    0.20
   3   1  11    2.04    0.28
   4  -1  11    0.05    0.24
   4  -1  11    0.24    0.23
   4   1  11    0.24    0.32
   4   1  11    0.19    0.25
   5  -1  11   -0.21    0.36
   5  -1  11    0.29    0.28
   5   1  11   -0.49    0.28
   5   1  11    0.53    0.31
   6  -1  11    4.28    0.55
   6  -1  11    2.73    0.45
   6   1  11    3.40    0.49
   6   1  11    2.99    0.54
   7  -1  11    1.22    0.42
   7  -1  11    2.22    0.51
   7   1  11    1.07    0.42
   7   1  11    0.50    0.46
   8  -1  11   -0.22    0.51
   8  -1  11    0.62    0.50
   8   1  11    0.20    0.56
   8   1  11   -0.52    0.54
 -11  -2  11    1.00    0.45
  11  -2 -11    0.40    0.30
 -11   2  11    0.03    0.49
 -11   2  11    0.47    0.44
  11   2 -11    0.49    0.42
 -10  -2  11    0.47    0.34
  10  -2 -11    0.61    0.29
 -10   2  11    0.45    0.33
  10   2 -11    0.39    0.31
   9  -2 -11    0.67    0.36
  -9  -2  11    0.11    0.24
  -9   2  11    0.58    0.28
   9   2 -11    0.39    0.29
  -8  -2  11    0.40    0.19
   8  -2 -11    0.58    0.20
  -8  -2  11    0.28    0.25
  -8   2  11    0.29    0.28
   8   2 -11    1.03    0.21
   8   2 -11    1.02    0.38
  -7  -2  11    0.64    0.22
   7  -2 -11    0.60    0.18
   7  -2 -11    0.58    0.33
  -7  -2  11    0.30    0.17
   7   2 -11    0.50    0.16
   7   2 -11    0.55    0.33
  -7   2  11    0.36    0.21
   6  -2 -11    3.32    0.41
   6  -2 -11    2.74    0.32
  -6  -2  11    2.91    0.35
  -6   2  11    2.35    0.32
   6   2 -11    3.60    0.31
  -6   2  11    3.34    0.35
   6   2 -11    2.88    0.41
  -5  -2  11    1.21    0.20
  -5  -2  11    0.90    0.18
   5  -2 -11    1.39    0.16
  -5  -2  11    0.69    0.11
   5  -2 -11    1.21    0.27
   5   2 -11    1.14    0.15
  -5   2  11    0.83    0.14
  -5   2  11    0.89    0.20
  -5   2  11    0.88    0.22
   5   2 -11    0.87    0.27
  -4  -2  11    0.15    0.10
  -4  -2  11   -0.06    0.17
   4  -2 -11    0.69    0.21
   4   2 -11    0.10    0.13
   4   2 -11    0.16    0.08
  -4   2  11   -0.05    0.12
  -4   2  11    0.11    0.16
  -4   2  11    0.26    0.16
   4   2 -11   -0.13    0.22
  -3  -2  11    0.74    0.15
  -3  -2  11    1.18    0.18
   3  -2 -11    1.22    0.22
   3   2 -11    1.10    0.23
  -3   2  11    1.02    0.21
  -3   2  11    0.98    0.18
   3   2 -11    0.91    0.16
  -3   2  11    0.68    0.16
  -2  -2  11    4.36    0.37
  -2  -2  11    3.32    0.40
   2  -2 -11    2.87    0.45
  -2  -2  11    3.51    0.36
   2  -2 -11    3.66    0.37
  -2   2  11    2.94    0.38
   2   2 -11    3.36    0.35
  -2   2  11    4.13    0.38
   2   2 -11    3.66    0.39
  -2   2  11    2.73    0.33
  -2   2  11    3.51    0.36
  -1  -2  11    2.49    0.27
   1  -2 -11    2.92    0.28
  -1  -2  11    2.16    0.28
   1   2 -11    1.92    0.39
   1   2 -11    2.70    0.28
  -1   2  11    2.09    0.23
  -1   2  11    1.64    0.24
  -1   2  11    2.80    0.30
   0  -2  11    4.45    0.42
   0  -2 -11    3.87    0.46
   0  -2  11    3.98    0.46
   0   2 -11    4.11    0.44
   0   2  11    3.51    0.38
   0   2  11    3.96    0.39
   0   2  11    4.25    0.44
   0   2 -11    4.47    0.40
   1  -2  11    6.34    0.62
   1  -2  11    6.54    0.62
   1  -2  11    6.93    0.71
  -1  -2 -11    6.27    0.63
  -1   2 -11    7.48    0.72
  -1   2 -11    6.63    0.63
   1   2  11    6.76    0.72
   1   2  11    5.58    0.66
   2  -2  11    0.76    0.17
   2  -2  11    0.76    0.21
   2  -2  11    0.93    0.24
  -2  -2 -11    0.54    0.20
   2   2  11    1.20    0.30
  -2   2 -11    1.14    0.15
  -2   2 -11    0.75    0.21
   2   2  11    0.81    0.24
  -3  -2 -11    0.85    0.21
   3  -2  11    0.45    0.21
   3  -2  11    0.73    0.24
  -3   2 -11    0.96    0.15
   3   2  11    0.47    0.23
   3   2  11    0.60    0.26
   4  -2  11    0.22    0.25
   4  -2  11    0.09    0.26
  -4  -2 -11   -0.03    0.21
   4   2  11   -0.10    0.27
  -4   2 -11   -0.06    0.12
   4   2  11    0.16    0.29
   5  -2  11    1.07    0.29
   5  -2  11   -0.09    0.36
   5   2  11    0.83    0.38
   5   2  11    0.67    0.34
   6  -2  11   -0.34    0.37
   6  -2  11    0.56    0.41
   6   2  11    0.19    0.41
   6   2  11   -0.12    0.41
   7  -2  11    0.35    0.40
   7  -2  11    1.21    0.47
   7   2  11    0.00    0.45
   7   2  11    0.35    0.48
  10  -3 -11    0.22    0.23
 -10  -3  11    0.65    0.68
 -10   3  11    0.14    0.33
  10   3 -11    0.29    0.33
 -10   3  11    0.36    0.42
  -9  -3  11    0.79    0.23
   9  -3 -11    1.13    0.29
  -9  -3  11    1.15    0.32
   9   3 -11    1.04    0.34
  -9   3  11    0.58    0.36
  -9   3  11    0.85    0.29
  -8  -3  11    0.77    0.22
  -8  -3  11    0.44    0.22
   8  -3 -11    0.60    0.22
   8   3 -11    0.99    0.23
  -8   3  11    0.87    0.26
   8   3 -11    0.47    0.40
  -7  -3  11    0.11    0.20
   7  -3 -11    0.11    0.14
  -7  -3  11    0.04    0.18
   7   3 -11    0.04    0.18
   7   3 -11   -0.38    0.32
  -7   3  11   -0.02    0.21
   6  -3 -11    2.02    0.23
  -6  -3  11    1.75    0.26
   6  -3 -11    1.91    0.34
  -6  -3  11    1.38    0.23
  -6   3  11    2.04    0.26
  -6   3  11    1.21    0.22
   6   3 -11    1.31    0.34
   6   3 -11    1.76    0.21
   5  -3 -11    0.56    0.26
  -5  -3  11    0.46    0.18
  -5   3  11    0.44    0.15
   5   3 -11    0.74    0.13
   5   3 -11    0.19    0.25
  -5   3  11    0.43    0.20
  -4  -3  11    4.71    0.46
  -4  -3  11    3.72    0.41
   4  -3 -11    4.58    0.48
   4   3 -11    4.54    0.49
   4   3 -11    5.07    0.43
  -4   3  11    4.51    0.44
   4   3 -11    5.09    0.41
  -4   3  11    3.94    0.46
  -3  -3  11    0.03    0.11
  -3  -3  11    0.10    0.16
   3  -3 -11    0.19    0.18
  -3   3  11    0.20    0.16
   3   3 -11    0.01    0.21
   3   3 -11   -0.11    0.15
  -3   3  11   -0.02    0.14
  -3   3  11   -0.03    0.15
   2  -3 -11    1.20    0.20
  -2  -3  11    0.69    0.16
   2   3 -11    0.86    0.19
   2   3 -11    1.46    0.98
  -2   3  11    0.72    0.16
  -2   3  11    0.66    0.17
  -2   3  11    0.62    0.18
   2   3 -11    0.57    0.16
  -2   3  11    0.89    0.19
  -1  -3  11    0.05    0.14
  -1  -3  11   -0.04    0.16
  -1  -3  11    0.06    0.15
   1  -3 -11   -0.06    0.14
   1   3 -11    0.22    0.18
  -1   3  11   -0.01    0.12
  -1   3  11    0.04    0.08
   1   3 -11    0.08    0.15
  -1   3  11    0.10    0.16
   0  -3 -11    3.39    0.35
   0  -3  11    3.65    0.43
   0  -3  11    3.51    0.38
   0   3 -11    3.03    0.38
   0   3 -11    4.08    0.38
   0   3  11    3.31    0.34
   0   3  11    2.87    0.33
   0   3  11    4.03    0.39
   1  -3  11    1.26    0.22
  -1  -3 -11    1.63    0.19
   1  -3  11    1.23    0.23
   1  -3  11    1.07    0.14
   1   3  11    0.98    0.25
  -1   3 -11    0.93    0.22
  -1   3 -11    1.49    0.23
   2  -3  11    7.95    0.81
   2  -3  11   10.08    0.94
   2  -3  11    9.83    0.96
  -2  -3 -11    8.25    0.84
   2   3  11    8.49    0.82
  -2   3 -11    8.31    0.85
   2   3  11    9.02    0.84
  -2   3 -11    8.70    0.89
   3  -3  11    0.37    0.18
  -3  -3 -11    0.44    0.19
   3  -3  11    0.95    0.29
   3   3  11    0.49    0.26
  -3   3 -11    0.97    0.17
   3   3  11    0.40    0.33
   4  -3  11    0.97    0.27
   4  -3  11    1.82    0.31
  -4  -3 -11    1.46    0.43
   4   3  11    0.93    0.32
   4   3  11    1.21    0.39
  -4   3 -11    1.79    0.22
   5  -3  11   -0.24    0.35
   5  -3  11   -0.18    0.29
   5   3  11   -0.26    0.32
   5   3  11    0.10    0.32
   6  -3  11    0.67    0.32
   6  -3  11    1.14    0.35
   6   3  11    0.17    0.35
   6   3  11    0.47    0.37
   7  -3  11    0.73    0.44
   7  -3  11    0.44    0.38
   7   3  11    0.33    0.52
   7   3  11    0.41    0.39
 -10  -4  11    0.04    0.35
  10  -4 -11   -0.41    0.29
 -10   4  11   -0.63    0.41
  10   4 -11    0.18    0.30
 -10   4  11    0.05    0.34
  -9  -4  11    0.29    0.23
   9  -4 -11    0.17    0.25
  -9  -4  11    0.85    0.31
   9   4 -11    0.37    0.33
  -9   4  11    0.11    0.28
  -9   4  11    0.12    0.34
   9   4 -11    0.93    0.33
  -8  -4  11    0.05    0.26
   8  -4 -11   -0.04    0.21
  -8  -4  11   -0.08    0.21
  -8   4  11    0.15    0.29
   8   4 -11   -0.19    0.38
   8   4 -11   -0.15    0.25
  -8   4  11    0.04    0.28
  -7  -4  11    0.16    0.18
   7  -4 -11    0.00    0.14
  -7  -4  11    0.73    0.35
  -7   4  11    0.04    0.21
   7   4 -11    0.01    0.20
  -7   4  11   -0.05    0.15
  -7   4  11    0.01    0.26
   7   4 -11   -0.06    0.23
  -6  -4  11    1.03    0.21
   6  -4 -11    0.32    0.23
  -6  -4  11    1.21    0.23
   6  -4 -11    0.81    0.18
  -6   4  11    0.71    0.18
  -6   4  11    0.65    0.25
   6   4 -11    0.90    0.31
   6   4 -11    1.18    0.17
  -6   4  11    0.62    0.23
  -5  -4  11    7.26    0.63
  -5  -4  11    6.64    0.62
   5  -4 -11    6.05    0.66
  -5   4  11    6.18    0.62
  -5   4  11    6.78    0.62
   5   4 -11    6.79    0.60
   5   4 -11    6.67    0.60
  -5   4  11    5.63    0.68
   5   4 -11    6.78    0.67
  -4  -4  11    0.57    0.17
  -4  -4  11    0.34    0.10
   4  -4 -11    0.32    0.22
  -4   4  11    0.46    0.18
  -4   4  11    0.59    0.16
  -4   4  11    0.36    0.18
   4   4 -11    0.61    0.13
   4   4 -11    0.43    0.25
   4   4 -11    0.54    0.09
  -3  -4  11   18.03    1.69
   3  -4 -11   17.77    1.85
  -3  -4  11   21.24    1.69
  -3   4  11   19.24    1.87
   3   4 -11   19.72    1.90
   3   4 -11   19.56    1.76
   3   4 -11   20.42    1.89
  -3   4  11   16.51    1.72
  -3   4  11   18.45    1.68
  -3   4  11   18.43    1.94
  -2  -4  11    0.21    0.15
  -2  -4  11    0.20    0.14
   2  -4 -11    0.35    0.17
   2   4 -11    0.34    0.15
   2   4 -11    0.10    0.20
  -2   4  11    0.41    0.17
   2   4 -11    1.13    0.34
  -2   4  11    0.10    0.15
  -2   4  11    0.22    0.18
  -1  -4  11   23.65    2.47
   1  -4 -11   18.90    2.15
  -1  -4  11   23.87    2.02
   1   4 -11   23.81    2.21
   1   4 -11   23.57    2.03
  -1   4  11   20.98    2.31
  -1   4  11   20.13    2.19
  -1   4  11   20.33    2.11
   0  -4 -11    2.30    0.26
   0  -4  11    2.21    0.29
   0  -4  11    2.87    0.29
   0  -4  11    1.85    0.45
   0   4 -11    2.34    0.27
   0   4  11    2.81    0.31
   0   4 -11    1.98    0.29
   0   4  11    1.69    0.25
  -1  -4 -11    1.08    0.18
   1  -4  11    0.88    0.19
   1  -4  11    0.69    0.21
   1   4  11    0.35    0.24
  -1   4 -11    0.66    0.26
  -1   4 -11    0.85    0.22
   2  -4  11    0.92    0.21
   2  -4  11    0.67    0.24
  -2  -4 -11    0.87    0.19
   2  -4  11    0.63    0.15
   2   4  11    0.74    0.28
   2   4  11    0.89    0.27
  -2   4 -11    1.63    0.26
  -2   4 -11    1.16    0.23
   3  -4  11    4.34    0.47
  -3  -4 -11    4.07    0.41
   3  -4  11    3.77    0.41
   3   4  11    4.08    0.48
  -3   4 -11    3.35    0.49
   3   4  11    3.80    0.47
  -3   4 -11    4.18    0.45
  -4  -4 -11    0.22    0.19
   4  -4  11    0.57    0.24
   4  -4  11    0.26    0.23
   4   4  11    1.05    0.33
   4   4  11    0.33    0.45
  -4   4 -11    0.72    0.21
   5  -4  11    5.12    0.60
   5  -4  11    3.42    0.48
  -5  -4 -11    5.32    0.49
   5   4  11    4.52    0.79
   5   4  11    4.85    0.59
   6  -4  11   -0.44    0.30
   6  -4  11   -0.02    0.29
  -6  -4 -11   -0.23    0.24
   6   4  11   -0.41    0.34
   6   4  11   -0.30    0.46
   7  -4  11    5.07    0.64
   7   4  11    3.73    0.60
   7   4  11    3.39    0.58
 -10  -5  11   -0.09    0.32
  10  -5 -11    0.59    0.31
  10   5 -11    0.26    0.33
 -10   5  11    0.67    0.44
 -10   5  11    0.85    0.42
   9  -5 -11    0.38    0.22
  -9  -5  11    0.42    0.32
  -9  -5  11    0.24    0.26
  -9   5  11   -0.09    0.27
   9   5 -11    0.13    0.35
  -9   5  11    0.11    0.37
   9   5 -11    2.41    1.59
  -8  -5  11    0.10    0.28
   8  -5 -11    0.46    0.24
  -8  -5  11    0.43    0.23
  -8   5  11    0.05    0.38
  -8   5  11    0.42    0.26
   8   5 -11    0.62    0.23
   8   5 -11    0.23    0.39
  -7  -5  11    0.06    0.23
  -7  -5  11    0.14    0.18
   7  -5 -11    0.08    0.20
  -7   5  11   -0.02    0.27
   7   5 -11   -0.13    0.34
  -7   5  11    0.03    0.22
   7   5 -11    0.10    0.20
  -7   5  11   -0.06    0.21
  -6  -5  11    1.53    0.26
  -6  -5  11    1.67    0.26
   6   5 -11    1.53    0.35
  -6   5  11    1.49    0.27
  -6   5  11    1.33    0.27
  -6   5  11    1.03    0.34
   6   5 -11    1.73    0.22
  -5  -5  11    6.17    0.60
   5  -5 -11    6.91    0.68
  -5  -5  11    6.76    0.60
   5   5 -11    6.69    0.60
  -5   5  11    5.65    0.65
  -5   5  11    6.48    0.62
   5   5 -11    6.05    0.65
   5   5 -11    5.76    0.59
  -5   5  11    6.24    0.62
  -4  -5  11    3.06    0.32
  -4  -5  11    2.67    0.31
   4  -5 -11    2.37    0.33
  -4   5  11    1.97    0.32
  -4   5  11    2.72    0.33
   4   5 -11    2.92    0.38
  -4   5  11    2.27    0.31
   4   5 -11    2.66    0.25
   4   5 -11    2.53    0.27
  -3  -5  11    8.58    0.72
   3  -5 -11    7.41    0.75
  -3  -5  11    6.56    0.71
   3   5 -11    7.89    0.78
  -3   5  11    7.16    0.78
   3   5 -11    8.60    0.76
   3   5 -11    8.81    0.75
  -3   5  11    6.75    0.75
  -3   5  11    8.55    0.74
   2  -5 -11   11.31    1.33
  -2  -5  11   13.38    1.24
  -2  -5  11   15.34    1.24
   2   5 -11   12.78    1.22
  -2   5  11   13.45    1.42
   2   5 -11   14.33    1.27
   2   5 -11   12.20    1.36
  -2   5  11   12.06    1.35
   1  -5 -11    2.39    0.27
  -1  -5  11    2.32    0.27
  -1  -5  11    3.08    0.28
  -1   5  11    2.22    0.33
   1   5 -11    2.64    0.34
  -1   5  11    1.78    0.31
   1   5 -11    1.99    0.31
  -1   5  11    1.84    0.29
   0  -5  11    5.49    0.49
   0  -5  11    4.38    0.47
   0  -5 -11    4.17    0.41
   0   5 -11    4.28    0.46
   0   5  11    3.61    0.41
   0   5  11    3.60    0.46
   0   5 -11    4.71    0.46
  -1  -5 -11   -0.05    0.16
   1  -5  11   -0.11    0.16
   1  -5  11   -0.02    0.20
   1   5  11   -0.14    0.35
  -1   5 -11   -0.15    0.21
   1   5  11   -0.35    0.24
  -1   5 -11   -0.01    0.11
  -1   5 -11   -0.21    0.17
  -2  -5 -11    9.79    0.99
   2  -5  11   10.06    0.93
   2  -5  11   10.73    0.99
  -2   5 -11   10.70    1.02
  -2   5 -11   10.84    1.11
   2   5  11   10.13    1.04
  -2   5 -11    9.88    0.95
  -3  -5 -11   -0.18    0.16
   3  -5  11   -0.46    0.20
   3  -5  11   -0.07    0.16
   3   5  11    0.23    0.30
   3   5  11    0.28    0.30
  -3   5 -11   -0.13    0.19
   4  -5  11    2.69    0.37
  -4  -5 -11    3.21    0.35
   4  -5  11    3.71    0.42
   4   5  11    1.94    0.46
   4   5  11    3.14    0.45
  -5  -5 -11    0.49    0.20
   5  -5  11   -0.06    0.35
   5  -5  11    0.26    0.27
   5   5  11    0.37    0.39
   5   5  11    0.37    0.32
   6  -5  11    0.56    0.40
   6   5  11    0.40    0.47
   6   5  11    0.18    0.49
   7  -5  11    0.37    0.38
   7   5  11    0.37    0.44
   7   5  11   -0.20    0.54
  10  -6 -11   -0.50    0.32
 -10  -6  11    0.04    0.40
 -10   6  11   -0.41    0.43
  -9  -6  11    0.06    0.29
   9  -6 -11   -0.01    0.29
  -9  -6  11    0.69    0.33
  -9   6  11    0.67    0.49
   9   6 -11    0.07    0.45
   9   6 -11   -0.20    0.31
  -9   6  11    0.20    0.30
  -8  -6  11    0.51    0.26
   8  -6 -11    0.63    0.23
  -8  -6  11    0.56    0.29
   8   6 -11    0.66    0.30
  -8   6  11    0.53    0.31
  -8   6  11    0.62    0.35
   8   6 -11    0.05    0.40
  -7  -6  11   -0.10    0.25
  -7  -6  11   -0.01    0.23
  -7   6  11   -0.20    0.29
   7   6 -11    0.07    0.24
  -7   6  11   -0.10    0.27
  -7   6  11    0.28    0.26
   7   6 -11    0.20    0.24
  -6  -6  11    0.21    0.22
  -6  -6  11    0.13    0.21
   6   6 -11    0.11    0.19
  -6   6  11   -0.08    0.26
  -6   6  11   -0.04    0.23
  -6   6  11   -0.05    0.24
   6   6 -11    0.32    0.31
  -5  -6  11    3.92    0.39
  -5  -6  11    3.77    0.38
  -5   6  11    3.01    0.46
   5   6 -11    3.77    0.47
  -5   6  11    3.31    0.38
  -5   6  11    3.01    0.39
   5   6 -11    3.73    0.35
   4  -6 -11    0.39    0.23
  -4  -6  11    0.59    0.18
  -4  -6  11    0.54    0.21
   4   6 -11    0.52    0.15
  -4   6  11    0.51    0.17
  -4   6  11    0.60    0.22
   4   6 -11    0.62    0.27
   4   6 -11    0.44    0.28
   4   6 -11    0.48    0.12
  -4   6  11    0.44    0.27
  -3  -6  11    0.13    0.14
   3  -6 -11    0.29    0.23
  -3  -6  11    0.55    0.19
  -3  -6  11    0.28    0.19
   3   6 -11    0.36    0.08
  -3   6  11    0.38    0.23
  -3   6  11    0.05    0.24
   3   6 -11    0.11    0.19
   3   6 -11    0.19    0.24
   3   6 -11    0.30    0.08
  -3   6  11    0.48    0.22
   3   6 -11   -0.16    0.24
  -2  -6  11    1.54    0.21
   2  -6 -11    1.58    0.26
   2   6 -11    1.60    0.28
   2   6 -11    1.79    0.29
  -2   6  11    1.46    0.31
  -2   6  11    1.76    0.29
  -1  -6  11    0.84    0.19
  -1  -6  11    1.42    0.19
   1  -6 -11    0.93    0.17
  -1   6  11    0.75    0.23
  -1   6  11    0.73    0.27
   1   6 -11    0.75    0.25
  -1   6  11    0.64    0.24
   1   6 -11    2.09    0.34
   0  -6  11    6.82    2.10
   0  -6  11    0.20    0.19
   0  -6 -11    0.32    0.16
   0   6  11   -0.13    0.25
   0   6  11    0.08    0.18
   0   6 -11    0.48    0.26
   0   6 -11    0.15    0.21
   0   6 -11    0.50    0.08
   1  -6  11    1.06    0.22
   1  -6  11    1.49    0.25
  -1  -6 -11    1.02    0.18
  -1   6 -11    1.09    0.19
  -1   6 -11    1.01    0.26
   1   6  11    0.71    0.29
  -1   6 -11    1.18    0.28
  -2  -6 -11    2.11    0.24
   2  -6  11    1.49    0.30
  -2   6 -11    1.98    0.29
  -2   6 -11    1.53    0.31
   2   6  11    1.06    0.35
   3  -6  11    0.44    0.27
  -3  -6 -11    0.20    0.15
   3   6  11   -0.04    0.33
   3   6  11    0.13    0.35
  -3   6 -11    0.45    0.24
   4  -6  11    1.92    0.42
   4   6  11    3.16    0.50
  -4   6 -11    3.45    0.40
   4   6  11    2.61    0.47
   5  -6  11   -0.20    0.34
   5   6  11    0.23    0.44
   5   6  11   -0.01    0.40
   6  -6  11    0.57    0.42
   6   6  11    0.20    0.52
   6   6  11   -0.10    0.50
   7  -6  11   -0.07    0.39
   7   6  11    0.38    0.46
   9  -7 -11    0.10    0.19
  -9  -7  11   -0.22    0.26
  -9  -7  11    0.39    0.34
  -9   7  11    0.24    0.42
   9   7 -11    0.37    0.46
  -8  -7  11    1.32    0.28
  -8  -7  11    0.47    0.30
   8   7 -11    1.27    0.46
  -8   7  11    0.84    0.28
   8   7 -11    1.38    0.39
  -8   7  11    1.20    0.39
  -7  -7  11    0.20    0.26
  -7  -7  11   -0.03    0.26
  -7   7  11   -0.39    0.38
   7   7 -11    0.22    0.25
  -7   7  11   -0.07    0.29
  -7   7  11    0.15    0.44
   7   7 -11    0.04    1.21
  -6  -7  11    3.73    0.40
  -6  -7  11    2.76    0.37
   6   7 -11    3.74    0.48
  -6   7  11    3.39    0.39
   6   7 -11    3.14    0.37
  -6   7  11    3.41    0.44
  -6   7  11    3.24    0.49
  -5  -7  11    0.15    0.18
  -5  -7  11    0.12    0.22
   5   7 -11    0.25    0.16
  -5   7  11    0.14    0.32
  -5   7  11    0.07    0.22
   5   7 -11    0.06    0.33
   5   7 -11   -0.24    0.31
  -5   7  11    0.21    0.22
  -4  -7  11   -0.10    0.21
  -4  -7  11    0.08    0.17
   4   7 -11    0.26    0.30
  -4   7  11   -0.28    0.23
  -4   7  11   -0.16    0.30
  -4   7  11    0.11    0.21
   4   7 -11   -0.17    0.13
   4   7 -11    0.24    0.28
  -3  -7  11    1.32    0.21
  -3  -7  11    1.68    0.23
   3  -7 -11    0.93    0.19
  -3   7  11    0.95    0.27
   3   7 -11    1.17    0.16
   3   7 -11    1.10    0.30
   3   7 -11    1.07    0.30
  -3   7  11    0.97    0.27
  -3   7  11    0.57    0.25
  -2  -7  11    0.41    0.18
  -2  -7  11    0.35    0.16
   2  -7 -11    0.36    0.16
  -2  -7  11    0.45    0.18
   2   7 -11    0.00    0.28
   2   7 -11    0.38    0.10
   2   7 -11    0.20    0.31
  -2   7  11    0.46    0.20
  -2   7  11    0.44    0.25
   1  -7 -11    0.31    0.17
  -1  -7  11    0.21    0.15
  -1  -7  11    0.18    0.19
  -1  -7  11   -0.16    0.16
  -1   7  11    0.01    0.21
   1   7 -11   -0.13    0.29
   1   7 -11    0.10    0.24
  -1   7  11    0.02    0.17
   0  -7  11    0.68    0.19
   0  -7  11    0.27    0.20
   0  -7 -11    0.42    0.13
   0  -7  11    0.46    0.20
   0   7  11    0.89    0.29
   0   7 -11    0.33    0.30
   0   7  11    0.18    0.19
   0   7 -11    0.27    0.28
  -1  -7 -11    2.22    0.26
   1  -7  11    2.58    0.30
   1  -7  11    2.95    0.32
  -1   7 -11    2.77    0.37
  -1   7 -11    2.03    0.35
   1   7  11    1.72    0.33
   2  -7  11    0.27    0.24
  -2  -7 -11    0.30    0.14
   2  -7  11    0.05    0.22
  -2   7 -11    0.03    0.26
   2   7  11    0.44    0.32
  -2   7 -11    0.23    0.26
   3  -7  11    0.79    0.26
  -3   7 -11    1.58    0.31
   3   7  11    1.04    0.38
   4  -7  11    4.03    0.46
   4   7  11    4.65    0.56
   4   7  11    2.66    0.50
   5  -7  11    0.08    0.36
   5   7  11    1.12    0.42
   5   7  11    0.24    0.50
  -5   7 -11    0.42    0.31
   6  -7  11    0.54    0.41
   6   7  11    0.54    0.48
   6   7  11   -0.43    0.42
  -9  -8  11   -0.70    0.36
  -9  -8  11   -0.12    0.27
  -9   8  11    0.19    0.47
   9   8 -11   -1.02    0.48
  -8  -8  11    0.10    0.30
  -8  -8  11   -0.35    0.26
  -8   8  11   -0.05    0.46
   8   8 -11   -0.06    0.43
  -7  -8  11    0.07    0.22
  -7  -8  11    0.42    0.28
  -7   8  11   -0.39    0.36
   7   8 -11   -0.02    0.39
  -7   8  11   -0.03    0.26
  -6  -8  11   -0.04    0.23
  -6  -8  11    0.29    0.26
  -6   8  11   -0.02    0.39
  -6   8  11    0.24    0.26
  -6   8  11    0.28    0.27
   6   8 -11    0.21    0.36
  -5  -8  11    2.05    0.27
  -5  -8  11    1.78    0.31
  -5   8  11    1.00    0.24
   5   8 -11    1.68    0.39
  -5   8  11    1.32    0.42
   5   8 -11    1.50    0.38
   5   8 -11    1.58    0.27
  -5   8  11    1.57    0.28
  -4  -8  11    0.12    0.18
  -4  -8  11    0.45    0.25
   4   8 -11   -0.06    0.17
  -4   8  11    0.01    0.25
  -4   8  11   -0.15    0.21
   4   8 -11   -0.15    0.29
  -4   8  11    0.29    0.28
   4   8 -11    0.07    0.31
  -3  -8  11    6.21    0.50
  -3  -8  11    5.34    0.53
  -3   8  11    4.24    0.58
   3   8 -11    4.50    0.56
   3   8 -11    5.36    0.52
   3   8 -11    5.13    0.58
  -3   8  11    4.36    0.55
  -3   8  11    4.51    0.52
  -2  -8  11    1.26    0.19
  -2  -8  11    0.89    0.26
  -2   8  11    0.61    0.23
   2   8 -11    0.83    0.36
   2   8 -11    1.18    0.18
  -2   8  11    1.35    0.26
  -2   8  11    0.85    0.29
   2   8 -11    0.13    0.33
  -1  -8  11   13.08    1.13
  -1  -8  11   15.18    1.28
  -1  -8  11   13.61    1.14
   1  -8 -11    9.79    1.13
   1   8 -11   13.18    1.26
  -1   8  11   10.92    1.16
   1   8 -11   13.77    1.13
  -1   8  11    9.79    1.12
   0  -8  11    0.38    0.18
   0  -8  11   -0.03    0.16
   0  -8  11    0.34    0.19
   0  -8 -11    0.04    0.16
   0   8  11    0.20    0.21
   0   8 -11    0.43    0.28
   0   8  11   -0.06    0.21
   0   8 -11    0.26    0.24
   1  -8  11    0.36    0.22
   1  -8  11    0.21    0.22
   1  -8  11   -0.03    0.18
   1   8  11    0.47    0.34
  -1   8 -11    0.02    0.31
  -1   8 -11    0.22    0.29
   2  -8  11    0.29    0.22
  -2  -8 -11   -0.04    0.20
   2  -8  11   -0.02    0.24
   2  -8  11    0.16    0.22
  -2   8 -11    0.29    0.27
   2   8  11    0.56    0.37
  -2   8 -11    1.42    0.37
   3  -8  11   20.58    2.53
   3  -8  11   19.36    1.95
   3  -8  11   21.29    2.02
  -3   8 -11   22.83    2.03
   3   8  11   17.04    2.08
   4  -8  11    1.49    0.39
   4  -8  11    2.20    0.33
   4   8  11    1.42    0.45
   4   8  11    2.67    0.50
  -4   8 -11    2.73    0.41
   5  -8  11    7.93    1.16
   5   8  11    4.00    0.67
   5   8  11    5.34    0.68
   6  -8  11    0.03    0.43
   6   8  11    0.26    0.58
   6   8  11   -0.02    0.62
  -8  -9  11    3.36    0.41
  -8  -9  11    2.38    0.41
   8   9 -11    1.93    0.54
  -8   9  11    2.70    0.68
  -7  -9  11    0.25    0.33
  -7  -9  11    0.06    0.23
   7   9 -11    0.16    0.42
  -7   9  11   -0.10    0.30
  -7   9  11   -0.47    0.49
  -6  -9  11    1.26    0.32
  -6  -9  11    1.38    0.29
   6   9 -11    0.98    0.40
  -6   9  11    0.06    0.47
   6   9 -11    0.89    0.35
  -6   9  11    0.87    0.33
  -5  -9  11    0.05    0.26
  -5  -9  11    0.22    0.23
   5   9 -11    0.23    0.36
   5   9 -11    0.02    0.37
  -5   9  11   -0.14    0.22
  -5   9  11    0.02    0.38
  -4  -9  11    1.55    0.25
  -4  -9  11    1.06    0.25
  -4   9  11    0.73    0.28
  -4   9  11    0.83    0.31
   4   9 -11    1.15    0.48
   4   9 -11    0.68    0.35
  -4   9  11    0.75    0.39
  -3  -9  11    0.57    0.19
  -3  -9  11    0.50    0.27
  -3   9  11   -0.16    0.31
  -3   9  11    0.38    0.23
  -3   9  11    0.24    1.07
   3   9 -11   -0.15    0.30
   3   9 -11    0.53    0.34
  -2  -9  11    2.16    0.28
  -2   9  11    1.07    0.34
  -2   9  11    1.18    0.31
  -2   9  11    1.61    0.37
   2   9 -11    1.84    0.37
   2   9 -11    1.33    0.33
  -1  -9  11    1.23    0.28
  -1  -9  11    1.70    0.23
  -1   9  11    1.12    0.35
   1   9 -11    1.51    0.41
  -1   9  11    0.93    0.39
   1   9 -11    1.46    0.33
   0  -9 -11    4.43    0.50
   0  -9  11    4.17    0.46
   0  -9  11    4.20    0.42
   0  -9  11    3.85    0.45
   0   9 -11    3.36    0.51
   0   9 -11    4.55    0.53
   0   9  11    3.31    0.53
   1  -9  11    1.52    0.24
   1  -9  11    1.58    0.26
   1  -9  11    1.71    0.31
  -1  -9 -11    0.75    0.33
  -1   9 -11    1.23    0.31
  -1   9 -11    1.44    0.38
   1   9  11    1.60    0.42
  -2  -9 -11    4.47    0.56
   2  -9  11    5.97    0.57
   2  -9  11    5.78    0.61
   2  -9  11    5.30    0.62
  -2   9 -11    6.84    0.97
  -2   9 -11    4.87    0.62
   3  -9  11    3.46    0.45
  -3  -9 -11    2.64    0.46
   3  -9  11    4.49    0.48
   3   9  11    2.29    0.54
  -4  -9 -11    1.93    0.35
   4  -9  11    1.56    0.36
   4  -9  11    3.03    0.40
   4   9  11    1.82    0.51
   4   9  11    1.35    0.58
   5  -9  11    0.21    0.34
   5   9  11    0.47    0.60
   5   9  11   -0.30    0.52
  -5   9 -11    0.19    0.44
  -7 -10  11   -0.07    0.36
  -7 -10  11   -0.08    0.31
  -7  10  11    0.24    0.36
  -7  10  11    0.11    0.48
   7  10 -11   -0.12    0.44
  -6 -10  11    0.54    0.29
  -6 -10  11    0.79    0.27
  -6  10  11    0.61    0.35
   6  10 -11    0.35    0.50
   6  10 -11    0.28    0.46
  -6  10  11    0.02    0.38
  -5 -10  11    1.56    0.34
  -5 -10  11    1.58    0.28
   5  10 -11    1.12    0.46
   5  10 -11    0.78    0.41
  -5  10  11    0.29    0.45
  -5  10  11    0.55    0.38
  -4 -10  11    0.35    0.23
  -4 -10  11    0.60    0.26
   4  10 -11    0.27    0.44
   4  10 -11    0.28    0.39
  -4  10  11    0.28    0.32
  -4  10  11    0.33    0.24
  -3 -10  11    1.70    0.32
  -3 -10  11    1.53    0.25
   3  10 -11    0.87    0.36
  -3  10  11    1.07    0.38
  -3  10  11    1.20    0.42
  -3  10  11    0.81    0.29
   3  10 -11    1.15    0.40
  -2 -10  11    0.25    0.28
  -2 -10  11    0.66    0.22
   2  10 -11    0.94    0.83
  -2  10  11    0.19    0.38
  -2  10  11    0.50    0.39
  -2  10  11    0.26    0.26
   2  10 -11    0.32    0.34
   1 -10 -11    0.30    0.33
  -1 -10  11    0.93    0.30
  -1 -10  11    1.14    0.21
  -1  10  11    1.11    0.31
  -1  10  11    0.60    0.35
   1  10 -11    1.23    0.38
   1  10 -11    1.20    0.39
   0 -10  11    0.41    0.19
   0 -10  11   -0.06    0.40
   0 -10 -11   -0.20    0.31
   0  10  11    0.03    0.29
   0  10 -11    0.06    0.34
   0  10 -11    0.17    0.43
  -1 -10 -11    0.66    0.34
   1 -10  11    0.80    0.28
   1 -10  11    1.33    0.29
  -1  10 -11    1.04    0.40
  -1  10 -11    1.03    0.32
   1  10  11    1.25    0.44
   2 -10  11    0.50    0.28
   2 -10  11    0.22    0.26
  -2 -10 -11    0.43    0.33
   2  10  11    0.40    0.44
  -2  10 -11    0.52    0.45
  -2  10 -11    0.17    0.40
   3 -10  11    0.07    0.36
  -3 -10 -11    0.31    0.37
   3 -10  11    0.30    0.28
  -3  10 -11    0.28    0.40
   3  10  11    0.32    0.47
  -4 -10 -11    0.32    0.39
   4 -10  11    0.49    0.33
   4 -10  11    0.07    0.30
  -4  10 -11   -0.15    0.40
   4  10  11   -0.37    0.60
   4  10  11    0.49    0.51
  -6 -11  11   -0.07    0.31
  -6 -11  11   -0.08    0.33
  -6  11  11    0.27    0.38
   6  11 -11    0.23    0.48
  -6  11  11    0.93    0.50
  -5 -11  11    0.73    0.26
  -5 -11  11    0.41    0.30
  -5  11  11    0.42    0.40
  -5  11  11   -0.07    0.46
   5  11 -11    0.67    0.46
   5  11 -11    0.32    0.42
  -4 -11  11    0.54    0.23
  -4 -11  11    0.29    0.31
   4  11 -11    0.08    0.43
   4  11 -11   -0.14    0.38
  -4  11  11   -0.17    0.42
  -4  11  11   -0.04    0.39
  -3 -11  11    0.65    0.25
  -3 -11  11    0.24    0.20
  -3  11  11    0.01    0.40
   3  11 -11    0.35    0.40
   3  11 -11   -0.14    0.44
  -3  11  11    0.36    0.42
  -2 -11  11    0.14    0.28
   2 -11 -11    0.13    0.24
   2  11 -11    0.09    0.32
   2  11 -11   -0.23    0.48
  -2  11  11   -0.56    0.39
  -2  11  11    0.39    0.45
  -1 -11  11    0.36    0.24
   1 -11 -11   -0.08    0.33
   1  11 -11   -0.30    0.38
  -1  11  11    0.14    0.59
   1  11 -11   -0.33    0.40
   0 -11 -11    1.36    0.38
   0 -11  11    1.10    0.26
   0  11  11    0.68    0.35
   0  11 -11    0.88    0.50
   0  11 -11    0.44    0.41
   1 -11  11    0.23    0.28
  -1 -11 -11   -0.28    0.36
  -1  11 -11   -0.09    0.40
  -1  11 -11    0.35    0.43
   1  11  11    0.07    0.32
  -2 -11 -11    0.70    0.39
   2 -11  11    0.61    0.31
  -2  11 -11    1.11    0.46
  -2  11 -11    0.38    0.36
   2  11  11    0.34    0.53
   3 -11  11   -0.02    0.27
   3 -11  11    0.09    0.30
  -3 -11 -11   -0.25    0.39
  -3  11 -11    0.14    0.47
  -3  11 -11    0.51    0.40
   3  11  11   -0.15    0.53
  -5 -12  11    0.41    0.29
  -5 -12  11    0.24    0.33
  -5  12  11    0.30    0.50
   5  12 -11   -0.11    0.52
  -5  12  11   -0.23    0.47
  -4 -12  11   -0.04    0.32
  -4  12  11    0.16    0.42
   4  12 -11    0.06    0.49
  -4  12  11    0.07    0.50
  -3 -12  11    3.43    0.45
   3  12 -11    2.46    0.49
  -3  12  11    2.18    0.55
  -3  12  11    2.40    0.58
   3  12 -11    3.32    0.63
   2 -12 -11    0.12    0.36
  -2 -12  11    0.54    0.26
   2  12 -11    0.49    0.44
   2  12 -11    0.14    0.47
  -2  12  11    0.39    0.51
  -2  12  11    0.74    0.51
  -1 -12  11    1.03    0.28
   1 -12 -11    1.16    0.39
  -1  12  11    0.23    0.51
   1  12 -11    0.82    0.39
   1  12 -11    1.25    0.46
   0 -12 -11    0.05    0.39
   0 -12  11    0.42    0.26
   0  12 -11    0.08    0.35
   0  12  11    0.42    0.55
   0  12 -11    0.25    0.56
  -1 -12 -11    0.80    0.42
   1 -12  11    0.37    0.32
  -1  12 -11    0.01    0.41
   1  12  11   -0.51    0.52
  -1  12 -11   -0.35    0.34
  -2 -12 -11    0.14    0.31
   2 -12  11   -0.06    0.26
  -2  12 -11   -0.31    0.49
  -2  12 -11   -0.48    0.47
   2  12  11    0.39    0.58
  -3 -13  11    0.06    0.33
  -3  13  11   -0.30    0.53
  -3  13  11    0.00    0.53
   3  13 -11   -0.56    0.48
   2 -13 -11   -0.31    0.50
  -2 -13  11    0.19    0.40
  -2  13  11   -0.05    0.58
   2  13 -11    0.51    0.51
   1 -13 -11   -0.07    0.42
  -1 -13  11   -0.16    0.38
   1  13 -11   -0.42    0.62
  -1  13  11   -0.70    0.57
   1  13 -11    0.12    0.49
   0 -13  11    1.17    0.33
   0 -13 -11    0.41    0.46
   0  13 -11    2.58    0.56
   0  13 -11    0.73    0.53
   0  13  11    0.01    0.44
  10   0 -12    0.37    0.26
 -10   0  12   -0.11    0.56
   9   0 -12   -0.18    0.23
  -9   0  12    0.08    0.24
   8   0 -12    4.82    0.56
  -8   0  12    3.07    0.40
  -8   0  12    4.23    0.47
   8   0 -12    4.42    0.43
  -7   0  12    0.04    0.22
   7   0 -12    0.08    0.32
   7   0 -12    0.10    0.17
   6   0 -12    0.36    0.13
   6   0 -12    0.41    0.22
  -6   0  12    0.06    0.19
  -5   0  12   -0.10    0.13
  -5   0  12   -0.05    0.16
  -5   0  12    0.38    0.18
   5   0 -12   -0.18    0.25
   5   0 -12    0.12    0.11
  -4   0  12    1.85    0.24
   4   0 -12    2.60    0.30
  -4   0  12    2.04    0.25
  -4   0  12    2.07    0.28
  -3   0  12   -0.07    0.11
  -3   0  12    0.17    0.18
   3   0 -12   -0.22    0.15
   3   0 -12    0.20    0.21
  -3   0  12    0.10    0.17
   2   0 -12   20.89    1.89
  -2   0  12   19.36    2.02
  -2   0  12   21.56    1.91
  -2   0  12   21.19    2.05
   2   0 -12   17.90    2.07
  -2   0  12   21.96    1.85
  -1   0  12    0.15    0.15
  -1   0  12    0.06    0.13
  -1   0  12    0.00    0.07
   1   0 -12   -0.03    0.20
  -1   0  12    0.06    0.09
   0   0  12    2.94    0.37
   0   0  12    3.81    0.37
   0   0  12    4.44    0.42
   0   0 -12    4.54    0.42
   1   0  12    0.01    0.11
   1   0  12   -0.16    0.19
   1   0  12    0.00    0.13
  -1   0 -12   -0.10    0.16
   2   0  12   11.70    1.49
   2   0  12   14.12    1.29
  -2   0 -12   13.42    1.25
  -3   0 -12    0.10    0.20
   3   0  12   -0.01    0.24
   3   0  12   -0.10    0.20
   4   0  12    4.91    0.63
   4   0  12    7.12    0.64
   5   0  12    0.37    0.32
   5   0  12    0.04    0.31
   6   0  12    6.17    0.72
   6   0  12    6.60    0.74
   7   0  12   -0.16    0.42
   7   0  12    0.34    0.44
 -10  -1  12    0.09    0.35
  10  -1 -12   -0.15    0.26
 -10   1  12    0.00    0.33
  10   1 -12   -0.45    0.26
  -9  -1  12    0.43    0.30
   9  -1 -12   -0.12    0.19
  -9   1  12   -0.01    0.29
   9   1 -12    0.07    0.25
   8  -1 -12    0.20    0.19
  -8  -1  12    0.12    0.24
   8  -1 -12   -0.03    0.27
  -8  -1  12    0.04    0.20
   8   1 -12    0.22    0.19
   8   1 -12    0.07    0.38
  -8   1  12   -0.33    0.29
   7  -1 -12    1.06    0.36
  -7  -1  12    1.39    0.26
   7  -1 -12    1.24    0.20
   7   1 -12    0.71    0.36
  -7   1  12    1.11    0.25
   7   1 -12    1.26    0.20
   6  -1 -12    0.00    0.29
  -6  -1  12    0.23    0.20
   6  -1 -12    0.04    0.13
  -6   1  12    0.15    0.12
   6   1 -12    0.28    0.13
  -6   1  12    0.02    0.22
   6   1 -12    0.07    0.29
   5  -1 -12   10.03    0.94
  -5  -1  12   10.10    0.87
  -5  -1  12    8.43    0.86
   5   1 -12   10.40    0.95
   5   1 -12   10.29    0.86
  -5   1  12    9.05    0.90
  -5   1  12    7.58    0.92
  -5   1  12    9.63    0.87
   4  -1 -12    0.07    0.23
  -4  -1  12    0.14    0.12
  -4  -1  12   -0.19    0.17
  -4  -1  12   -0.19    0.12
  -4   1  12    0.04    0.15
  -4   1  12   -0.07    0.17
   4   1 -12    0.05    0.15
  -4   1  12   -0.02    0.14
   4   1 -12    0.19    0.24
  -3  -1  12   30.92    3.33
   3  -1 -12   33.97    3.03
   3  -1 -12   27.57    3.30
  -3  -1  12   37.68    2.94
  -3  -1  12   29.88    3.17
  -3   1  12   32.80    2.96
  -3   1  12   31.16    3.15
   3   1 -12   27.73    3.08
   3   1 -12   32.63    3.30
  -3   1  12   32.01    3.41
  -3   1  12   38.93    2.92
   2  -1 -12    0.69    0.20
  -2  -1  12    0.74    0.19
  -2  -1  12    1.07    0.19
  -2  -1  12    0.30    0.20
  -2   1  12    0.58    0.16
  -2   1  12    0.79    0.12
   2   1 -12    1.13    0.21
   2   1 -12    1.08    0.22
  -2   1  12    0.96    0.20
  -2   1  12    0.63    0.19
   1  -1 -12    0.09    0.17
  -1  -1  12    0.05    0.18
  -1  -1  12   -0.07    0.17
  -1  -1  12   -0.01    0.15
   1   1 -12   -0.09    0.17
  -1   1  12    0.26    0.38
  -1   1  12   -0.08    0.15
  -1   1  12    0.06    0.09
   0  -1  12    0.93    0.12
   0  -1  12    1.13    0.24
   0  -1  12    1.06    0.18
   0  -1 -12    1.23    0.20
   0   1  12    1.26    0.26
   0   1  12    0.92    0.16
   0   1 -12    1.26    0.25
   0   1  12    0.75    0.14
   1  -1  12    6.39    0.59
   1  -1  12    5.77    0.60
   1  -1  12    6.35    0.59
  -1  -1 -12    6.79    0.61
   1   1  12    6.38    0.60
   1   1  12    5.37    0.63
  -1   1 -12    5.81    0.62
   2  -1  12    0.16    0.20
  -2  -1 -12    0.69    0.18
   2  -1  12    0.11    0.19
  -2   1 -12    0.36    0.20
   2   1  12    0.50    0.19
   2   1  12    0.10    0.23
   3  -1  12    1.46    0.29
  -3  -1 -12    2.47    0.31
   3  -1  12    2.02    0.32
   3   1  12    1.93    0.32
  -3   1 -12    1.84    0.32
   3   1  12    1.86    0.29
   4  -1  12    0.12    0.28
   4  -1  12    0.21    0.34
  -4  -1 -12    0.34    0.20
   4   1  12    0.03    0.35
   4   1  12    0.02    0.25
   5  -1  12    0.14    0.31
   5  -1  12    0.55    0.32
   5   1  12   -0.14    0.31
   5   1  12   -0.17    0.31
   6  -1  12    3.37    0.46
   6  -1  12    3.51    0.50
   6   1  12    2.64    0.49
   6   1  12    3.14    0.50
   7  -1  12    0.55    0.50
   7   1  12    1.18    0.53
   7   1  12    0.16    0.50
  10  -2 -12    0.25    0.35
 -10  -2  12    0.11    0.29
  10   2 -12   -0.25    0.29
 -10   2  12   -0.35    0.27
   9  -2 -12    0.61    0.24
  -9  -2  12    0.25    0.29
   9   2 -12    0.48    0.29
   9   2 -12    0.02    0.34
  -9   2  12    0.18    0.24
   8  -2 -12    0.04    0.20
  -8  -2  12   -0.22    0.19
  -8  -2  12    0.15    0.21
   8   2 -12    0.45    0.40
   8   2 -12    0.23    0.18
  -8   2  12   -0.03    0.26
   7  -2 -12    1.13    0.35
  -7  -2  12    0.77    0.21
  -7  -2  12    1.11    0.26
   7  -2 -12    1.01    0.22
   7   2 -12    1.25    0.20
   7   2 -12    0.69    0.35
  -7   2  12    0.79    0.24
   6  -2 -12    0.88    0.17
  -6  -2  12    0.69    0.22
   6  -2 -12    0.97    0.31
  -6   2  12    0.75    0.25
   6   2 -12    0.69    0.31
   6   2 -12    0.83    0.15
  -6   2  12    0.59    0.18
  -5  -2  12    2.09    0.29
   5  -2 -12    1.86    0.34
   5   2 -12    2.53    0.23
  -5   2  12    1.92    0.30
   5   2 -12    1.91    0.35
  -5   2  12    1.90    0.26
  -5   2  12    2.75    0.30
  -4  -2  12    0.94    0.19
  -4  -2  12    0.61    0.13
   4  -2 -12    0.29    0.24
  -4   2  12    0.38    0.17
  -4   2  12    0.50    0.18
  -4   2  12    0.43    0.19
   4   2 -12    0.55    0.17
   3  -2 -12    4.33    0.44
  -3  -2  12    3.71    0.41
  -3   2  12    3.40    0.45
   3   2 -12    5.10    0.47
  -3   2  12    3.94    0.40
   3   2 -12    4.17    0.43
  -3   2  12    5.10    0.44
  -3   2  12    4.35    0.44
   2  -2 -12    4.11    0.38
  -2  -2  12    2.77    0.39
  -2  -2  12    3.36    0.35
  -2   2  12    2.82    0.39
   2   2 -12    3.63    0.48
   2   2 -12    3.51    0.39
  -2   2  12    4.00    0.39
  -2   2  12    3.01    0.34
  -2   2  12    4.53    0.40
   1  -2 -12    0.31    0.17
  -1  -2  12   -0.11    0.16
  -1  -2  12    0.22    0.15
  -1  -2  12    0.17    0.17
   1   2 -12    0.41    0.19
  -1   2  12    0.01    0.18
  -1   2  12    0.06    0.11
  -1   2  12    0.13    0.14
   0  -2 -12   -0.03    0.16
   0  -2  12   -0.20    0.16
   0  -2  12    0.02    0.19
   0   2  12   -0.01    0.10
   0   2 -12   -0.03    0.19
   0   2  12   -0.02    0.23
   0   2  12    0.05    0.13
   1  -2  12    2.83    0.34
   1  -2  12    2.43    0.25
   1  -2  12    2.22    0.30
  -1  -2 -12    2.65    0.30
   1   2  12    3.56    0.36
  -1   2 -12    3.02    0.33
   1   2  12    2.49    0.33
  -1   2 -12    2.45    0.28
   2  -2  12    0.10    0.15
   2  -2  12    0.14    0.26
  -2  -2 -12    0.06    0.16
  -2   2 -12    0.33    0.12
  -2   2 -12    0.19    0.25
   2   2  12   -0.05    0.23
   2   2  12   -0.09    0.22
   3  -2  12   16.72    1.65
   3  -2  12   17.03    1.49
  -3  -2 -12   16.79    1.63
   3   2  12   16.48    1.70
   3   2  12   14.14    1.68
  -3   2 -12   19.01    1.80
  -3   2 -12   15.79    1.64
  -4  -2 -12    0.65    0.21
   4  -2  12    0.61    0.26
   4  -2  12    0.45    0.37
   4   2  12    0.82    0.32
   4   2  12    0.56    0.28
  -5  -2 -12    0.97    0.28
   5  -2  12    0.26    0.33
   5  -2  12    1.64    0.41
   5   2  12    0.94    0.36
   5   2  12    0.77    0.37
   6  -2  12    1.82    0.40
   6   2  12    0.81    0.43
   6   2  12    0.54    0.47
   7  -2  12    0.04    0.49
   7   2  12    0.45    0.51
   7   2  12    0.02    0.46
  10  -3 -12   -0.11    0.24
 -10  -3  12   -0.09    0.37
 -10   3  12    0.07    0.43
  10   3 -12    0.15    0.26
 -10   3  12    0.24    0.36
  -9  -3  12    0.28    0.25
   9  -3 -12    0.12    0.24
  -9  -3  12    0.02    0.26
  -9   3  12    0.41    0.62
   9   3 -12    0.24    0.29
   9   3 -12    0.01    0.44
  -9   3  12   -0.12    0.42
  -8  -3  12    0.23    0.22
   8  -3 -12    0.71    0.24
  -8  -3  12    0.69    0.28
   8   3 -12    0.69    0.40
   8   3 -12    1.23    0.24
  -8   3  12    0.50    0.28
   7  -3 -12    0.18    0.25
  -7  -3  12   -0.01    0.23
  -7  -3  12    0.15    0.19
  -7   3  12   -0.28    0.25
   7   3 -12    0.16    0.21
   7   3 -12   -0.15    0.34
  -6  -3  12    0.41    0.20
   6  -3 -12    0.67    0.23
  -6  -3  12    0.94    0.22
  -6   3  12    0.46    0.21
   6   3 -12    0.91    0.14
  -6   3  12    0.40    0.16
   6   3 -12    0.82    0.32
   5  -3 -12    2.52    0.37
  -5  -3  12    2.60    0.34
   5   3 -12    2.04    0.37
   5   3 -12    2.72    0.24
   5   3 -12    2.06    0.24
  -5   3  12    2.35    0.30
  -5   3  12    2.26    0.27
   4  -3 -12   -0.20    0.22
  -4  -3  12    0.07    0.19
  -4  -3  12   -0.12    0.11
  -4   3  12   -0.07    0.15
  -4   3  12   -0.05    0.15
  -4   3  12    0.07    0.18
   4   3 -12    0.14    0.25
   4   3 -12    0.09    0.14
   4   3 -12    0.00    0.05
  -3  -3  12    1.73    0.23
   3  -3 -12    2.11    0.25
  -3  -3  12    2.29    0.25
  -3   3  12    1.98    0.26
  -3   3  12    2.12    0.26
   3   3 -12    2.12    0.31
  -3   3  12    1.34    0.28
   3   3 -12    1.92    0.26
  -3   3  12    1.41    0.22
   2  -3 -12    0.59    0.20
  -2  -3  12    0.94    0.22
  -2  -3  12    0.98    0.18
   2   3 -12    1.01    0.23
  -2   3  12    0.49    0.16
   2   3 -12    0.40    0.22
  -2   3  12    0.50    0.20
  -2   3  12    1.20    0.21
  -2   3  12    0.89    0.20
  -1  -3  12    1.22    0.21
  -1  -3  12    1.31    0.22
  -1  -3  12    0.81    0.22
   1  -3 -12    1.53    0.25
  -1   3  12    0.70    0.17
   1   3 -12    1.40    0.21
  -1   3  12    0.94    0.19
   1   3 -12    1.33    0.25
  -1   3  12    1.04    0.23
   0  -3  12   19.82    2.08
   0  -3  12   19.74    1.82
   0  -3  12   17.14    1.71
   0  -3 -12   15.77    1.78
   0   3  12   18.23    1.71
   0   3  12   17.84    1.69
   0   3 -12   18.56    1.65
   0   3 -12   17.95    1.77
   1  -3  12    8.24    0.84
  -1  -3 -12    8.32    0.85
   1  -3  12    8.91    0.99
   1  -3  12    9.22    0.87
   1   3  12    9.71    0.88
  -1   3 -12    9.60    0.91
   1   3  12    8.19    0.87
  -1   3 -12   10.15    0.85
  -2  -3 -12    0.77    0.20
   2  -3  12    0.41    0.14
   2  -3  12    0.32    0.26
  -2   3 -12    0.60    0.17
   2   3  12    0.35    0.27
  -2   3 -12    0.71    0.28
   2   3  12    0.37    0.27
   3  -3  12    0.45    0.19
   3  -3  12    0.60    0.32
  -3  -3 -12    1.23    0.44
  -3   3 -12    0.74    0.16
   3   3  12    0.31    0.26
   3   3  12    0.64    0.36
   4  -3  12   -0.23    0.23
  -4  -3 -12    0.11    0.22
   4  -3  12    0.03    0.28
   4   3  12   -0.54    0.31
   4   3  12    0.40    0.32
  -5  -3 -12    0.13    0.25
   5  -3  12    0.33    0.31
   5   3  12   -0.46    0.35
   5   3  12   -0.04    0.36
  -6  -3 -12    2.25    0.36
   6  -3  12    2.42    0.43
   6   3  12    1.50    0.46
   6   3  12    1.49    0.50
   7  -3  12    0.39    0.48
   7   3  12    0.45    0.43
   7   3  12    1.77    0.58
 -10  -4  12    1.87    0.42
  10  -4 -12    1.27    0.34
 -10   4  12    1.60    0.43
 -10   4  12    1.42    0.47
  -9  -4  12    0.15    0.24
   9  -4 -12    0.16    0.25
  -9  -4  12    0.07    0.32
   9   4 -12    0.09    0.44
   9   4 -12    0.66    0.35
  -9   4  12   -0.42    0.57
  -9   4  12    0.35    0.31
   8  -4 -12    1.21    0.30
  -8  -4  12    1.29    0.28
  -8  -4  12    1.65    0.33
   8   4 -12    1.19    0.43
   8   4 -12    1.55    0.26
  -8   4  12    1.55    0.32
  -8   4  12    1.07    0.43
  -7  -4  12   -0.14    0.22
   7  -4 -12   -0.08    0.20
  -7  -4  12    0.13    0.21
  -7   4  12   -0.11    0.28
  -7   4  12   -0.16    0.27
   7   4 -12    0.00    0.34
   7   4 -12    0.05    0.18
  -6  -4  12   -0.04    0.21
  -6  -4  12   -0.11    0.20
   6  -4 -12    0.28    0.29
   6   4 -12    0.21    0.31
  -6   4  12    0.19    0.24
   6   4 -12    0.04    0.14
  -6   4  12    0.15    0.17
  -6   4  12    0.02    0.24
   5  -4 -12   11.66    1.10
  -5  -4  12   11.65    1.05
   5   4 -12   11.26    1.09
  -5   4  12   10.49    1.15
  -5   4  12   11.06    1.14
  -5   4  12   12.16    1.06
   5   4 -12   11.28    1.03
  -4  -4  12    1.07    0.20
  -4  -4  12    0.56    0.14
   4  -4 -12    1.07    0.26
  -4   4  12    0.39    0.21
   4   4 -12    1.11    0.10
  -4   4  12    0.65    0.20
  -4   4  12    0.87    0.24
   4   4 -12    0.69    0.18
   4   4 -12    0.90    0.30
   3  -4 -12    6.36    0.61
  -3  -4  12    5.00    0.48
  -3  -4  12    5.58    0.51
   3   4 -12    5.72    0.57
  -3   4  12    5.10    0.50
  -3   4  12    4.44    0.55
  -3   4  12    5.99    0.52
   3   4 -12    5.17    0.52
  -3   4  12    4.01    0.50
  -2  -4  12    9.12    0.72
   2  -4 -12    7.01    0.71
  -2  -4  12    7.52    0.73
   2   4 -12    7.43    0.72
   2   4 -12    8.28    0.74
  -2   4  12    6.60    0.73
  -2   4  12    6.92    0.74
  -2   4  12    8.54    0.73
  -1  -4  12   15.42    1.66
  -1  -4  12   17.53    1.51
   1  -4 -12   14.12    1.52
  -1   4  12   14.73    1.48
   1   4 -12   16.38    1.43
   1   4 -12   15.00    1.41
  -1   4  12   15.06    1.61
   0  -4  12   11.67    1.05
   0  -4  12    9.32    0.97
   0  -4  12   10.87    1.12
   0  -4 -12   10.63    1.01
   0   4  12   10.06    0.94
   0   4  12   11.04    0.98
   0   4 -12   11.00    0.98
   0   4 -12    9.83    0.98
   1  -4  12    3.05    0.37
  -1  -4 -12    2.38    0.32
   1  -4  12    2.19    0.34
  -1   4 -12    3.25    0.36
  -1   4 -12    3.44    0.37
   1   4  12    2.62    0.38
  -2  -4 -12   -0.09    0.17
   2  -4  12    0.01    0.22
  -2   4 -12    0.04    0.24
   2   4  12    0.14    0.25
  -2   4 -12   -0.08    0.19
   2   4  12    0.55    0.28
  -3  -4 -12    0.12    0.16
   3  -4  12   -0.14    0.29
   3   4  12   -0.13    0.37
   3   4  12    1.18    0.55
  -3   4 -12   -0.07    0.19
   4  -4  12   -0.24    0.32
  -4  -4 -12    0.00    0.20
   4   4  12   -0.16    0.40
   4   4  12   -0.31    0.33
  -5  -4 -12    1.02    0.25
   5  -4  12    0.32    0.35
   5   4  12    0.89    0.47
   5   4  12    0.75    0.40
   6  -4  12    0.68    0.36
   6   4  12    0.56    0.48
   6   4  12    1.33    0.44
   7  -4  12    0.20    0.39
   7   4  12   -0.28    0.56
   7   4  12   -0.20    0.45
 -10  -5  12    0.61    0.33
  10  -5 -12   -0.07    0.26
 -10   5  12   -0.30    0.50
 -10   5  12    1.05    0.41
  -9  -5  12   -0.14    0.31
  -9  -5  12   -0.24    0.26
   9  -5 -12   -0.28    0.26
  -9   5  12   -0.12    0.40
   9   5 -12   -0.26    0.46
  -9   5  12    0.11    0.33
  -8  -5  12   -0.08    0.24
   8  -5 -12    0.15    0.26
  -8  -5  12    0.23    0.28
  -8   5  12   -0.19    0.32
   8   5 -12    0.17    0.43
   8   5 -12   -0.20    0.25
  -8   5  12   -0.15    0.26
  -7  -5  12    0.57    0.24
  -7  -5  12    0.90    0.34
   7   5 -12    0.50    0.36
   7   5 -12    0.52    0.20
  -7   5  12    0.50    0.29
  -7   5  12    0.39    0.30
  -6  -5  12    2.68    0.34
  -6  -5  12    2.71    0.33
  -6   5  12    2.25    0.41
   6   5 -12    1.76    0.40
  -6   5  12    2.49    0.34
  -6   5  12    1.95    0.34
   6   5 -12    2.47    0.28
  -5  -5  12   19.68    1.65
   5  -5 -12   16.29    1.71
  -5  -5  12   18.97    1.69
  -5   5  12   18.69    1.65
   5   5 -12   18.53    1.68
  -5   5  12   17.75    1.69
   5   5 -12   20.52    1.83
  -5   5  12   16.89    1.73
  -4  -5  12    0.58    0.15
   4  -5 -12    0.58    0.24
  -4  -5  12    0.77    0.22
   4   5 -12    0.39    0.07
  -4   5  12    0.29    0.20
   4   5 -12    0.20    0.28
   4   5 -12    0.26    0.16
  -4   5  12    0.32    0.20
  -4   5  12    0.17    0.21
  -3  -5  12    0.26    0.14
   3  -5 -12    0.60    0.21
  -3  -5  12    0.79    0.19
   3   5 -12    0.27    0.20
   3   5 -12    0.39    0.24
  -3   5  12    0.27    0.25
  -3   5  12    0.17    0.23
  -3   5  12    0.36    0.21
   3   5 -12    0.81    0.27
   2  -5 -12    9.42    1.01
  -2  -5  12   12.05    0.97
  -2  -5  12   10.59    0.98
  -2   5  12   10.68    0.95
  -2   5  12    9.79    1.01
  -2   5  12    9.61    1.04
   2   5 -12   10.24    0.98
   2   5 -12   10.49    1.05
   1  -5 -12    0.22    0.16
  -1  -5  12    0.07    0.20
  -1  -5  12    0.00    0.19
   1   5 -12    0.06    0.22
   1   5 -12    5.08    2.83
  -1   5  12    0.29    0.19
   0  -5  12    0.49    0.21
   0  -5  12    0.81    0.22
   0  -5 -12    0.65    0.20
   0   5 -12    0.44    0.23
   0   5  12    0.44    0.32
   0   5 -12    0.83    0.24
   0   5  12    0.43    0.17
   1  -5  12    1.82    0.28
  -1  -5 -12    1.76    0.24
   1  -5  12    1.68    0.29
   1   5  12    1.88    0.34
  -1   5 -12    1.55    0.30
  -1   5 -12    1.88    0.28
   2  -5  12   -0.10    0.23
  -2  -5 -12   -0.19    0.17
   2   5  12    0.09    0.29
  -2   5 -12   -0.06    0.21
  -2   5 -12    0.04    0.24
   2   5  12    0.40    0.30
   3  -5  12    3.00    0.43
  -3  -5 -12    3.13    0.37
  -3   5 -12    4.28    0.48
   3   5  12    3.46    0.48
   3   5  12    3.04    0.47
   4  -5  12    0.32    0.32
  -4  -5 -12    0.39    0.21
   4   5  12    0.08    0.37
   4   5  12    1.19    0.39
   5  -5  12    0.55    0.35
   5   5  12    0.00    0.40
   5   5  12   -0.75    0.48
   6  -5  12    0.54    0.36
   6   5  12    0.31    0.48
   6   5  12   -0.26    0.42
   9  -6 -12    0.22    0.25
  -9  -6  12    0.53    0.28
  -9  -6  12    0.01    0.29
  -9   6  12    0.23    0.41
  -9   6  12    0.15    0.32
   9   6 -12    0.13    0.50
  -8  -6  12    0.20    0.26
  -8  -6  12    0.53    0.30
   8   6 -12    0.06    1.07
  -8   6  12   -0.53    0.35
  -8   6  12    0.10    0.27
  -7  -6  12    0.19    0.21
  -7  -6  12   -0.26    0.25
  -7   6  12    0.20    0.25
  -7   6  12    0.05    0.22
  -7   6  12   -0.19    0.31
   7   6 -12   -0.60    0.38
  -6  -6  12    0.40    0.22
  -6  -6  12    0.31    0.24
   6   6 -12    0.35    0.25
  -6   6  12    0.12    0.28
  -6   6  12    0.11    0.23
  -6   6  12   -0.23    0.25
  -5  -6  12    0.55    0.21
  -5  -6  12    0.23    0.23
  -5   6  12    0.43    0.50
  -5   6  12    0.17    0.20
   5   6 -12   -0.41    0.31
  -5   6  12   -0.17    0.31
  -4  -6  12    0.25    0.19
  -4  -6  12   -0.20    0.18
   4  -6 -12   -0.16    0.28
  -4   6  12   -0.03    0.20
   4   6 -12    0.19    0.30
   4   6 -12    0.00    0.29
  -4   6  12    0.01    0.28
  -4   6  12    0.05    0.23
  -3  -6  12    1.96    0.25
  -3  -6  12    2.16    0.29
  -3  -6  12    2.73    0.31
   3  -6 -12    2.76    0.31
   3   6 -12    1.80    0.35
  -3   6  12    2.08    0.31
  -3   6  12    1.63    0.35
   3   6 -12    2.85    0.37
  -3   6  12    1.82    0.32
  -2  -6  12    0.19    0.18
  -2  -6  12    0.09    0.16
   2  -6 -12    0.26    0.22
  -2   6  12    0.23    0.24
   2   6 -12   -0.07    0.24
   2   6 -12    0.16    0.24
  -2   6  12    0.07    0.24
   1  -6 -12    0.47    0.17
  -1  -6  12    0.38    0.19
  -1  -6  12    0.83    0.19
  -1   6  12    0.10    0.24
   1   6 -12    0.43    0.24
   1   6 -12    0.88    0.26
  -1   6  12    0.35    0.27
   0  -6  12    1.00    0.23
   0  -6 -12    0.91    0.18
   0  -6  12    1.09    0.20
   0   6 -12    0.58    0.23
   0   6 -12    0.75    0.31
   0   6  12    1.15    0.30
   0   6  12    0.49    0.34
   1  -6  12    0.35    0.22
   1  -6  12   -0.05    0.23
  -1  -6 -12    0.10    0.17
   1   6  12    0.03    0.29
  -1   6 -12    1.34    0.58
  -1   6 -12    0.38    0.24
  -2  -6 -12    2.04    0.28
   2  -6  12    1.38    0.33
  -2   6 -12    2.44    0.34
   2   6  12    1.51    0.38
  -2   6 -12    2.16    0.34
   3  -6  12   11.82    1.04
  -3  -6 -12    8.76    0.99
   3   6  12   10.23    0.98
   3   6  12    7.55    1.02
  -3   6 -12   11.71    1.16
   4  -6  12    0.44    0.28
   4   6  12    0.26    0.37
   4   6  12    0.40    0.42
  -4   6 -12    0.66    0.30
   5  -6  12    2.53    0.40
   5   6  12    1.45    0.57
   5   6  12    0.87    0.51
   6  -6  12    0.61    0.37
   6   6  12    0.39    0.44
   6   6  12   -0.22    0.45
  -9  -7  12    0.54    0.35
  -9  -7  12    0.27    0.35
   9   7 -12   -0.05    0.51
  -9   7  12    0.82    0.55
  -8  -7  12   -0.07    0.31
  -8  -7  12    0.34    0.24
  -8   7  12   -0.39    0.28
  -8   7  12    0.83    0.97
   8   7 -12    0.56    0.47
  -7  -7  12    0.52    0.23
  -7  -7  12    0.30    0.28
  -7   7  12    0.20    0.34
   7   7 -12    0.27    0.40
  -7   7  12    0.51    0.25
  -7   7  12    0.49    0.26
  -6  -7  12    0.21    0.23
  -6  -7  12   -0.07    0.22
  -6   7  12    0.04    0.26
  -6   7  12   -0.45    0.37
  -6   7  12   -0.16    0.25
   6   7 -12   -0.26    0.36
  -5  -7  12   -0.24    0.21
  -5  -7  12    0.39    0.24
  -5   7  12    0.11    0.35
   5   7 -12    0.23    0.33
  -5   7  12    0.31    0.26
  -5   7  12    0.27    0.24
  -4  -7  12    0.28    0.22
  -4  -7  12   -0.06    0.24
   4   7 -12    0.17    0.31
   4   7 -12    0.11    0.29
  -4   7  12    0.20    0.24
  -4   7  12    0.09    0.25
  -4   7  12    0.51    0.34
  -3  -7  12    0.33    0.21
   3  -7 -12    2.00    0.47
  -3  -7  12    0.54    0.20
  -3  -7  12    0.32    0.16
  -3   7  12    0.31    0.28
  -3   7  12    0.37    0.25
   3   7 -12    0.04    0.29
   3   7 -12    0.41    0.29
  -3   7  12    0.12    0.30
  -2  -7  12    5.17    0.51
   2  -7 -12    4.98    0.53
  -2  -7  12    6.18    0.54
  -2  -7  12    6.45    0.55
  -2   7  12    4.51    0.52
  -2   7  12    4.18    0.58
   2   7 -12    5.89    0.56
  -2   7  12    3.98    0.53
   2   7 -12    5.99    0.58
  -1  -7  12    1.55    0.28
   1  -7 -12    1.98    0.24
  -1  -7  12    1.70    0.26
  -1  -7  12    1.95    0.26
   1   7 -12    2.43    0.37
  -1   7  12    0.73    0.33
  -1   7  12    1.00    0.29
   1   7 -12    1.90    0.37
   0  -7 -12    9.14    1.06
   0  -7  12   12.23    1.12
   0  -7  12   13.55    1.16
   0   7 -12   12.80    1.16
   0   7  12   11.05    1.10
   0   7 -12   11.14    1.07
   1  -7  12    0.08    0.22
  -1  -7 -12    0.38    0.14
   1  -7  12    0.10    0.19
   1   7  12    0.37    0.23
  -1   7 -12    0.04    0.26
   2  -7  12    3.85    0.43
   2  -7  12    3.23    0.44
  -2   7 -12    3.51    0.44
  -2   7 -12    3.59    0.49
   2   7  12    2.44    0.49
   3  -7  12    5.36    0.58
   3   7  12    3.61    0.62
  -3   7 -12    6.07    0.73
   3   7  12    4.57    2.24
   4  -7  12    0.12    0.35
   4   7  12    0.32    0.45
  -4   7 -12   -0.34    0.34
   4   7  12    0.25    0.41
   5  -7  12    1.00    0.77
   5   7  12    0.43    0.51
   5   7  12    0.45    0.47
   6  -7  12    1.22    0.40
   6   7  12    1.63    0.65
  -8  -8  12    1.41    0.35
  -8  -8  12    0.83    0.40
  -8   8  12    1.50    0.49
   8   8 -12    0.31    0.50
  -7  -8  12    0.00    0.29
  -7  -8  12    0.32    0.29
  -7   8  12   -0.24    0.28
   7   8 -12    0.93    0.44
  -7   8  12   -0.70    0.38
  -6  -8  12    0.21    0.21
  -6  -8  12   -0.01    0.28
  -6   8  12   -0.13    0.43
  -6   8  12    0.31    0.28
  -6   8  12    0.54    0.28
   6   8 -12   -0.12    0.39
  -5  -8  12   -0.06    0.21
  -5  -8  12    0.53    0.28
  -5   8  12   -0.28    0.28
   5   8 -12    0.06    0.35
  -5   8  12   -0.32    0.39
  -5   8  12    0.01    0.26
   5   8 -12   -0.02    0.36
  -4  -8  12   -0.20    0.22
  -4  -8  12    0.09    0.26
   4   8 -12   -0.09    0.32
  -4   8  12    0.13    0.25
  -4   8  12   -0.20    0.36
  -4   8  12    0.06    0.30
   4   8 -12   -0.01    0.24
  -3  -8  12    0.39    0.19
  -3  -8  12   -0.06    0.25
   3   8 -12   -0.16    0.30
  -3   8  12    0.23    0.25
  -3   8  12   -0.07    0.32
   3   8 -12    0.28    0.31
  -3   8  12    0.16    0.30
  -2  -8  12   11.64    1.12
  -2  -8  12   13.37    1.11
  -2   8  12    9.92    1.12
  -2   8  12    9.52    1.12
  -2   8  12   13.16    1.11
   2   8 -12   12.42    1.10
   2   8 -12   11.85    1.13
  -1  -8  12    0.47    0.22
  -1  -8  12    0.48    0.21
  -1  -8  12    0.27    0.20
   1  -8 -12    0.24    0.19
  -1   8  12   -0.06    0.26
   1   8 -12    0.36    0.34
  -1   8  12   -0.09    0.32
   1   8 -12    0.27    0.35
   0  -8  12    7.74    0.73
   0  -8  12    6.67    0.65
   0  -8 -12    4.90    0.62
   0  -8  12    7.30    0.64
   0   8 -12    5.32    0.67
   0   8  12    5.09    0.69
   0   8 -12    7.28    0.69
   1  -8  12    0.20    0.25
   1  -8  12    0.23    0.24
   1  -8  12    0.14    0.24
  -1   8 -12    0.05    0.34
   1   8  12    0.07    0.36
  -1   8 -12    0.05    0.28
   2  -8  12   -0.09    0.28
   2  -8  12   -0.24    0.26
   2  -8  12   -0.06    0.25
   2   8  12    0.18    0.39
  -2   8 -12   -0.32    0.30
  -2   8 -12   -0.23    0.30
   3  -8  12    9.35    0.99
   3  -8  12    9.77    0.91
   3  -8  12    8.03    0.85
   3   8  12    7.68    0.95
  -3   8 -12    8.70    0.87
   4  -8  12    0.94    0.34
   4  -8  12    0.08    0.30
   4   8  12    0.89    0.47
   4   8  12    0.18    0.49
  -4   8 -12    1.01    0.36
   5  -8  12   -0.13    0.42
   5   8  12    0.57    0.49
   5   8  12    0.39    0.58
  -8  -9  12    0.48    0.37
  -8  -9  12    0.67    0.35
   8   9 -12    0.19    0.52
  -8   9  12   -0.07    0.56
  -7  -9  12   -0.27    0.33
  -7  -9  12   -0.29    0.30
  -7   9  12   -0.60    0.55
  -7   9  12    0.10    0.32
   7   9 -12    0.43    0.47
  -6  -9  12    0.28    0.26
  -6  -9  12    0.18    0.31
  -6   9  12    0.55    0.41
   6   9 -12   -0.33    0.43
  -6   9  12   -0.03    0.30
  -5  -9  12    2.27    0.32
  -5  -9  12    2.24    0.36
   5   9 -12    1.42    0.43
  -5   9  12    1.11    0.51
  -5   9  12    1.76    0.37
   5   9 -12    1.59    0.44
  -5   9  12    0.91    0.46
  -4  -9  12    0.50    0.24
  -4  -9  12   -0.23    0.24
  -4   9  12    0.13    0.34
  -4   9  12    0.07    0.26
   4   9 -12   -0.11    0.36
  -4   9  12    0.64    0.40
   4   9 -12    0.27    0.36
  -3  -9  12    1.87    0.32
  -3  -9  12    1.36    0.26
  -3   9  12    1.09    0.28
  -3   9  12    0.69    0.36
  -3   9  12    0.64    0.34
   3   9 -12    1.02    0.36
   3   9 -12    0.58    0.34
  -2  -9  12    0.01    0.26
  -2  -9  12   -0.12    0.18
   2   9 -12    0.03    0.36
  -2   9  12   -0.07    0.26
  -2   9  12   -0.40    0.35
   2   9 -12   -0.02    0.39
  -2   9  12   -0.15    0.35
  -1  -9  12    0.38    0.21
  -1  -9  12    0.28    0.28
  -1  -9  12    0.67    0.21
  -1   9  12    0.73    0.36
   1   9 -12   -0.15    0.29
   1   9 -12    1.23    0.35
   0  -9  12    1.27    0.76
   0  -9  12    2.39    0.35
   0  -9  12    2.00    0.27
   0   9 -12    1.18    0.34
   0   9 -12    1.92    0.39
   0   9  12    0.86    0.42
   1  -9  12    5.90    0.58
   1  -9  12    5.83    0.60
   1  -9  12    5.06    0.59
   1   9  12    3.41    0.63
  -1   9 -12    6.08    0.62
  -1   9 -12    5.22    0.60
   2  -9  12    0.77    0.31
   2  -9  12    0.94    0.33
  -2   9 -12    1.12    0.38
  -2   9 -12    0.72    0.35
   2   9  12    0.72    0.31
   3  -9  12    5.64    0.63
   3  -9  12    5.76    0.61
  -3   9 -12    6.67    0.71
  -3   9 -12    5.18    0.64
   3   9  12    3.40    0.69
   4  -9  12    0.36    0.33
   4  -9  12    0.16    0.33
   4   9  12    0.02    0.45
  -4   9 -12    0.16    0.40
   4   9  12    1.51    0.52
  -7 -10  12    0.54    0.39
  -7 -10  12    0.29    0.32
  -7  10  12   -0.22    0.45
  -7  10  12   -0.27    0.38
   7  10 -12   -0.22    0.47
  -6 -10  12    0.23    0.28
  -6 -10  12   -0.12    0.27
   6  10 -12   -0.02    0.46
   6  10 -12   -0.48    0.50
  -6  10  12   -0.59    0.33
  -6  10  12   -0.24    0.52
  -5 -10  12   -0.09    0.24
  -5 -10  12    0.14    0.32
   5  10 -12   -0.06    0.43
   5  10 -12    0.15    0.48
  -5  10  12    0.21    0.47
  -5  10  12    0.12    0.36
  -4 -10  12   -0.16    0.24
  -4 -10  12   -0.11    0.21
  -4  10  12    0.09    0.27
   4  10 -12    0.15    0.39
   4  10 -12    0.48    0.42
  -4  10  12   -0.32    0.41
  -3 -10  12    0.17    0.31
  -3 -10  12    0.72    0.24
  -3  10  12    0.30    0.44
  -3  10  12    0.47    0.51
  -3  10  12    0.39    0.39
   3  10 -12    1.19    0.42
   3  10 -12    0.08    0.36
  -2 -10  12    0.76    0.32
  -2 -10  12    0.92    0.24
  -2  10  12    1.03    0.32
  -2  10  12    1.00    0.37
   2  10 -12    0.43    0.34
  -2  10  12    0.74    0.37
   2  10 -12    1.10    0.46
  -1 -10  12    1.26    0.27
  -1 -10  12    0.98    0.23
  -1  10  12    1.05    0.44
   1  10 -12    0.90    0.39
   1  10 -12    0.92    0.35
   0 -10  12   -0.07    0.29
   0 -10  12   -0.01    0.19
   0 -10  12   -0.02    0.35
   0  10  12    0.16    0.42
   0  10 -12    0.12    0.31
   0  10 -12    0.34    0.37
   1 -10  12    0.44    0.31
   1 -10  12    0.25    0.32
  -1  10 -12    0.98    0.46
   1  10  12   -0.59    0.45
  -1  10 -12    0.39    0.33
   2 -10  12   -0.08    0.29
   2 -10  12    0.03    0.30
   2  10  12    0.07    0.47
  -2  10 -12    0.34    0.35
  -2  10 -12    0.20    0.31
   3 -10  12    1.62    0.37
   3 -10  12    1.55    0.37
  -3  10 -12    1.05    0.41
   3  10  12    0.22    0.52
  -3  10 -12    1.58    0.45
   4 -10  12   -0.39    0.45
  -4  10 -12    0.29    0.45
  -6 -11  12   -0.19    0.33
  -6 -11  12    0.34    0.30
  -6  11  12   -0.40    0.40
   6  11 -12   -0.15    0.52
  -6  11  12   -0.14    0.40
  -5 -11  12   -0.23    0.27
  -5 -11  12   -0.07    0.29
   5  11 -12    0.47    0.53
  -5  11  12    0.40    0.47
  -5  11  12    0.02    0.37
   5  11 -12    0.43    0.45
  -4 -11  12    0.65    0.28
  -4 -11  12    0.86    0.34
  -4  11  12   -0.02    0.43
   4  11 -12    0.53    0.42
  -4  11  12    0.37    0.41
   4  11 -12    1.08    0.48
  -3 -11  12    0.37    0.26
  -3 -11  12    0.44    0.32
   3  11 -12   -0.01    0.43
  -3  11  12    0.13    0.42
   3  11 -12    0.20    0.38
  -3  11  12    0.04    0.32
  -2 -11  12    4.86    0.52
   2  11 -12    4.19    0.59
  -2  11  12    3.11    0.60
   2  11 -12    3.71    0.56
  -1 -11  12    0.36    0.26
   1  11 -12    0.22    0.40
   1  11 -12    0.33    0.42
  -1  11  12    0.79    0.48
   0 -11  12    4.96    0.55
   0  11  12    3.72    0.67
   0  11 -12    3.73    0.56
   0  11 -12    5.93    0.65
  -1 -11 -12    1.08    0.32
   1 -11  12    0.34    0.33
  -1  11 -12    0.39    0.51
  -1  11 -12    1.07    0.37
   1  11  12    0.16    0.36
   2 -11  12   -0.28    0.34
  -2 -11 -12    0.74    0.44
   2 -11  12    0.11    0.28
  -2  11 -12    0.22    0.46
  -2  11 -12    0.07    0.38
   2  11  12    0.47    0.38
   3 -11  12    0.08    0.40
   3 -11  12    0.18    0.34
  -3 -11 -12    1.17    0.54
  -3  11 -12   -0.05    0.52
  -3  11 -12   -0.24    0.46
  -4 -12  12    1.73    0.37
   4  12 -12    0.56    0.48
   4  12 -12    1.44    0.42
  -4  12  12    0.94    0.58
  -4  12  12    1.23    0.52
  -3 -12  12   -0.20    0.29
   3  12 -12   -0.10    0.48
   3  12 -12   -0.23    0.43
  -3  12  12   -0.30    0.52
  -3  12  12   -0.57    0.51
  -2 -12  12    1.64    0.38
   2  12 -12    1.07    0.48
  -2  12  12    0.68    0.52
   2  12 -12    0.90    0.44
  -1 -12  12    0.15    0.34
   1 -12 -12   -0.07    0.30
   1  12 -12    0.23    0.40
  -1  12  12   -0.26    0.38
   1  12 -12    0.33    0.56
   0 -12 -12    1.72    0.50
   0 -12  12    1.36    0.38
   0  12 -12    1.30    0.45
   0  12 -12    2.37    0.53
   0  12  12    1.22    0.56
  -1 -12 -12    0.01    0.46
   1 -12  12    0.34    0.34
  -1  12 -12    0.47    0.49
   1  12  12   -0.26    1.59
  -1  12 -12   -0.09    0.57
 -10   0  13    0.09    0.36
  10   0 -13    0.68    0.27
   9   0 -13    0.17    0.22
  -9   0  13    0.13    0.29
  -8   0  13    0.05    0.27
   8   0 -13   -0.07    0.41
   8   0 -13   -0.21    0.18
   7   0 -13    0.90    0.18
  -7   0  13    0.93    0.26
   7   0 -13    0.96    0.39
   6   0 -13   -0.04    0.30
  -6   0  13    0.07    0.21
   6   0 -13   -0.01    0.13
  -5   0  13    9.51    0.81
   5   0 -13    8.02    0.84
  -5   0  13    8.03    0.83
   4   0 -13    0.08    0.19
   4   0 -13    0.26    0.24
  -4   0  13    0.09    0.22
  -4   0  13   -0.15    0.17
  -3   0  13    0.43    0.17
   3   0 -13    0.20    0.19
  -3   0  13    0.62    0.21
   3   0 -13    0.39    0.23
  -2   0  13   -0.10    0.09
   2   0 -13   -0.03    0.22
  -2   0  13   -0.12    0.19
  -2   0  13    0.10    0.18
  -2   0  13   -0.14    0.22
  -1   0  13    1.10    0.13
  -1   0  13    0.78    0.20
  -1   0  13    1.19    0.24
   1   0 -13    1.13    0.23
   0   0  13    0.08    0.23
   0   0  13   -0.11    0.11
   0   0 -13   -0.03    0.22
   1   0  13    0.26    0.26
   1   0  13    0.22    0.14
  -1   0 -13    0.51    0.21
  -2   0 -13   -0.03    0.19
   2   0  13   -0.17    0.17
   2   0  13   -0.48    0.29
  -3   0 -13    1.59    0.28
   3   0  13    1.80    0.32
   3   0  13    1.44    0.27
   4   0  13    0.10    0.38
   4   0  13   -0.32    0.25
  -4   0 -13   -0.07    0.29
   5   0  13   -0.09    0.42
   5   0  13   -0.33    0.54
   6   0  13    0.27    0.49
  10  -1 -13   -0.11    0.25
 -10  -1  13    0.20    0.36
 -10   1  13   -0.04    0.29
  10   1 -13   -0.12    0.25
   9  -1 -13    0.24    0.23
  -9  -1  13    1.63    0.46
  -9   1  13   -0.05    0.24
   9   1 -13    0.01    0.21
   9   1 -13   -0.44    0.33
  -8  -1  13   -0.03    0.27
  -8  -1  13   -0.23    0.19
   8  -1 -13    0.05    0.21
   8  -1 -13    0.12    0.39
   8   1 -13    0.68    0.41
   8   1 -13    0.00    0.17
  -8   1  13    0.31    0.28
   7  -1 -13    0.32    0.19
  -7  -1  13    0.39    0.24
   7  -1 -13    0.80    0.36
   7   1 -13    0.48    0.19
   7   1 -13    0.63    0.37
  -7   1  13    0.02    0.24
  -6  -1  13    0.39    0.23
   6  -1 -13    0.62    0.17
   6  -1 -13    1.09    0.33
   6   1 -13    0.38    0.32
  -6   1  13    0.82    0.23
   6   1 -13    0.58    0.14
  -5  -1  13    5.79    0.56
  -5  -1  13    5.23    0.53
   5  -1 -13    6.57    0.60
   5   1 -13    5.73    0.62
  -5   1  13    4.72    0.54
  -5   1  13    6.15    0.57
   4  -1 -13    0.02    0.24
  -4  -1  13   -0.06    0.14
  -4  -1  13    0.02    0.18
  -4   1  13   -0.10    0.19
   4   1 -13   -0.14    0.25
  -4   1  13    0.07    0.17
   4   1 -13   -0.02    0.15
   3  -1 -13    0.52    0.24
  -3  -1  13    0.32    0.16
  -3  -1  13    0.11    0.19
   3   1 -13    0.71    0.27
  -3   1  13    0.13    0.24
  -3   1  13    0.22    0.16
  -3   1  13    0.32    0.20
   3   1 -13    0.44    0.24
  -2  -1  13    0.24    0.18
   2  -1 -13   -0.19    0.20
  -2  -1  13    0.25    0.19
  -2  -1  13    0.05    0.20
   2   1 -13   -0.04    0.21
  -2   1  13    0.10    0.21
  -2   1  13   -0.06    0.22
  -2   1  13    0.17    0.20
  -2   1  13    0.03    0.10
  -1  -1  13   14.00    1.28
  -1  -1  13   11.41    1.43
  -1  -1  13   16.63    1.30
   1  -1 -13   13.29    1.20
   1   1 -13   14.26    1.33
  -1   1  13   13.89    1.31
  -1   1  13   11.55    1.29
  -1   1  13   12.34    1.21
   0  -1  13    0.24    0.22
   0  -1 -13   -0.22    0.21
   0  -1  13    1.32    0.40
   0   1  13    0.06    0.15
   0   1  13    0.10    0.25
   0   1 -13    0.39    0.21
  -1  -1 -13    6.82    0.64
   1  -1  13    7.06    0.64
   1  -1  13    6.01    0.61
   1   1  13    5.48    0.65
   1   1  13    6.71    0.63
  -1   1 -13    6.39    0.67
   2  -1  13   -0.16    0.28
  -2  -1 -13   -0.34    0.23
   2  -1  13   -0.14    0.19
   2   1  13   -0.07    0.19
   2   1  13    0.33    0.31
  -2   1 -13    0.16    0.21
  -3  -1 -13    3.69    0.41
   3  -1  13    3.15    0.41
   3  -1  13    2.34    0.37
   3   1  13    2.30    0.38
   3   1  13    3.24    0.45
  -3   1 -13    3.98    0.43
  -4  -1 -13    0.15    0.28
   4  -1  13    0.45    0.32
  -4   1 -13    0.31    0.25
   4   1  13    0.71    0.38
   4   1  13    0.49    0.30
   5  -1  13    0.31    0.43
  -5  -1 -13    0.47    0.30
   5   1  13    0.22    0.33
   5   1  13    0.06    0.36
   6  -1  13    0.79    0.49
   6   1  13    0.49    0.40
  10  -2 -13    1.12    0.30
 -10  -2  13    0.68    0.33
 -10   2  13    0.78    0.39
   9  -2 -13    0.23    0.23
  -9  -2  13    0.08    0.32
  -9   2  13   -0.19    0.30
   9   2 -13    0.12    0.22
   9   2 -13    0.34    0.45
  -8  -2  13    0.58    0.28
   8  -2 -13    0.40    0.20
  -8  -2  13    0.36    0.24
  -8   2  13    0.26    0.29
   8   2 -13    0.34    0.41
   8   2 -13    0.34    0.21
  -7  -2  13    0.31    0.25
   7  -2 -13    0.38    0.35
  -7  -2  13    0.37    0.21
   7  -2 -13    0.64    0.19
  -7   2  13    0.26    0.25
   7   2 -13    0.75    0.37
   7   2 -13    0.78    0.18
  -6  -2  13    2.40    0.33
   6  -2 -13    1.32    0.40
   6   2 -13    2.23    0.40
   6   2 -13    2.87    0.27
  -6   2  13    2.06    0.32
   5  -2 -13    0.46    0.19
  -5  -2  13    0.42    0.21
  -5   2  13    0.29    0.18
  -5   2  13    0.31    0.20
   5   2 -13    0.46    0.29
   5   2 -13    0.42    0.11
   4  -2 -13    6.69    0.64
  -4  -2  13    5.63    0.60
  -4  -2  13    8.17    0.71
  -4   2  13    6.36    0.64
   4   2 -13    5.69    0.60
   4   2 -13    6.61    0.66
   3  -2 -13    1.10    0.26
  -3  -2  13    1.50    0.25
  -3  -2  13    0.76    0.20
   3   2 -13    1.09    0.27
  -3   2  13    1.06    0.23
   3   2 -13    0.94    0.21
  -3   2  13    0.71    0.21
  -3   2  13    1.35    0.24
  -2  -2  13    2.20    0.27
  -2  -2  13    2.55    0.28
   2  -2 -13    2.00    0.30
  -2   2  13    1.63    0.22
   2   2 -13    2.13    0.31
  -2   2  13    2.95    0.31
  -2   2  13    1.89    0.30
  -2   2  13    1.64    0.27
  -1  -2  13    0.29    0.20
  -1  -2  13    0.10    0.21
   1  -2 -13    0.62    0.21
  -1  -2  13    0.85    0.21
   1   2 -13    0.72    0.26
  -1   2  13    0.43    0.18
  -1   2  13    0.55    0.16
  -1   2  13    0.84    0.21
  -1   2  13    0.24    0.12
   0  -2 -13    3.37    0.36
   0  -2  13    3.40    0.37
   0   2  13    2.61    0.34
   0   2  13    3.18    0.39
   0   2  13    3.00    0.32
   0   2 -13    3.98    0.39
   1  -2  13    0.28    0.25
  -1  -2 -13    0.07    0.21
   1   2  13   -0.23    0.24
  -1   2 -13   -0.31    0.20
   1   2  13   -0.36    0.19
   2  -2  13    1.89    0.32
  -2  -2 -13    2.50    0.32
  -2   2 -13    2.44    0.31
   2   2  13    1.57    0.28
   2   2  13    1.57    0.33
  -3  -2 -13   -0.21    0.23
   3  -2  13   -0.05    0.33
  -3   2 -13    0.17    0.25
   3   2  13   -0.05    0.27
   3   2  13    0.16    0.28
   4  -2  13    1.97    0.45
  -4  -2 -13    2.17    0.30
   4   2  13    2.39    0.46
   4   2  13    1.75    0.42
   5  -2  13    0.00    0.35
  -5  -2 -13    0.30    0.29
   5   2  13   -0.22    0.36
   5   2  13    0.55    0.38
   6  -2  13    2.07    0.53
  -6  -2 -13    2.74    0.36
   6   2  13    2.22    0.55
   6   2  13    1.31    0.48
  10  -3 -13    0.39    0.29
 -10  -3  13    0.36    0.66
 -10   3  13    0.67    0.50
 -10   3  13    0.02    0.40
   9  -3 -13    0.80    0.27
  -9  -3  13    0.47    0.26
  -9  -3  13    0.71    0.28
  -9   3  13    0.64    0.40
   9   3 -13    0.40    0.46
  -9   3  13    0.37    0.33
  -8  -3  13   -0.08    0.22
  -8  -3  13   -0.40    0.27
   8  -3 -13   -0.09    0.20
  -8   3  13    0.12    0.33
   8   3 -13    0.01    0.18
   8   3 -13   -0.10    0.42
  -7  -3  13    2.23    0.34
   7  -3 -13    2.34    0.29
  -7  -3  13    2.18    0.34
   7  -3 -13    2.99    0.43
   7   3 -13    2.04    0.27
  -7   3  13    2.33    0.38
   7   3 -13    2.49    0.36
  -6  -3  13    0.54    0.23
   6  -3 -13    0.21    0.31
  -6   3  13    0.22    0.23
  -6   3  13   -0.02    0.19
   6   3 -13    0.72    0.33
   6   3 -13    0.70    0.15
  -5  -3  13    4.57    0.46
   5  -3 -13    4.35    0.73
   5   3 -13    3.92    0.51
   5   3 -13    5.04    0.40
  -5   3  13    3.41    0.43
  -5   3  13    3.92    0.47
  -4  -3  13   -0.01    0.13
  -4  -3  13    0.10    0.19
   4  -3 -13    0.28    0.24
   4   3 -13   -0.35    0.27
   4   3 -13    0.20    0.18
  -4   3  13    0.15    0.21
  -4   3  13   -0.19    0.23
  -3  -3  13    0.29    0.17
  -3  -3  13    0.35    0.19
   3  -3 -13    0.55    0.23
  -3   3  13    0.32    0.19
  -3   3  13    0.00    0.16
  -3   3  13    0.25    0.22
  -3   3  13    0.45    0.23
   3   3 -13    0.34    0.25
   3   3 -13    0.35    0.18
   2  -3 -13    2.12    0.30
  -2  -3  13    2.18    0.29
  -2  -3  13    1.95    0.28
  -2   3  13    2.14    0.30
  -2   3  13    1.37    0.24
  -2   3  13    1.94    0.28
   2   3 -13    2.61    0.32
  -2   3  13    2.48    0.30
  -1  -3  13   25.77    2.51
   1  -3 -13   23.58    2.27
  -1  -3  13   27.24    2.32
   1   3 -13   24.33    2.43
  -1   3  13   22.92    2.37
  -1   3  13   25.60    2.38
  -1   3  13   21.75    2.17
   0  -3 -13    0.84    0.25
   0  -3  13    0.86    0.24
   0  -3  13    0.21    0.22
   0   3 -13    0.49    0.18
   0   3 -13    0.67    0.36
   0   3  13    0.06    0.24
   1  -3  13   14.39    1.32
  -1  -3 -13   11.94    1.33
   1   3  13   12.94    1.22
  -1   3 -13   13.10    1.37
  -1   3 -13   13.03    1.26
   1   3  13   10.97    1.16
   2  -3  13   -0.36    0.28
  -2  -3 -13   -0.27    0.21
   2   3  13   -0.07    0.27
   2   3  13   -0.26    0.35
  -2   3 -13    0.04    0.16
  -2   3 -13    0.13    0.23
   3  -3  13    6.92    0.66
  -3  -3 -13    5.61    0.62
   3   3  13    4.43    0.60
   3   3  13    6.30    0.67
  -3   3 -13    6.82    0.64
   4  -3  13    0.68    0.31
  -4  -3 -13    0.47    0.25
   4   3  13    0.37    0.34
   4   3  13    0.56    0.32
   5  -3  13    0.50    0.34
  -5  -3 -13    0.02    0.25
   5   3  13   -0.65    0.46
   5   3  13   -0.17    0.41
   6  -3  13    0.79    0.40
  -6  -3 -13   -0.18    0.26
   6   3  13   -0.37    0.46
   6   3  13    1.31    0.45
  10  -4 -13   -0.13    0.31
 -10  -4  13    0.53    0.41
 -10   4  13    0.64    0.42
 -10   4  13   -0.25    0.43
  -9  -4  13   -0.16    0.26
   9  -4 -13    0.82    0.28
  -9  -4  13   -0.01    0.32
  -9   4  13    0.24    0.33
  -9   4  13    0.00    0.48
   9   4 -13    0.34    0.49
  -8  -4  13    0.46    0.29
   8  -4 -13    0.89    0.25
  -8  -4  13    0.51    0.26
   8   4 -13    0.31    0.45
  -8   4  13    1.06    0.35
  -8   4  13    0.52    0.43
  -7  -4  13    0.64    0.26
  -7  -4  13    0.67    0.25
  -7   4  13    0.62    0.31
   7   4 -13    0.38    0.37
  -7   4  13    0.31    0.27
  -6  -4  13    1.17    0.28
   6  -4 -13    0.74    0.33
  -6  -4  13    0.65    0.23
  -6   4  13    0.48    0.27
  -6   4  13    0.80    0.25
   6   4 -13    0.79    0.26
  -6   4  13    0.56    0.19
  -5  -4  13   -0.05    0.20
   5  -4 -13   -0.24    0.28
  -5   4  13    0.19    0.23
  -5   4  13    0.06    0.18
  -5   4  13   -0.19    0.21
   5   4 -13    0.05    0.31
   4  -4 -13    1.77    0.29
  -4  -4  13    1.09    0.18
  -4   4  13    1.09    0.23
  -4   4  13    1.54    0.26
   4   4 -13    1.04    0.33
  -4   4  13    1.06    0.29
   4   4 -13    1.25    0.26
   3  -4 -13    0.58    0.22
  -3  -4  13    0.32    0.19
  -3  -4  13    0.04    0.16
   3   4 -13    0.56    0.27
  -3   4  13    0.10    0.23
   3   4 -13    0.12    0.25
  -3   4  13    0.34    0.20
  -3   4  13    0.68    0.22
  -2  -4  13    0.72    0.19
  -2  -4  13    1.55    0.22
   2  -4 -13    1.27    0.24
  -2   4  13    0.92    0.24
  -2   4  13    0.82    0.23
   2   4 -13    0.90    0.19
   2   4 -13    0.89    0.27
  -2   4  13    0.98    0.24
   1  -4 -13    0.38    0.23
  -1  -4  13    0.38    0.21
  -1  -4  13    0.20    0.21
  -1   4  13    0.27    0.22
  -1   4  13    0.12    0.24
   1   4 -13    0.52    0.19
   1   4 -13    0.33    0.29
   0  -4  13    0.23    0.20
   0  -4 -13    0.15    0.22
   0  -4  13    0.01    0.18
   0   4 -13   -0.09    0.23
   0   4  13   -0.18    0.31
   0   4 -13    0.30    0.21
  -1  -4 -13    0.15    0.21
   1  -4  13   -0.11    0.26
   1   4  13    0.14    0.27
  -1   4 -13    0.06    0.23
  -1   4 -13    0.20    0.19
   2  -4  13   -0.52    0.29
  -2  -4 -13    0.00    0.21
  -2   4 -13   -0.17    0.19
  -2   4 -13    0.10    0.25
   2   4  13    0.15    0.28
   2   4  13    0.07    0.26
  -3  -4 -13    0.00    0.22
   3  -4  13    0.15    0.33
  -3   4 -13    0.03    0.32
   3   4  13    0.06    0.40
   3   4  13    0.33    0.31
   4  -4  13   -0.03    0.35
  -4  -4 -13    0.76    0.25
   4   4  13    0.12    0.34
   4   4  13    0.72    0.38
   5  -4  13    0.87    0.40
  -5  -4 -13    0.19    0.26
   5   4  13    0.31    0.40
   5   4  13    0.46    0.40
   6  -4  13    0.03    0.37
   6   4  13   -0.17    0.41
   6   4  13    0.08    0.51
  -9  -5  13    0.15    0.27
   9  -5 -13    0.33    0.29
  -9  -5  13    0.28    0.34
   9   5 -13   -0.17    0.51
  -9   5  13    0.20    0.40
  -9   5  13    0.02    0.32
  -8  -5  13    0.02    0.30
  -8  -5  13    0.09    0.27
  -8   5  13    0.40    0.35
  -8   5  13    0.19    0.30
   8   5 -13   -0.27    0.45
  -7  -5  13    1.85    0.34
  -7  -5  13    1.25    0.29
  -7   5  13    1.27    0.36
  -7   5  13    2.89    1.40
   7   5 -13    1.22    0.42
  -6  -5  13    2.42    0.31
  -6  -5  13    1.34    0.29
   6  -5 -13    1.41    0.31
  -6   5  13    1.90    0.35
   6   5 -13    2.43    0.42
  -6   5  13    1.56    0.28
  -6   5  13    1.89    0.34
   5  -5 -13    0.29    0.29
  -5  -5  13   -0.06    0.22
  -5  -5  13   -0.14    0.18
  -5   5  13   -0.21    0.24
   5   5 -13    0.58    0.34
  -5   5  13   -0.06    0.21
  -5   5  13   -0.12    0.25
   4  -5 -13    0.92    0.28
  -4  -5  13    1.34    0.23
  -4  -5  13    0.72    0.15
  -4   5  13    0.66    0.18
  -4   5  13    0.76    0.26
   4   5 -13    0.66    0.31
  -4   5  13    0.41    0.29
   3  -5 -13    0.34    0.22
  -3  -5  13    0.52    0.22
  -3  -5  13    0.46    0.15
  -3   5  13    0.23    0.25
   3   5 -13    0.94    0.29
   3   5 -13    0.61    0.21
  -3   5  13    0.54    0.23
  -3   5  13    0.60    0.24
   2  -5 -13   -0.07    0.19
  -2  -5  13    0.02    0.17
  -2  -5  13   -0.03    0.18
  -2   5  13    0.29    0.24
   2   5 -13   -0.15    0.25
  -2   5  13   -0.07    0.24
  -2   5  13   -0.19    0.22
   2   5 -13    0.23    0.22
  -1  -5  13    1.25    0.24
   1  -5 -13    1.15    0.23
  -1  -5  13    1.43    0.24
  -1   5  13    0.98    0.23
   1   5 -13    1.37    0.29
  -1   5  13    1.12    0.29
   1   5 -13    1.28    0.26
   0  -5  13    1.19    0.28
   0  -5 -13    1.22    0.26
   0  -5  13    0.95    0.25
   0   5 -13    1.17    0.28
   0   5 -13    1.64    0.29
   0   5  13    1.29    0.31
   1  -5  13    0.37    0.24
   1  -5  13    0.38    0.25
  -1  -5 -13    0.30    0.22
  -1   5 -13   -0.04    0.29
  -1   5 -13    0.50    0.22
   1   5  13    0.48    0.31
   2  -5  13    1.15    0.27
  -2  -5 -13    1.50    0.22
  -2   5 -13    1.38    0.31
  -2   5 -13    1.35    0.28
   2   5  13    0.92    0.33
   2   5  13    0.87    0.35
  -3  -5 -13    1.06    0.21
   3  -5  13    0.95    0.33
   3   5  13    0.91    0.37
  -3   5 -13    1.62    0.33
  -3   5 -13    1.38    0.28
   3   5  13    0.52    0.35
   4  -5  13   -0.01    0.34
   4   5  13   -0.06    0.39
   4   5  13   -0.35    0.40
   5  -5  13    0.30    0.40
   5   5  13    0.17    0.42
   5   5  13   -0.04    0.46
   6  -5  13    0.17    0.38
   6   5  13    0.58    0.52
   6   5  13    0.04    0.46
  -9  -6  13    0.35    0.28
  -9   6  13   -0.25    0.42
  -9   6  13    0.13    0.38
   9   6 -13   -0.32    0.38
  -8  -6  13   -0.16    0.30
  -8  -6  13    0.19    0.29
   8   6 -13    0.00    0.46
  -8   6  13    0.47    0.38
  -8   6  13    0.30    0.36
  -7  -6  13   -0.28    0.28
  -7  -6  13    0.22    0.27
   7   6 -13   -0.13    0.41
  -7   6  13    0.10    0.28
  -7   6  13   -0.08    0.33
  -6  -6  13    0.07    0.25
  -6  -6  13   -0.13    0.23
  -6   6  13    0.01    0.24
  -6   6  13    0.20    0.25
   6   6 -13   -0.14    0.36
  -6   6  13    0.21    0.30
  -5  -6  13    0.28    0.22
  -5  -6  13    0.40    0.24
   5  -6 -13    0.54    0.30
  -5   6  13    0.49    0.25
  -5   6  13    0.21    0.27
  -5   6  13   -0.11    0.29
   5   6 -13   -0.05    0.34
  -4  -6  13   15.00    1.35
   4  -6 -13   11.85    1.35
  -4  -6  13   16.19    1.30
  -4   6  13   14.34    1.36
   4   6 -13   14.54    1.31
  -4   6  13   13.64    1.45
  -4   6  13   12.99    1.28
  -3  -6  13    0.80    0.21
   3  -6 -13    0.76    0.26
  -3  -6  13    0.57    0.18
  -3   6  13    0.71    0.27
   3   6 -13    0.97    0.31
  -3   6  13    0.22    0.29
   3   6 -13    0.71    0.29
  -3   6  13    0.59    0.24
   2  -6 -13   11.51    1.31
  -2  -6  13   11.87    1.19
  -2  -6  13   15.67    1.24
   2   6 -13   14.25    1.29
  -2   6  13   12.59    1.30
  -2   6  13   11.56    1.21
  -2   6  13   12.19    1.19
   2   6 -13   12.94    1.19
   1  -6 -13    0.00    0.17
  -1  -6  13   -0.09    0.22
  -1  -6  13    0.16    0.21
   1   6 -13    0.13    0.24
  -1   6  13    0.13    0.28
  -1   6  13   -0.30    0.24
   1   6 -13    0.20    0.26
   0  -6 -13    1.70    0.27
   0  -6  13    2.61    0.34
   0  -6  13    3.22    0.32
   0   6 -13    2.52    0.35
   0   6  13    1.85    0.38
   0   6 -13    2.16    0.32
  -1  -6 -13    3.41    0.47
   1  -6  13    4.35    0.45
   1  -6  13    3.43    0.44
  -1   6 -13    3.81    0.45
  -1   6 -13    3.82    0.45
   1   6  13    3.18    0.49
   2  -6  13    0.43    0.28
  -2  -6 -13    0.64    0.19
   2  -6  13    0.79    0.31
  -2   6 -13    0.65    0.28
  -2   6 -13    1.42    0.32
   2   6  13    0.16    0.36
   3  -6  13   -0.04    0.27
  -3   6 -13   -0.03    0.31
  -3   6 -13   -0.09    0.30
   3   6  13    0.96    0.39
   3   6  13    0.11    0.38
   4  -6  13    1.78    0.43
   4   6  13    2.06    0.47
   4   6  13    1.47    0.48
   5  -6  13   -0.63    0.43
   5   6  13    0.41    0.48
   5   6  13    0.38    0.57
  -9   7  13   -0.16    0.28
   9   7 -13    0.88    0.56
  -8  -7  13    0.29    0.31
  -8  -7  13    0.10    0.32
  -8   7  13   -0.21    0.34
   8   7 -13   -0.45    0.49
  -8   7  13   -0.17    0.53
  -7  -7  13    0.95    0.30
  -7  -7  13    0.50    0.25
   7   7 -13    3.31    1.31
  -7   7  13    0.27    0.36
  -7   7  13    0.83    0.34
  -6  -7  13   -0.31    0.23
  -6  -7  13    0.10    0.28
  -6   7  13    0.19    0.33
  -6   7  13    0.07    0.29
   6   7 -13   -0.19    0.39
  -6   7  13   -0.23    0.40
  -5  -7  13    0.18    0.22
  -5  -7  13    0.32    0.23
  -5   7  13    0.27    0.28
   5   7 -13   -0.05    0.35
  -5   7  13   -0.36    0.36
  -5   7  13    0.07    0.28
   4  -7 -13    0.75    0.22
  -4  -7  13    0.68    0.28
  -4  -7  13    1.17    0.24
   4   7 -13    0.67    0.34
  -4   7  13    1.34    0.32
  -4   7  13    0.79    0.29
   4   7 -13    1.04    0.36
  -3  -7  13   -0.09    0.25
   3  -7 -13   -0.27    0.22
  -3  -7  13   -0.06    0.18
  -3  -7  13   -0.31    0.19
  -3   7  13   -0.28    0.27
   3   7 -13   -0.22    0.30
  -3   7  13    0.00    0.32
  -3   7  13    0.34    0.28
   3   7 -13    0.03    0.31
   2  -7 -13    0.33    0.21
  -2  -7  13    0.23    0.19
  -2  -7  13    0.12    0.21
  -2  -7  13    0.35    0.21
  -2   7  13    0.18    0.32
   2   7 -13    0.16    0.28
  -2   7  13   -0.09    0.26
  -2   7  13    0.74    0.31
   2   7 -13   -0.08    0.28
  -1  -7  13    6.60    0.69
   1  -7 -13    5.48    0.62
  -1  -7  13    7.71    0.70
  -1   7  13    6.28    0.69
   1   7 -13    8.21    0.73
   1   7 -13    5.93    0.67
   0  -7  13    0.38    0.24
   0  -7 -13    0.48    0.17
   0  -7  13    0.41    0.24
   0   7  13   -0.16    0.33
   0   7 -13   -0.10    0.32
   0   7 -13    0.20    0.27
   1  -7  13    7.40    0.81
   1  -7  13    7.47    0.69
  -1   7 -13    7.50    0.78
   1   7  13    5.53    0.72
  -1   7 -13    6.58    0.71
   2  -7  13   -0.07    0.31
   2  -7  13    0.23    0.30
  -2   7 -13    1.56    0.43
  -2   7 -13   -0.15    0.30
   2   7  13    0.44    0.38
   3  -7  13    2.20    0.36
   3   7  13    1.79    0.47
   3   7  13    1.81    0.49
  -3   7 -13    1.83    0.39
   4  -7  13   -0.21    0.32
   4   7  13    0.08    0.43
   4   7  13   -0.01    0.47
   5  -7  13    0.15    0.44
   5   7  13    0.15    0.49
   5   7  13    0.07    0.53
  -8  -8  13    0.02    0.34
  -8  -8  13    0.52    0.34
  -8   8  13   -0.20    0.46
   8   8 -13    0.06    0.62
  -7  -8  13   -0.07    0.29
  -7  -8  13   -0.09    0.31
   7   8 -13    0.42    0.45
  -7   8  13   -0.05    0.39
  -6  -8  13   -0.01    0.26
  -6  -8  13   -0.08    0.30
   6   8 -13    0.20    0.41
  -6   8  13   -0.29    0.32
  -6   8  13   -0.15    0.45
  -6   8  13    0.02    0.31
  -5  -8  13   -0.14    0.29
  -5  -8  13    0.48    0.28
  -5   8  13    0.02    0.30
   5   8 -13    0.20    0.38
  -5   8  13   -0.05    0.29
   5   8 -13    0.71    0.31
  -5   8  13    0.18    0.34
  -4  -8  13    1.52    0.29
  -4  -8  13    1.27    0.30
   4   8 -13    1.15    0.38
   4   8 -13    0.80    0.37
  -4   8  13    0.99    0.42
  -4   8  13    0.02    0.32
  -4   8  13    0.75    0.30
  -3  -8  13    1.65    0.26
  -3  -8  13    1.94    0.31
   3   8 -13    1.66    0.43
  -3   8  13    0.89    0.39
   3   8 -13    1.61    0.38
  -3   8  13    1.28    0.32
  -3   8  13    1.51    0.37
  -2  -8  13    1.27    0.26
   2  -8 -13    1.10    0.26
  -2  -8  13    0.56    0.28
  -2  -8  13    0.76    0.22
   2   8 -13    0.99    0.40
  -2   8  13    0.71    0.34
   2   8 -13    0.57    0.32
  -2   8  13    0.02    0.28
  -2   8  13    0.71    0.25
  -1  -8  13    0.65    0.25
   1  -8 -13    0.61    0.19
  -1  -8  13    1.31    0.25
  -1  -8  13    1.06    0.30
   1   8 -13    0.79    0.32
   1   8 -13    1.36    0.39
  -1   8  13    0.89    0.28
   0  -8  13    1.29    1.27
   0  -8  13    0.29    0.27
   0  -8  13    0.56    0.24
   0   8 -13    0.04    0.56
   0   8  13    0.75    0.37
   0   8 -13    0.32    0.29
   1  -8  13    0.17    0.27
   1  -8  13    0.04    0.27
   1  -8  13   -0.01    0.29
   1   8  13    0.17    0.37
  -1   8 -13   -0.10    0.35
  -1   8 -13    0.07    0.35
   2  -8  13    1.77    0.34
   2  -8  13    2.30    0.35
   2  -8  13    2.40    0.37
  -2   8 -13    2.69    0.67
   2   8  13    1.05    0.46
  -2   8 -13    2.11    0.38
   3  -8  13   -0.12    0.29
   3  -8  13    0.67    0.36
  -3   8 -13   -0.50    0.35
   3   8  13    0.04    0.48
  -3   8 -13    0.37    0.34
   3   8  13    0.33    0.46
   4  -8  13   -0.08    0.40
   4  -8  13   -0.29    0.36
   4   8  13   -0.11    0.48
   4   8  13   -0.45    0.52
  -7  -9  13   -0.15    0.32
  -7  -9  13    0.09    0.36
   7   9 -13   -0.19    0.48
  -7   9  13    0.37    0.61
  -6  -9  13   -0.54    0.29
  -6  -9  13   -0.18    0.26
  -6   9  13   -0.31    0.33
  -6   9  13   -0.03    0.54
   6   9 -13    0.18    0.45
  -5  -9  13    0.84    0.47
  -5  -9  13    0.94    0.27
  -5   9  13    0.07    0.36
  -5   9  13    0.22    0.35
   5   9 -13    0.59    0.43
   5   9 -13   -0.10    0.42
  -4  -9  13    0.29    0.27
  -4  -9  13    0.83    0.32
  -4   9  13   -0.09    0.42
   4   9 -13    0.22    0.30
  -4   9  13   -0.01    0.30
  -4   9  13   -0.19    0.24
   4   9 -13   -0.05    0.45
  -3  -9  13    0.25    0.25
  -3  -9  13    0.12    0.24
   3   9 -13   -0.03    0.35
   3   9 -13    0.40    0.38
  -3   9  13    0.19    0.62
  -3   9  13    0.03    0.37
  -3   9  13   -0.13    0.27
  -2  -9  13   -0.14    0.24
  -2  -9  13    0.04    0.24
  -2   9  13    0.15    0.35
  -2   9  13    0.00    0.28
   2   9 -13    0.03    0.36
   2   9 -13    0.17    0.33
  -1  -9  13    1.63    0.35
  -1  -9  13    0.67    0.29
  -1  -9  13    1.57    0.27
   1   9 -13    0.89    0.35
   1   9 -13    1.21    0.37
  -1   9  13    0.88    0.40
   0  -9  13    0.46    0.23
   0  -9  13    0.54    0.25
   0  -9  13    0.39    0.29
   0   9  13    0.45    0.69
   0   9 -13    0.22    0.34
   0   9 -13   -0.23    0.33
   1  -9  13    0.80    0.35
   1  -9  13    1.33    0.34
   1  -9  13    1.03    0.27
   1   9  13   -0.40    0.43
  -1   9 -13    0.39    0.33
  -1   9 -13    1.66    0.45
   2  -9  13   -0.57    0.34
   2  -9  13    0.18    0.31
  -2   9 -13   -0.14    0.35
   2   9  13    0.04    0.45
  -2   9 -13    0.37    0.34
   3  -9  13   -0.03    0.38
   3  -9  13    1.15    0.41
   3   9  13   -0.48    0.55
  -3   9 -13   -0.04    0.47
   3   9  13    0.27    0.49
  -3   9 -13   -0.06    0.31
   4  -9  13    1.41    0.40
   4  -9  13    1.96    0.48
   4   9  13    0.95    0.61
  -4   9 -13    1.92    0.50
  -6 -10  13    0.28    0.31
  -6 -10  13    1.01    0.33
   6  10 -13    0.82    0.49
  -6  10  13    0.11    0.47
  -6  10  13    0.10    0.39
  -5 -10  13    0.07    0.28
  -5 -10  13   -0.06    0.27
  -5  10  13    0.03    0.50
   5  10 -13   -0.12    0.45
  -5  10  13   -0.09    0.38
   5  10 -13   -0.41    0.42
  -4 -10  13    2.71    0.37
  -4 -10  13    2.52    0.42
   4  10 -13    3.09    0.53
  -4  10  13    1.45    0.49
  -4  10  13    2.13    0.46
   4  10 -13    1.99    0.49
  -3 -10  13   -0.21    0.27
  -3 -10  13    0.40    0.26
  -3  10  13   -0.26    0.39
   3  10 -13    0.05    0.38
   3  10 -13   -0.32    0.41
  -3  10  13   -0.32    0.41
  -2 -10  13    7.26    0.67
  -2 -10  13    7.74    0.70
  -2  10  13    5.83    0.76
   2  10 -13    6.69    0.77
  -2  10  13    5.22    0.70
   2  10 -13    6.96    1.13
  -1 -10  13    1.46    0.27
  -1 -10  13    1.66    0.37
   1  10 -13    0.65    0.38
   1  10 -13    1.15    0.41
  -1  10  13    0.95    0.45
   0 -10  13    2.48    0.41
   0 -10  13    1.97    0.38
   0  10 -13    1.35    0.48
   0  10 -13    2.29    0.44
   0  10  13    1.68    0.51
   1 -10  13   -0.02    0.34
   1 -10  13    0.03    0.36
  -1  10 -13    0.27    0.47
   1  10  13    0.88    0.71
  -1  10 -13    0.11    0.34
   2 -10  13    0.34    0.34
   2 -10  13    0.79    0.36
  -2  10 -13    0.68    0.50
  -2  10 -13    0.69    0.39
   2  10  13   -0.01    0.50
   3 -10  13    0.36    0.37
   3 -10  13    0.55    0.37
   3  10  13   -0.13    0.53
  -3  10 -13   -0.04    0.54
  -3  10 -13    0.49    0.43
  -5 -11  13    0.47    0.40
  -5 -11  13    1.07    0.31
   5  11 -13    0.79    0.60
  -5  11  13   -0.05    0.67
  -5  11  13    0.87    0.47
   5  11 -13    1.39    0.54
  -4 -11  13    0.66    0.29
  -4 -11  13    0.71    0.31
  -4  11  13    0.70    0.59
  -4  11  13   -0.05    0.45
   4  11 -13    1.43    0.50
   4  11 -13    0.54    0.57
  -3 -11  13    0.19    0.29
   3  11 -13   -0.28    0.42
  -3  11  13   -0.17    0.46
   3  11 -13    0.06    0.44
  -2 -11  13   -0.32    0.27
  -2  11  13   -0.39    0.47
   2  11 -13    0.09    0.49
   2  11 -13   -0.38    0.43
  -1 -11  13    2.73    0.44
   1  11 -13    3.18    0.53
   1  11 -13    1.62    0.48
  -1  11  13    2.76    0.57
   0 -11  13    0.11    0.30
   0  11 -13   -0.28    0.48
   0  11  13   -0.35    0.49
   0  11 -13   -0.02    0.53
   1 -11  13    0.70    0.38
   1  11  13    0.84    0.38
  -1  11 -13    0.81    0.56
  -1  11 -13    0.57    0.40
  -3 -12  13    0.35    0.41
   3  12 -13    0.38    0.36
   3  12 -13    0.37    0.97
  -2 -12  13    1.50    0.35
   2  12 -13    1.89    0.62
  -2  12  13    0.58    0.42
   2  12 -13    1.08    0.56
  -1 -12  13    0.86    0.40
  -1  12  13    0.81    0.39
   1  12 -13    1.16    0.45
   1  12 -13    0.89    0.50
 -10   0  14    0.07    0.40
  -9   0  14   -0.09    0.32
   9   0 -14   -0.17    0.36
   9   0 -14    0.08    0.29
   8   0 -14    1.46    0.24
   8   0 -14    1.21    0.35
  -8   0  14    1.41    0.34
  -7   0  14   -0.11    0.26
   7   0 -14    0.03    0.16
   7   0 -14    0.03    0.38
  -6   0  14    1.45    0.28
   6   0 -14    0.94    0.35
  -5   0  14    0.03    0.16
  -5   0  14   -0.13    0.21
   5   0 -14   -0.07    0.21
  -4   0  14    5.68    0.64
   4   0 -14    6.52    0.68
  -4   0  14    7.79    0.65
   3   0 -14   -0.02    0.17
  -3   0  14   -0.06    0.21
  -3   0  14    0.17    0.19
  -2   0  14    5.13    0.47
  -2   0  14    2.89    0.62
  -2   0  14    4.35    0.46
   2   0 -14    4.23    0.48
   1   0 -14   -0.21    0.21
  -1   0  14   -0.12    0.21
  -1   0  14   -0.05    0.24
   0   0  14    1.29    0.25
   0   0 -14    1.23    0.25
   1   0  14   -0.29    0.23
  -1   0 -14   -0.23    0.22
   2   0  14    8.15    0.88
  -2   0 -14    9.80    0.88
   3   0  14   -0.27    0.36
  -3   0 -14   -0.23    0.23
   4   0  14    2.69    0.50
  -4   0 -14    2.65    0.42
   5   0  14    0.39    0.46
  -5   0 -14    0.03    0.36
  -6   0 -14    0.18    0.41
   6   0  14    0.70    0.54
 -10  -1  14   -0.16    0.40
 -10   1  14    0.03    0.34
  -9  -1  14    0.23    0.33
   9  -1 -14    0.24    0.26
  -9   1  14    0.51    0.33
   9   1 -14   -0.64    0.48
  -8  -1  14    0.11    0.21
   8  -1 -14    0.08    0.41
   8  -1 -14    0.16    0.19
  -8  -1  14    0.03    0.33
   8   1 -14    0.00    0.41
  -8   1  14   -0.41    0.29
   7  -1 -14   -0.17    0.37
  -7  -1  14    0.22    0.26
   7  -1 -14    0.14    0.18
   7   1 -14   -0.08    0.15
   7   1 -14   -0.09    0.37
  -7   1  14   -0.02    0.27
  -6  -1  14    0.64    0.24
   6  -1 -14    0.80    0.25
  -6   1  14    0.75    0.25
   6   1 -14    0.43    0.25
   6   1 -14    0.55    0.14
  -5  -1  14    1.10    0.25
   5  -1 -14    0.92    0.32
   5   1 -14    1.50    0.34
  -5   1  14    1.04    0.25
  -5   1  14    0.69    0.22
  -4  -1  14    1.89    0.26
   4  -1 -14    3.01    0.36
  -4  -1  14    2.83    0.31
  -4   1  14    1.59    0.30
   4   1 -14    1.99    0.36
   4   1 -14    1.48    0.31
  -4   1  14    2.07    0.31
  -3  -1  14    1.64    0.25
   3  -1 -14    1.66    0.27
  -3  -1  14    2.54    0.30
   3   1 -14    1.80    0.33
  -3   1  14    1.84    0.29
  -3   1  14    1.92    0.30
  -2  -1  14   -0.07    0.20
   2  -1 -14    0.00    0.22
  -2  -1  14    0.21    0.24
  -2   1  14   -0.01    0.21
  -2   1  14    0.29    0.23
   2   1 -14    0.30    0.24
  -1  -1  14    3.85    0.40
  -1  -1  14    4.04    0.42
   1  -1 -14    4.08    0.42
   1   1 -14    3.82    0.43
  -1   1  14    3.06    0.37
  -1   1  14    4.10    0.45
   0  -1 -14    0.46    0.22
   0  -1  14    0.06    0.25
   0   1  14    0.64    0.28
   0   1 -14    0.23    0.23
   0   1  14    0.47    0.29
  -1  -1 -14    1.39    0.27
   1  -1  14    1.39    0.28
   1   1  14    1.13    0.32
   1   1  14    2.12    0.35
  -1   1 -14    1.60    0.29
  -2  -1 -14    1.26    0.27
   2  -1  14    1.46    0.35
   2   1  14    1.12    0.31
   2   1  14    0.65    0.30
  -2   1 -14    1.33    0.27
   3  -1  14   -0.44    0.36
  -3  -1 -14    0.24    0.27
   3   1  14    0.04    0.30
  -3   1 -14   -0.08    0.24
   4  -1  14   -0.21    0.34
  -4  -1 -14    2.17    0.52
  -4   1 -14    0.15    0.28
   4   1  14   -0.09    0.32
   5  -1  14    0.81    0.49
  -5  -1 -14    0.84    0.37
   5   1  14    0.94    0.48
  -5   1 -14    1.78    0.35
   6  -1  14    0.10    0.42
  -6  -1 -14    0.43    0.31
   6   1  14    0.31    0.43
 -10  -2  14    0.52    0.43
 -10   2  14    0.91    0.44
  -9  -2  14    1.50    0.36
   9  -2 -14    1.18    0.27
  -9   2  14    0.26    0.34
   9   2 -14    1.16    0.50
  -8  -2  14    0.48    0.30
  -8  -2  14   -0.41    0.23
   8  -2 -14   -0.14    0.43
   8  -2 -14    0.14    0.21
  -8   2  14    0.07    0.30
   8   2 -14    1.85    0.77
   7  -2 -14    0.98    0.40
  -7  -2  14    1.03    0.28
   7   2 -14    1.39    0.40
  -7   2  14    0.45    0.29
  -6  -2  14    1.10    0.27
   6  -2 -14    0.42    0.35
   6   2 -14    0.57    0.35
  -6   2  14    1.18    0.27
   5  -2 -14    0.38    0.29
  -5  -2  14   -0.02    0.21
  -5   2  14    0.02    0.22
   5   2 -14    0.03    0.29
  -5   2  14    0.07    0.18
  -4  -2  14    1.20    0.22
  -4  -2  14    2.25    0.28
   4  -2 -14    1.52    0.50
  -4   2  14    1.64    0.28
  -4   2  14    1.32    0.27
   4   2 -14    1.71    0.27
  -3  -2  14    3.56    0.41
  -3  -2  14    4.76    0.43
   3  -2 -14    3.46    0.44
   3   2 -14    4.05    0.46
  -3   2  14    4.38    0.45
  -3   2  14    2.99    0.40
   2  -2 -14    0.16    0.23
  -2  -2  14    0.24    0.21
  -2  -2  14    0.27    0.20
  -2   2  14    0.35    0.26
   2   2 -14    0.29    0.25
  -2   2  14    0.44    0.24
  -1  -2  14   12.48    1.24
   1  -2 -14   11.98    1.22
  -1  -2  14   13.88    1.21
  -1   2  14   10.80    1.17
   1   2 -14   12.43    1.22
  -1   2  14   11.39    1.18
   0  -2  14    0.29    0.26
   0  -2 -14    0.75    0.26
   0   2  14    0.63    0.32
   0   2  14    0.54    0.21
   0   2 -14    0.30    0.24
  -1  -2 -14    0.01    0.24
   1  -2  14    0.63    0.29
   1   2  14    0.41    0.23
   1   2  14    0.23    0.25
  -1   2 -14    0.27    0.29
   2  -2  14    0.07    0.32
  -2  -2 -14   -0.06    0.21
  -2   2 -14    0.11    0.23
   2   2  14    0.15    0.27
   2   2  14   -0.09    0.27
   3  -2  14    0.14    0.38
  -3  -2 -14    0.69    0.23
   3   2  14    0.16    0.29
   3   2  14    0.18    0.32
  -3   2 -14    0.13    0.27
   4  -2  14   -0.34    0.34
  -4  -2 -14   -0.12    0.22
   4   2  14    0.42    0.35
  -4   2 -14   -0.29    0.37
   5  -2  14    0.88    0.48
  -5  -2 -14    0.15    0.26
  -5   2 -14    0.52    0.34
   5   2  14    0.87    0.40
   6  -2  14    0.15    0.49
  -6  -2 -14   -0.40    0.36
   6   2  14    0.10    0.54
  -9  -3  14   -0.31    0.34
   9  -3 -14   -0.25    0.24
   9   3 -14    0.14    0.49
  -9   3  14    0.13    0.33
  -9   3  14    0.36    0.49
   8  -3 -14    0.08    0.19
  -8  -3  14    0.21    0.25
  -8  -3  14    0.11    0.28
   8   3 -14    0.07    0.33
  -8   3  14   -0.09    0.31
  -7  -3  14    0.19    0.27
   7  -3 -14    0.31    0.38
  -7  -3  14    2.49    1.32
  -7   3  14    0.14    0.28
   7   3 -14   -0.47    0.38
   6  -3 -14    0.84    0.36
   6   3 -14    1.43    0.37
  -6   3  14    0.84    0.27
  -5  -3  14    0.16    0.25
   5  -3 -14    0.26    0.30
  -5   3  14    0.08    0.22
   5   3 -14   -0.11    0.31
  -5   3  14   -0.19    0.22
   4  -3 -14    0.23    0.26
  -4  -3  14    0.36    0.21
  -4  -3  14    0.22    0.15
  -4   3  14    0.52    0.23
  -4   3  14    0.07    0.19
   4   3 -14    0.25    0.29
   3  -3 -14    0.02    0.23
  -3  -3  14    0.13    0.19
  -3  -3  14    0.08    0.23
   3   3 -14    0.03    0.27
  -3   3  14    0.04    0.25
  -3   3  14    0.16    0.20
  -3   3  14    0.12    0.22
   2  -3 -14   -0.44    0.21
  -2  -3  14    0.04    0.19
  -2  -3  14   -0.09    0.20
   2   3 -14    0.10    0.24
  -2   3  14   -0.05    0.22
  -2   3  14   -0.06    0.20
  -2   3  14   -0.07    0.25
   1  -3 -14    3.72    0.38
  -1  -3  14    4.19    0.56
  -1  -3  14    2.82    0.37
  -1   3  14    2.32    0.35
  -1   3  14    2.93    0.38
   1   3 -14    3.29    0.39
   0  -3 -14    1.24    0.24
   0  -3  14    1.02    0.28
   0  -3  14    0.73    0.26
   0   3  14    0.74    0.26
   0   3 -14    0.95    0.27
  -1  -3 -14    0.27    0.25
   1  -3  14    0.32    0.24
  -1   3 -14    0.39    0.15
  -1   3 -14    0.24    0.25
   1   3  14    0.14    0.24
   1   3  14    0.26    0.28
   2  -3  14    1.63    0.38
  -2  -3 -14    2.43    0.33
   2   3  14    1.22    0.34
   2   3  14    1.96    0.37
  -2   3 -14    2.18    0.38
  -3  -3 -14    0.57    0.28
   3  -3  14    0.53    0.31
   3   3  14    0.19    0.33
   3   3  14    0.33    0.33
  -3   3 -14   -0.03    0.28
   4  -3  14    1.61    0.42
  -4  -3 -14    1.13    0.30
  -4   3 -14    1.98    0.41
   4   3  14    0.53    0.49
   4   3  14    0.57    0.34
   5  -3  14   -0.53    0.46
  -5  -3 -14    0.18    0.25
   5   3  14    0.09    0.40
   6  -3  14    0.22    0.51
   6   3  14    0.35    0.55
   9  -4 -14    0.55    0.29
  -9  -4  14    0.58    0.35
   9   4 -14   -0.26    0.49
  -9   4  14    0.02    0.41
  -9   4  14   -0.26    0.34
  -8  -4  14    0.06    0.25
  -8  -4  14    0.19    0.30
  -8   4  14    0.35    0.36
   8   4 -14    0.26    0.46
  -8   4  14    0.38    0.36
  -7  -4  14    0.18    0.28
   7  -4 -14    0.28    0.29
  -7  -4  14    0.17    0.25
  -7   4  14    0.23    0.39
   7   4 -14    0.13    0.40
  -7   4  14    0.22    0.33
   6  -4 -14    1.55    0.38
  -6  -4  14    1.23    0.24
  -6  -4  14    1.58    0.29
  -6   4  14    1.37    0.37
   6   4 -14    1.14    0.30
  -6   4  14    0.91    0.23
  -6   4  14    1.07    0.29
   5  -4 -14    0.06    0.31
  -5  -4  14   -0.41    0.22
  -5   4  14    0.11    0.23
   5   4 -14    0.08    0.34
  -5   4  14   -0.10    0.24
  -5   4  14   -0.04    0.31
  -4  -4  14    1.47    0.26
   4  -4 -14    2.38    0.34
  -4  -4  14    2.76    0.31
  -4   4  14    1.29    0.34
   4   4 -14    2.40    0.39
  -4   4  14    2.35    0.32
  -4   4  14    2.34    0.33
   3  -4 -14   -0.18    0.23
  -3  -4  14    0.30    0.37
  -3  -4  14   -0.10    0.18
  -3   4  14    0.05    0.26
   3   4 -14    0.21    0.20
  -3   4  14    0.16    0.22
  -3   4  14    0.26    0.23
  -2  -4  14    1.40    0.24
  -2  -4  14    0.91    0.21
   2  -4 -14    0.80    0.24
  -2   4  14    0.63    0.26
  -2   4  14    0.74    0.28
  -2   4  14    0.57    0.25
   2   4 -14    0.60    0.27
  -1  -4  14    8.70    0.91
   1  -4 -14    8.46    0.83
  -1  -4  14    9.68    0.89
   1   4 -14    9.46    0.82
  -1   4  14    7.79    0.86
   1   4 -14    7.98    0.88
   0  -4  14    0.52    0.26
   0  -4 -14    0.00    0.21
   0  -4  14    0.25    0.26
   0   4 -14    0.07    0.21
   0   4 -14    0.29    0.27
   0   4  14    0.25    0.28
   1  -4  14    0.84    0.31
  -1  -4 -14    0.58    0.22
  -1   4 -14    0.43    0.26
   1   4  14    0.31    0.25
   1   4  14    0.65    0.30
  -1   4 -14    0.57    0.18
  -2  -4 -14    0.20    0.20
   2  -4  14    0.35    0.28
  -2   4 -14    0.15    0.20
   2   4  14    0.16    0.33
   2   4  14   -0.20    0.28
  -2   4 -14    0.11    0.27
   3  -4  14   -0.19    0.36
  -3  -4 -14   -0.03    0.24
  -3   4 -14   -0.15    0.30
   3   4  14    0.29    0.63
   3   4  14    0.19    0.44
   4  -4  14    5.23    0.63
  -4  -4 -14    6.77    0.63
   4   4  14    4.18    0.68
  -4   4 -14    7.16    0.67
   4   4  14    5.16    0.69
   5  -4  14    0.31    0.45
   5   4  14    0.45    0.43
   5   4  14   -0.74    0.53
  -9  -5  14    0.20    0.36
   9   5 -14   -0.22    0.36
  -9   5  14   -0.17    0.43
  -9   5  14   -0.17    0.42
  -8  -5  14    0.52    0.30
  -8  -5  14    1.04    0.32
  -8   5  14    0.39    0.34
  -8   5  14    0.85    0.47
   8   5 -14    0.75    0.48
  -7  -5  14    0.08    0.28
  -7  -5  14   -0.09    0.28
  -7   5  14    0.35    0.41
   7   5 -14   -0.37    0.40
  -7   5  14   -0.27    0.33
   6  -5 -14    0.71    0.34
  -6  -5  14    0.33    0.25
  -6  -5  14   -0.02    0.26
  -6   5  14   -0.02    0.30
  -6   5  14    0.24    0.22
   6   5 -14    0.68    0.28
  -6   5  14   -0.06    0.26
  -5  -5  14    0.97    0.27
   5  -5 -14    1.35    0.33
  -5  -5  14    1.10    0.26
  -5   5  14    0.75    0.26
  -5   5  14    0.87    0.29
  -5   5  14    0.52    0.35
   5   5 -14    0.90    0.37
  -4  -5  14   -0.10    0.24
   4  -5 -14   -0.07    0.27
  -4   5  14    0.03    0.25
  -4   5  14   -0.26    0.24
  -4   5  14    0.06    0.23
   4   5 -14    0.27    0.32
  -3  -5  14   -0.04    0.23
  -3  -5  14    0.18    0.19
   3  -5 -14   -0.29    0.23
  -3   5  14   -0.07    0.27
   3   5 -14   -0.43    0.28
  -3   5  14    0.13    0.27
  -3   5  14    0.82    0.48
  -2  -5  14    1.47    0.26
  -2  -5  14    1.94    0.27
   2  -5 -14    1.54    0.28
  -2   5  14    1.02    0.32
   2   5 -14    1.80    0.34
  -2   5  14    1.05    0.31
  -2   5  14    1.76    0.29
   2   5 -14    1.95    0.31
  -1  -5  14    1.22    0.26
  -1  -5  14    1.24    0.26
   1  -5 -14    0.96    0.24
   1   5 -14    1.36    0.31
   1   5 -14    1.16    0.31
  -1   5  14    1.27    0.32
   0  -5 -14   -0.17    0.24
   0  -5  14    0.07    0.24
   0  -5  14    0.17    0.24
   0   5 -14    0.43    0.34
   0   5 -14    0.37    0.26
   0   5  14    0.22    0.30
   1  -5  14    7.52    0.70
   1  -5  14    9.15    0.85
  -1  -5 -14    6.66    0.71
   1   5  14    5.83    0.74
  -1   5 -14    7.38    0.75
  -1   5 -14    7.30    0.80
  -2  -5 -14    2.29    0.33
   2  -5  14    1.60    0.33
   2   5  14    1.87    0.41
  -2   5 -14    2.55    0.38
  -2   5 -14    2.51    0.31
   2   5  14    1.40    0.40
  -3  -5 -14   -0.09    0.24
   3  -5  14   -0.11    0.33
   3   5  14    0.09    0.41
  -3   5 -14    0.06    0.32
   3   5  14   -0.43    0.39
   4  -5  14    0.43    0.40
   4   5  14    0.26    0.45
  -4   5 -14    0.25    0.35
   4   5  14   -0.13    0.42
   5  -5  14    0.55    0.43
   5   5  14    0.13    0.45
   5   5  14    0.34    0.45
  -9  -6  14    1.14    0.41
  -9   6  14    0.79    0.39
  -9   6  14    0.62    0.45
   9   6 -14    0.47    0.53
  -8  -6  14   -0.09    0.31
  -8  -6  14    0.08    0.35
   8   6 -14   -0.28    0.49
  -8   6  14   -0.21    0.37
  -8   6  14   -0.35    0.38
  -7  -6  14    0.58    0.28
  -7  -6  14    0.40    0.25
   7   6 -14    0.35    0.43
  -7   6  14    0.52    0.31
  -7   6  14    0.12    0.45
  -6  -6  14    0.41    0.30
  -6  -6  14   -0.10    0.26
  -6   6  14   -0.19    0.24
   6   6 -14    0.13    0.38
  -6   6  14    0.21    0.31
  -6   6  14    0.58    0.41
   5  -6 -14    0.92    0.33
  -5  -6  14    1.42    0.31
  -5  -6  14    1.20    0.31
   5   6 -14    1.01    0.39
  -5   6  14    0.70    1.11
  -5   6  14    0.84    0.28
  -5   6  14    0.83    0.39
  -4  -6  14    3.29    0.41
   4  -6 -14    3.50    0.43
  -4  -6  14    4.10    0.39
   4   6 -14    2.89    0.47
  -4   6  14    2.60    0.47
  -4   6  14    2.61    0.41
  -4   6  14    2.86    0.40
  -3  -6  14    2.35    0.27
   3  -6 -14    1.76    0.31
  -3  -6  14    1.39    0.24
   3   6 -14    0.99    0.36
   3   6 -14    1.44    0.34
  -3   6  14    0.62    0.35
  -3   6  14    0.81    0.29
  -3   6  14    1.57    0.32
  -2  -6  14    1.25    0.23
  -2  -6  14    0.75    0.25
   2  -6 -14    0.50    0.28
  -2   6  14    0.71    0.26
  -2   6  14    0.56    0.31
  -2   6  14    0.71    0.33
   2   6 -14    0.55    0.32
   2   6 -14    1.49    0.31
   1  -6 -14    1.41    0.27
  -1  -6  14    2.61    0.30
  -1  -6  14    1.53    0.31
   1   6 -14    2.26    0.37
  -1   6  14    1.63    0.37
   1   6 -14    2.12    0.38
   0  -6  14    0.50    0.28
   0  -6 -14    0.92    0.21
   0  -6  14    1.15    0.26
   0   6 -14    0.46    0.32
   0   6 -14    0.74    0.31
   0   6  14    0.71    0.34
   1  -6  14    1.50    0.36
   1  -6  14    1.06    0.34
  -1  -6 -14    1.76    0.26
  -1   6 -14    1.49    0.34
   1   6  14    1.65    0.40
  -1   6 -14    2.02    0.33
   2  -6  14   -0.16    0.26
   2  -6  14   -0.03    0.31
  -2   6 -14   -0.39    0.30
  -2   6 -14   -0.13    0.25
   2   6  14   -0.02    0.37
   2   6  14    0.06    0.35
   3  -6  14    0.54    0.31
  -3   6 -14    1.03    0.44
   3   6  14   -0.13    0.39
   3   6  14    0.47    0.40
   4  -6  14   -0.27    0.42
   4   6  14   -0.28    0.45
  -4   6 -14    0.22    0.37
   4   6  14   -0.51    0.44
   5  -6  14    0.42    0.48
   5   6  14    0.95    0.50
  -8  -7  14   -0.16    0.32
  -8  -7  14    0.34    0.34
   8   7 -14   -0.44    0.59
  -8   7  14    0.05    0.53
  -7  -7  14    0.18    0.32
  -7  -7  14    0.41    0.24
  -7   7  14    0.25    0.32
  -7   7  14    0.32    0.47
   7   7 -14    0.04    0.45
  -6  -7  14    0.38    0.31
  -6  -7  14    0.67    0.27
  -6   7  14    0.73    0.43
   6   7 -14    0.20    0.41
  -6   7  14   -0.26    0.29
  -6   7  14    0.17    0.28
  -5  -7  14    0.53    0.29
  -5  -7  14   -0.01    0.31
  -5   7  14    0.27    0.33
  -5   7  14    0.47    0.29
   5   7 -14   -0.03    0.39
  -5   7  14    0.29    0.27
   4  -7 -14    7.27    0.78
  -4  -7  14    9.21    0.76
  -4  -7  14    9.39    0.83
  -4   7  14    7.47    0.88
   4   7 -14    7.97    0.83
  -4   7  14    6.49    0.80
  -4   7  14    7.65    0.81
   4   7 -14    7.44    0.83
  -3  -7  14    0.09    0.25
  -3  -7  14    0.14    0.27
  -3  -7  14    0.03    0.21
   3  -7 -14   -0.02    0.30
  -3   7  14    0.08    0.35
  -3   7  14   -0.31    0.29
   3   7 -14    0.37    0.31
   3   7 -14   -0.07    0.32
  -3   7  14    0.11    0.29
   2  -7 -14    0.35    0.24
  -2  -7  14    0.00    0.21
  -2  -7  14    0.09    0.20
  -2  -7  14   -0.18    0.22
   2   7 -14    0.21    0.30
  -2   7  14    0.16    0.30
   2   7 -14   -0.09    0.31
  -2   7  14    0.15    0.25
   1  -7 -14    0.61    0.27
  -1  -7  14    1.30    0.28
  -1  -7  14    1.22    0.26
  -1   7  14    0.91    0.36
   1   7 -14    1.13    0.34
   1   7 -14    2.43    0.35
   0  -7  14    1.79    0.31
   0  -7 -14    1.28    0.24
   0   7  14    1.42    0.39
   0   7 -14    1.31    0.36
   0   7 -14    1.33    0.37
   1  -7  14    0.74    0.30
   1  -7  14    0.24    0.32
  -1   7 -14    0.11    0.30
   1   7  14    0.00    0.37
  -1   7 -14    0.61    0.32
   2  -7  14    1.40    0.36
   2  -7  14    1.22    0.38
  -2   7 -14    1.05    0.36
   2   7  14    1.12    0.44
  -2   7 -14    1.94    0.36
   3  -7  14    0.53    0.36
   3  -7  14    1.33    0.84
   3   7  14   -0.05    0.42
   3   7  14    0.11    0.45
  -3   7 -14    0.34    0.37
   4  -7  14    0.31    0.43
  -4   7 -14    0.33    0.40
   4   7  14    0.26    0.48
   4   7  14    0.53    0.50
  -7  -8  14    0.18    0.35
  -7  -8  14   -0.30    0.33
  -7   8  14    2.16    0.65
   7   8 -14   -0.18    0.34
  -6  -8  14    1.39    0.68
  -6  -8  14    0.05    0.28
  -6   8  14    0.33    0.52
  -6   8  14    0.09    0.32
   6   8 -14   -0.69    0.44
  -6   8  14    0.22    0.30
  -5  -8  14    1.32    0.29
  -5  -8  14    1.28    0.49
   5   8 -14    0.66    0.41
  -5   8  14    0.65    0.30
  -5   8  14    0.71    0.35
  -5   8  14    0.82    0.48
  -4  -8  14    0.06    0.33
  -4  -8  14    0.57    0.25
   4   8 -14    0.67    0.38
   4   8 -14    0.08    0.37
  -4   8  14    0.18    0.34
  -4   8  14    0.36    0.32
  -4   8  14    0.38    0.31
  -3  -8  14    0.42    0.44
   3  -8 -14   -0.20    0.25
  -3  -8  14   -0.16    0.30
  -3   8  14    0.06    0.26
   3   8 -14    0.76    0.37
  -3   8  14    0.29    0.34
   3   8 -14    0.02    0.37
  -3   8  14   -0.22    0.36
  -2  -8  14    1.46    0.34
   2  -8 -14    1.11    0.29
  -2  -8  14    1.23    0.26
  -2  -8  14    2.02    0.50
  -2   8  14    1.04    0.33
  -2   8  14    0.86    0.39
   2   8 -14    1.40    0.38
   2   8 -14    0.67    0.36
  -1  -8  14   -0.17    0.29
  -1  -8  14   -0.09    0.25
  -1  -8  14    0.09    0.26
   1   8 -14   -0.12    0.32
   1   8 -14    0.40    0.54
  -1   8  14   -0.16    0.36
   0  -8  14    0.01    0.28
   0  -8  14    0.21    0.30
   0  -8  14   -0.03    0.26
   0   8 -14   -0.13    0.37
   0   8  14    0.88    0.39
   0   8 -14    1.09    0.36
   1  -8  14    0.12    0.33
   1  -8  14   -0.02    0.31
   1  -8  14    0.15    0.30
  -1   8 -14    1.83    0.59
   1   8  14    0.46    0.41
  -1   8 -14    0.37    0.30
   2  -8  14    1.14    0.36
   2  -8  14    1.55    0.36
   2  -8  14    1.33    0.40
   2   8  14    0.83    0.48
  -2   8 -14    1.97    0.36
  -2   8 -14    0.42    0.45
   3  -8  14   -0.05    0.33
   3  -8  14    0.02    0.34
  -3   8 -14    0.06    0.38
   3   8  14    0.02    0.48
   3   8  14   -0.25    0.48
   4  -8  14    3.84    0.51
   4  -8  14    2.77    0.50
  -4   8 -14    3.76    0.96
  -7  -9  14    1.16    0.36
  -7  -9  14    0.59    0.38
   7   9 -14    0.37    0.52
  -7   9  14    0.68    0.62
  -6  -9  14    0.69    0.32
  -6  -9  14    1.04    0.33
  -6   9  14   -0.10    0.57
  -6   9  14    0.66    0.38
   6   9 -14    0.85    0.48
  -5  -9  14   -0.11    0.31
  -5  -9  14    0.14    0.29
  -5   9  14   -0.15    0.37
   5   9 -14   -0.11    0.42
   5   9 -14    0.08    0.33
  -5   9  14   -0.02    0.49
  -5   9  14   -0.17    0.43
  -4  -9  14    0.20    0.28
  -4  -9  14    0.75    0.30
  -4   9  14    0.56    0.33
  -4   9  14    0.01    0.43
  -4   9  14    0.26    0.37
   4   9 -14    0.45    0.41
   4   9 -14   -0.21    0.40
  -3  -9  14    0.83    0.34
  -3  -9  14    0.73    0.28
  -3   9  14    0.39    0.37
   3   9 -14    0.51    0.38
  -3   9  14    0.38    0.31
   3   9 -14    0.48    0.40
  -2  -9  14   -0.33    0.34
  -2  -9  14    0.01    0.17
  -2  -9  14    0.24    0.26
  -2   9  14   -0.83    0.38
   2   9 -14    0.00    0.35
  -2   9  14    0.05    0.32
   2   9 -14    0.45    0.39
  -1  -9  14    7.33    0.68
  -1  -9  14    5.37    0.61
   1   9 -14    5.87    0.71
   1   9 -14    5.85    0.73
  -1   9  14    4.50    0.70
   0  -9  14    0.96    0.31
   0  -9  14    1.08    0.30
   0  -9  14    1.29    0.37
   0   9 -14    0.74    0.38
   0   9 -14    1.29    0.38
   0   9  14    1.08    0.33
   1  -9  14    2.68    0.42
   1  -9  14    1.20    0.42
   1   9  14    1.82    0.51
  -1   9 -14    1.18    0.41
  -1   9 -14    2.30    0.48
   2  -9  14    0.48    0.32
   2  -9  14    0.07    0.36
  -2   9 -14   -0.24    0.37
   2   9  14    0.31    0.48
  -2   9 -14    0.35    0.45
   3  -9  14   -0.32    0.37
   3  -9  14    0.30    0.44
  -3   9 -14    0.15    0.43
   3   9  14   -0.70    0.52
   3   9  14   -0.04    0.45
  -6 -10  14    1.21    0.41
  -6 -10  14    0.28    0.33
   6  10 -14    0.23    0.50
  -6  10  14   -0.21    0.28
  -5 -10  14   -0.21    0.28
  -5 -10  14    0.00    0.38
   5  10 -14   -0.13    0.46
   5  10 -14    0.04    0.49
  -5  10  14   -0.16    0.41
  -5  10  14    0.06    0.52
  -4 -10  14    0.22    0.27
  -4 -10  14    0.09    0.29
  -4  10  14   -0.35    0.42
   4  10 -14    0.04    0.48
   4  10 -14   -0.28    0.43
  -4  10  14   -0.50    0.55
  -3 -10  14    1.25    0.32
  -3 -10  14    0.93    0.37
  -3  10  14    0.81    0.33
   3  10 -14    0.95    0.44
   3  10 -14    1.50    0.47
  -2 -10  14    0.63    0.29
  -2 -10  14    0.91    0.37
  -2  10  14   -0.25    0.35
   2  10 -14    0.69    0.43
  -2  10  14    0.52    0.31
   2  10 -14    0.08    0.47
  -1 -10  14    3.70    0.48
   1  10 -14    3.22    0.58
  -1  10  14    1.67    0.43
   1  10 -14    3.02    0.50
   0 -10  14   -0.37    0.37
   0 -10  14    0.06    0.38
   0  10 -14    0.47    0.40
   0  10  14    0.04    0.47
   0  10 -14    0.03    0.40
   1 -10  14    1.31    0.46
   1 -10  14   -0.35    0.39
   1  10  14    0.50    0.35
  -1  10 -14    0.30    0.40
  -1  10 -14    0.16    0.39
   2 -10  14   -0.10    0.45
   2 -10  14    0.44    0.41
  -2  10 -14    0.65    0.43
  -2  10 -14    0.44    0.43
  -4 -11  14    0.34    0.88
   4  11 -14    0.68    0.59
   4  11 -14    0.54    0.54
  -4  11  14    0.55    0.49
  -3 -11  14    0.63    0.40
   3  11 -14    0.64    0.46
  -3  11  14    0.70    0.50
   3  11 -14   -0.16    0.50
  -2 -11  14    0.15    0.32
   2  11 -14   -0.08    0.43
  -2  11  14    0.18    0.36
   2  11 -14    0.54    0.48
  -1 -11  14    1.09    0.42
   1  11 -14   -0.23    0.45
  -1  11  14    0.19    0.35
   1  11 -14    0.75    0.42
   0 -11  14   -0.47    0.39
   0  11 -14    0.26    0.42
   0  11 -14    0.13    0.55
   0  11  14   -0.02    0.52
  -9   0  15   -0.22    0.33
   9   0 -15   -0.13    0.35
  -8   0  15   -0.04    0.32
   8   0 -15   -1.00    0.44
   7   0 -15    0.12    0.40
  -7   0  15   -0.26    0.29
  -6   0  15    0.38    0.26
   6   0 -15   -0.36    0.34
   5   0 -15    2.66    0.43
  -5   0  15    2.58    0.36
  -4   0  15   -0.41    0.21
   4   0 -15   -0.22    0.29
  -4   0  15   -0.03    0.23
  -3   0  15   12.19    1.28
  -3   0  15   16.79    1.31
   3   0 -15   13.21    1.29
  -2   0  15   -0.17    0.24
   2   0 -15   -0.16    0.25
  -2   0  15    0.00    0.24
   1   0 -15    2.38    0.34
  -1   0  15    1.99    0.32
  -1   0  15    1.80    0.33
   0   0  15   -0.18    0.28
   0   0 -15   -0.12    0.23
  -1   0 -15    0.24    0.24
   1   0  15    0.51    0.27
   2   0  15   -0.02    0.27
  -2   0 -15   -0.27    0.26
   3   0  15    5.81    0.73
  -3   0 -15    6.49    0.68
   4   0  15    0.43    0.37
  -4   0 -15   -0.44    0.35
   5   0  15    1.84    0.58
  -5   0 -15    2.31    0.46
  -9  -1  15    0.23    0.34
   9   1 -15    0.01    0.49
  -9   1  15    0.20    0.35
  -8  -1  15    1.25    0.34
   8  -1 -15    0.38    0.46
  -8   1  15    0.79    0.34
   8   1 -15    0.83    0.45
  -7  -1  15   -0.08    0.28
   7  -1 -15    0.15    0.42
  -7   1  15   -0.10    0.29
   7   1 -15    0.40    0.40
   6  -1 -15    0.75    0.36
  -6  -1  15    0.59    0.26
   6   1 -15    0.34    0.36
  -6   1  15    0.21    0.26
   5  -1 -15   -0.08    0.22
  -5  -1  15    0.35    0.28
   5   1 -15    0.18    0.33
  -5   1  15   -0.30    0.28
  -4  -1  15    5.94    0.54
  -4  -1  15    4.19    0.53
   4  -1 -15    4.82    0.53
   4   1 -15    5.14    0.57
  -4   1  15    5.37    0.54
  -3  -1  15    0.38    0.25
   3  -1 -15    0.30    0.27
  -3  -1  15    0.23    0.27
   3   1 -15    0.98    0.30
  -3   1  15    0.58    0.25
  -3   1  15    0.55    0.24
   2  -1 -15    0.07    0.25
  -2  -1  15   -0.15    0.23
  -2  -1  15   -0.07    0.23
  -2   1  15   -0.10    0.27
   2   1 -15   -0.08    0.26
  -2   1  15    0.16    0.25
  -1  -1  15   -0.26    0.25
   1  -1 -15    0.16    0.24
  -1  -1  15    0.02    0.24
  -1   1  15    0.10    0.27
   1   1 -15    0.33    0.25
   0  -1  15    7.49    0.78
   0  -1 -15    8.33    0.79
   0   1 -15    8.57    0.78
   0   1  15    7.73    0.82
  -1  -1 -15    1.37    0.27
   1  -1  15    0.87    0.34
  -1   1 -15    1.19    0.29
   1   1  15    0.71    0.35
  -2  -1 -15    3.81    0.42
   2  -1  15    3.45    0.49
   2   1  15    2.83    0.44
  -2   1 -15    3.26    0.42
  -3  -1 -15    0.91    0.27
   3  -1  15    0.77    0.41
  -3   1 -15    0.51    0.28
   3   1  15    0.34    0.53
   4  -1  15    0.04    0.46
  -4  -1 -15    0.57    0.33
   4   1  15    0.42    0.38
  -4   1 -15    0.80    0.37
  -5  -1 -15    0.72    0.37
   5  -1  15    0.97    0.44
   5   1  15    0.08    0.44
  -5   1 -15    0.14    0.35
  -9  -2  15   -0.10    0.35
   9   2 -15    0.09    0.50
  -9   2  15    0.08    0.35
  -8  -2  15    0.27    0.29
   8  -2 -15    0.11    0.14
  -8  -2  15   -0.09    0.31
   8  -2 -15    0.13    0.43
   8   2 -15    0.60    0.47
  -8   2  15   -0.08    0.31
  -7  -2  15    0.42    0.24
   7  -2 -15    0.61    0.30
  -7   2  15   -0.02    0.29
   7   2 -15   -0.23    0.39
   6  -2 -15   -0.09    0.35
  -6  -2  15    0.38    0.30
  -6   2  15    0.17    0.26
   6   2 -15   -0.26    0.35
   5  -2 -15    0.14    0.22
  -5  -2  15    0.28    0.24
  -5   2  15    0.16    0.20
  -5   2  15    1.10    0.30
   5   2 -15    0.64    0.34
  -4  -2  15   -0.37    0.22
   4  -2 -15   -0.18    0.29
  -4  -2  15    0.21    0.20
   4   2 -15    0.69    0.30
  -4   2  15    0.09    0.17
  -4   2  15    0.12    0.28
  -3  -2  15    0.72    0.26
  -3  -2  15    1.14    0.26
   3  -2 -15    0.76    0.29
  -3   2  15    1.07    0.26
  -3   2  15    0.62    0.34
   3   2 -15    0.87    0.30
  -2  -2  15    0.55    0.28
  -2  -2  15    0.48    0.27
   2  -2 -15    0.45    0.26
   2   2 -15    0.46    0.27
  -2   2  15    0.53    0.28
  -2   2  15    0.55    0.25
   1  -2 -15    1.24    0.28
  -1  -2  15    1.09    0.54
  -1  -2  15    1.47    0.31
  -1   2  15    1.40    0.35
   1   2 -15    1.35    0.31
   0  -2 -15    4.69    0.55
   0  -2  15    5.18    0.53
   0  -2  15    4.79    0.56
   0   2 -15    5.12    0.57
   0   2  15    5.06    0.57
   1  -2  15    0.08    0.32
  -1  -2 -15    0.69    0.24
   1   2  15    0.48    0.29
  -1   2 -15    0.19    0.33
  -2  -2 -15    1.00    0.44
   2  -2  15    0.02    0.36
   2   2  15    0.54    0.38
  -2   2 -15    0.39    0.27
   3  -2  15    0.89    0.35
  -3  -2 -15    0.20    0.26
  -3   2 -15   -0.10    0.36
   3   2  15    0.00    0.42
   4  -2  15   -0.04    0.37
  -4  -2 -15    1.00    0.28
   4   2  15    1.03    0.49
  -4   2 -15    0.83    0.40
   5  -2  15    1.55    0.47
  -5  -2 -15    2.08    0.34
   5   2  15    1.77    0.56
  -5   2 -15    1.47    0.43
  -9  -3  15   -0.14    0.35
  -9   3  15    0.15    0.42
  -9   3  15    0.63    0.36
   9   3 -15   -0.21    0.51
   8  -3 -15    0.46    0.35
  -8  -3  15    0.12    0.31
  -8  -3  15   -0.23    0.26
  -8   3  15    0.03    0.36
  -8   3  15    0.13    0.31
   8   3 -15    0.54    0.46
  -7  -3  15   -0.06    0.28
  -7  -3  15   -0.38    0.25
   7  -3 -15    0.40    0.41
   7   3 -15    0.96    0.71
  -7   3  15    0.45    0.35
  -6  -3  15    1.79    0.31
   6  -3 -15    1.26    0.40
   6   3 -15    1.00    0.40
  -6   3  15    1.15    0.35
   5  -3 -15   -0.05    0.31
  -5  -3  15    0.01    0.24
   5   3 -15    0.22    0.34
  -5   3  15    0.17    0.24
  -5   3  15    0.03    0.24
   4  -3 -15   -0.22    0.28
  -4  -3  15    0.30    0.23
   4   3 -15    0.08    0.30
  -4   3  15    0.32    0.28
  -4   3  15    0.06    0.28
  -4   3  15    0.23    0.25
  -3  -3  15    0.27    0.23
  -3  -3  15    0.25    0.23
   3  -3 -15    0.26    0.26
  -3   3  15    0.25    0.23
   3   3 -15    0.17    0.29
  -3   3  15    0.07    0.25
  -3   3  15    0.42    0.24
  -2  -3  15    6.26    0.58
  -2  -3  15    5.04    0.58
   2  -3 -15    6.23    0.58
  -2   3  15    5.00    0.57
  -2   3  15    4.35    0.58
  -2   3  15    6.71    0.59
   2   3 -15    5.53    0.60
   1  -3 -15    2.20    0.35
  -1  -3  15    2.93    0.37
  -1  -3  15    2.71    0.36
   1   3 -15    2.02    0.40
  -1   3  15    2.05    0.39
   0  -3  15    1.85    0.35
   0  -3 -15    2.41    0.33
   0  -3  15    1.49    0.35
   0   3 -15    2.22    0.35
   0   3  15    1.96    0.36
  -1  -3 -15   -0.24    0.22
   1  -3  15   -0.05    0.31
  -1   3 -15   -0.19    0.27
   1   3  15    0.06    0.31
  -2  -3 -15   -0.04    0.27
   2  -3  15    0.36    0.37
   2   3  15    0.03    0.33
  -2   3 -15   -0.03    0.28
  -3  -3 -15    0.35    0.25
   3  -3  15    0.68    0.41
  -3   3 -15    0.51    0.38
   3   3  15   -0.01    0.35
   4  -3  15    0.86    0.38
  -4  -3 -15    0.87    0.36
  -4   3 -15    1.30    0.44
   4   3  15    1.16    0.44
   5  -3  15    0.38    0.82
   5   3  15   -0.82    0.45
  -5   3 -15    0.56    0.40
  -9  -4  15   -0.17    0.32
  -9   4  15    0.09    0.41
   9   4 -15   -0.01    0.52
  -8  -4  15    0.36    0.29
  -8  -4  15   -0.05    0.31
  -8   4  15   -0.18    0.32
  -8   4  15   -0.09    0.37
   8   4 -15   -0.29    0.47
  -7  -4  15    0.03    0.28
   7  -4 -15    0.34    0.40
  -7  -4  15   -0.36    0.29
  -7   4  15    0.11    0.30
  -7   4  15    0.08    0.33
   7   4 -15   -0.33    0.41
  -6  -4  15   -0.13    0.27
   6  -4 -15   -0.36    0.36
  -6  -4  15   -0.08    0.27
  -6   4  15    0.00    0.30
  -6   4  15   -0.06    0.27
   6   4 -15    0.06    0.39
  -5  -4  15    6.27    0.56
   5  -4 -15    5.47    0.60
  -5   4  15    4.88    0.55
  -5   4  15    5.24    0.62
   5   4 -15    5.22    0.57
  -5   4  15    3.99    0.52
  -4  -4  15    0.44    0.24
   4  -4 -15    0.41    0.29
  -4   4  15    0.62    0.26
   4   4 -15    0.38    0.34
  -4   4  15   -0.05    0.30
  -4   4  15   -0.14    0.28
   3  -4 -15    2.13    0.32
  -3  -4  15    1.54    0.27
  -3  -4  15    1.36    0.24
  -3   4  15    1.37    0.32
  -3   4  15    1.16    0.29
  -3   4  15    1.62    0.30
   3   4 -15    1.24    0.34
   2  -4 -15    0.60    0.26
  -2  -4  15    1.46    0.26
  -2  -4  15    0.48    0.26
  -2   4  15    0.72    0.30
   2   4 -15    0.41    0.30
  -2   4  15    0.52    0.27
  -1  -4  15    2.21    0.31
   1  -4 -15    1.60    0.31
  -1  -4  15    1.94    0.33
  -1   4  15    1.69    0.35
   1   4 -15    1.74    0.34
   0  -4  15    0.52    0.25
   0  -4  15    0.33    0.29
   0  -4 -15    0.20    0.24
   0   4 -15    0.17    0.28
   0   4  15    0.34    0.30
   0   4 -15    0.33    0.15
  -1  -4 -15    0.14    0.23
   1  -4  15    0.34    0.33
   1  -4  15    0.60    0.27
  -1   4 -15    0.20    0.33
   1   4  15    0.12    0.32
   1   4  15    0.12    0.29
  -1   4 -15    0.24    0.28
  -2  -4 -15    0.76    0.23
   2  -4  15    0.14    0.35
   2   4  15    0.48    0.37
  -2   4 -15    0.57    0.30
   3  -4  15    7.20    0.74
  -3  -4 -15    7.12    0.77
   3   4  15    5.83    0.81
  -3   4 -15    7.23    0.74
   4  -4  15   -0.01    0.34
  -4   4 -15   -0.49    0.36
   4   4  15   -0.24    0.41
   5  -4  15    1.18    1.24
   5   4  15    1.00    0.49
  -5   4 -15    0.96    0.52
  -8  -5  15    0.95    0.35
  -8  -5  15    2.53    0.40
  -8   5  15    1.21    0.39
   8   5 -15    1.73    0.54
  -8   5  15    1.76    0.45
  -7  -5  15   -0.15    0.30
  -7  -5  15   -0.35    0.31
  -7   5  15   -0.62    0.31
   7   5 -15    0.26    0.44
  -7   5  15    0.37    0.35
  -6  -5  15    1.05    0.29
  -6  -5  15    0.26    0.30
   6  -5 -15    0.29    0.37
  -6   5  15    0.15    0.28
  -6   5  15    0.57    0.40
   6   5 -15    0.26    0.40
   5  -5 -15    0.04    0.32
  -5  -5  15   -0.02    0.24
  -5   5  15    0.23    0.36
  -5   5  15    0.20    0.25
   5   5 -15    0.44    0.27
  -5   5  15    0.61    0.27
   4  -5 -15    0.54    0.30
  -4  -5  15    0.24    0.24
  -4   5  15    0.24    0.25
   4   5 -15    0.61    0.35
  -4   5  15   -0.03    0.27
  -4   5  15    0.36    0.30
  -3  -5  15    0.27    0.23
  -3  -5  15    0.46    0.22
   3  -5 -15    1.01    0.28
  -3   5  15    0.17    0.27
   3   5 -15    0.32    0.32
  -3   5  15    0.04    0.30
  -3   5  15    0.26    0.31
  -2  -5  15    0.10    0.22
  -2  -5  15    0.40    0.23
   2  -5 -15   -0.17    0.24
  -2   5  15    0.11    0.25
  -2   5  15   -0.24    0.27
   2   5 -15   -0.20    0.29
  -1  -5  15    0.06    0.24
   1  -5 -15    0.19    0.23
  -1  -5  15    0.30    0.25
  -1   5  15    0.02    0.30
   1   5 -15    0.28    0.24
   1   5 -15    0.44    0.29
   0  -5  15    7.83    0.76
   0  -5  15    6.58    0.70
   0  -5 -15    6.59    0.71
   0   5 -15    8.19    0.77
   0   5  15    5.85    0.72
   0   5 -15    6.99    0.73
   1  -5  15    0.78    0.34
  -1  -5 -15    1.23    0.29
   1  -5  15    0.49    0.27
   1   5  15    0.54    0.36
  -1   5 -15    0.87    0.27
   1   5  15    0.11    0.30
  -1   5 -15    0.64    0.31
   2  -5  15    3.62    0.44
  -2  -5 -15    3.83    0.42
   2   5  15    3.14    0.51
   2   5  15    1.82    0.49
  -2   5 -15    3.67    0.47
   3  -5  15   -0.03    0.38
   3   5  15    0.61    0.54
  -3   5 -15   -0.07    0.33
   4  -5  15    0.28    0.44
  -4   5 -15    1.17    0.49
   4   5  15    0.26    0.46
  -8  -6  15    0.06    0.35
  -8  -6  15    0.79    0.35
  -8   6  15   -0.10    0.52
   8   6 -15    0.14    0.51
  -8   6  15    0.14    0.50
  -7  -6  15    0.44    0.31
  -7  -6  15    0.00    0.32
  -7   6  15    0.29    0.38
   7   6 -15    0.12    0.45
  -7   6  15    0.24    0.37
  -6  -6  15    0.18    0.28
  -6  -6  15    0.34    0.32
  -6   6  15   -0.19    0.34
  -6   6  15    0.25    0.34
   6   6 -15    0.54    0.42
  -5  -6  15    1.03    0.33
  -5  -6  15    1.28    0.30
   5  -6 -15    1.30    0.36
  -5   6  15    0.33    0.41
   5   6 -15    0.48    0.41
  -5   6  15    0.72    0.29
  -5   6  15    0.85    0.30
   4  -6 -15    0.89    0.32
  -4  -6  15    1.61    0.29
  -4  -6  15    0.91    0.32
  -4   6  15    0.79    0.77
  -4   6  15    1.47    0.35
   4   6 -15    1.08    0.40
  -4   6  15    0.73    0.31
   3  -6 -15    0.49    0.29
  -3  -6  15    0.56    0.29
  -3  -6  15    1.14    0.26
  -3   6  15    0.30    0.35
  -3   6  15    4.95    1.62
  -3   6  15    0.63    0.32
   3   6 -15    0.91    0.35
   2  -6 -15    0.09    0.24
  -2  -6  15   -0.01    0.23
  -2  -6  15   -0.03    0.26
  -2   6  15   -0.04    0.29
  -2   6  15    0.12    0.26
   2   6 -15    0.46    0.36
   2   6 -15    0.13    0.31
  -1  -6  15    0.23    0.27
   1  -6 -15   -0.06    0.23
  -1  -6  15   -0.24    0.24
  -1   6  15   -0.20    0.33
   1   6 -15    0.17    0.27
   1   6 -15   -0.33    0.30
   0  -6 -15    3.37    0.43
   0  -6  15    3.13    0.87
   0  -6  15    4.93    0.51
   0   6 -15    3.89    0.50
   0   6 -15    5.24    0.64
   0   6  15    2.82    0.51
   1  -6  15    0.20    0.44
   1  -6  15    0.08    0.34
  -1  -6 -15   -0.16    0.26
   1   6  15    0.47    0.39
  -1   6 -15    0.63    0.30
  -1   6 -15    0.47    0.32
   2  -6  15    0.04    0.35
   2  -6  15    0.03    0.36
  -2   6 -15    0.10    0.40
   2   6  15    0.01    0.35
   2   6  15   -0.47    0.40
   3  -6  15   -0.14    0.33
  -3   6 -15    0.10    0.36
   3   6  15   -0.24    0.46
   3   6  15   -0.07    0.46
   4  -6  15    0.34    0.45
  -4   6 -15    0.64    0.52
   4   6  15   -0.53    0.51
   4   6  15    0.14    0.38
  -7  -7  15    0.08    0.29
  -7  -7  15    0.34    0.34
  -7   7  15    0.28    0.40
  -7   7  15    0.39    0.56
   7   7 -15    0.53    0.50
  -6  -7  15    0.11    0.29
  -6  -7  15   -0.27    0.27
  -6   7  15   -0.32    0.30
   6   7 -15   -0.03    0.31
  -6   7  15    0.38    0.49
  -5  -7  15    3.42    0.41
  -5  -7  15    3.55    0.46
  -5   7  15    2.63    0.54
  -5   7  15    2.77    0.44
  -5   7  15    2.37    0.42
   5   7 -15    3.36    0.53
   4  -7 -15    0.47    0.37
  -4  -7  15    0.12    0.33
  -4  -7  15    0.78    0.28
  -4   7  15    0.05    0.41
  -4   7  15    0.36    0.33
   4   7 -15    0.13    0.38
  -4   7  15    0.18    0.28
  -3  -7  15    0.33    0.32
   3  -7 -15   -0.03    0.26
  -3  -7  15    0.15    0.29
   3   7 -15    0.83    0.37
   3   7 -15    0.33    0.37
  -3   7  15    0.21    0.33
  -3   7  15    0.34    0.32
  -2  -7  15    0.49    0.43
   2  -7 -15   -0.03    0.30
  -2  -7  15    0.16    0.24
  -2   7  15    0.60    0.34
  -2   7  15    0.39    0.28
   2   7 -15    0.35    0.33
   2   7 -15    0.16    0.34
  -1  -7  15    1.45    0.33
   1  -7 -15    1.59    0.28
  -1  -7  15    2.62    0.47
  -1   7  15    1.25    0.39
   1   7 -15    1.87    0.36
   1   7 -15    1.12    0.44
   0  -7  15    0.35    0.30
   0  -7  15    0.02    0.31
   0   7 -15    0.16    0.35
   0   7  15   -0.21    0.38
   0   7 -15   -0.35    0.34
   1  -7  15    1.52    1.11
   1  -7  15    0.92    0.34
   1   7  15    1.40    0.52
  -1   7 -15    0.36    0.35
  -1   7 -15    0.25    0.34
   2  -7  15    1.25    0.41
   2  -7  15    1.25    0.40
   2   7  15    1.15    0.48
  -2   7 -15    1.30    0.46
   2   7  15    0.29    0.43
   3  -7  15    0.78    0.43
   3  -7  15    0.27    0.42
   3   7  15    0.53    0.46
   3   7  15    0.45    0.45
  -3   7 -15   -0.34    0.38
  -7  -8  15    0.19    0.31
  -7  -8  15   -0.29    0.34
   7   8 -15    0.50    0.53
  -7   8  15   -0.08    0.59
  -6  -8  15   -0.39    0.36
  -6  -8  15    0.05    0.29
  -6   8  15   -0.25    0.54
   6   8 -15    0.03    0.47
  -6   8  15    0.11    0.34
  -6   8  15    0.11    0.37
  -5  -8  15    0.19    0.33
  -5  -8  15    0.33    0.29
   5   8 -15   -0.03    0.43
  -5   8  15    0.02    0.30
  -5   8  15    0.11    0.41
  -5   8  15    0.24    0.34
  -4  -8  15   -0.02    0.31
  -4  -8  15    0.39    0.36
   4   8 -15    0.75    0.43
  -4   8  15    0.10    0.33
  -4   8  15    0.39    0.42
   4   8 -15    0.64    0.41
  -4   8  15    0.10    0.35
  -3  -8  15   11.23    1.01
   3  -8 -15    8.09    0.90
  -3   8  15    7.35    1.71
   3   8 -15    9.66    0.95
  -3   8  15    9.09    0.99
   3   8 -15    9.48    0.95
  -2  -8  15    0.22    0.34
  -2  -8  15   -0.18    0.28
   2  -8 -15    0.89    0.46
  -2  -8  15   -0.08    0.29
   2   8 -15    0.04    0.37
  -2   8  15   -0.11    0.36
   2   8 -15   -0.14    0.35
  -2   8  15    0.42    0.34
  -1  -8  15    5.02    0.52
  -1  -8  15    3.64    0.50
  -1  -8  15    4.84    0.50
   1   8 -15    5.15    0.61
   1   8 -15    3.84    0.61
  -1   8  15    2.96    0.57
   0  -8  15    0.25    0.34
   0  -8  15   -0.20    0.25
   0  -8  15   -0.14    0.35
   0   8 -15   -0.59    0.35
   0   8 -15   -0.16    0.33
   0   8  15    0.27    0.40
   1  -8  15   -0.18    0.29
   1  -8  15    0.85    0.35
   1  -8  15    0.28    0.31
  -1   8 -15   -0.40    0.43
  -1   8 -15    0.93    0.32
   1   8  15    0.52    0.45
   2  -8  15    0.67    0.38
   2  -8  15    0.50    0.33
  -2   8 -15    0.61    0.38
   2   8  15    0.28    0.48
   3  -8  15    0.94    0.40
   3  -8  15    0.67    0.44
  -3   8 -15    0.82    1.09
  -6  -9  15    0.18    0.33
  -6  -9  15    0.67    0.34
  -6   9  15    0.65    0.40
  -6   9  15    0.01    0.50
   6   9 -15   -0.07    0.53
  -5  -9  15   -0.06    0.30
  -5  -9  15    0.18    0.39
   5   9 -15    0.19    0.46
  -5   9  15   -0.09    0.42
  -5   9  15   -0.18    0.37
  -4  -9  15    0.04    0.31
  -4  -9  15    0.66    0.30
   4   9 -15    0.44    0.44
  -4   9  15    0.27    0.37
   4   9 -15    0.06    0.41
  -4   9  15   -0.11    0.39
  -3  -9  15    0.78    0.38
  -3  -9  15    0.72    0.32
   3   9 -15    0.35    0.42
  -3   9  15    0.35    0.28
   3   9 -15    0.20    0.44
  -3   9  15    0.60    0.30
  -2  -9  15    1.50    0.41
  -2  -9  15    1.58    0.34
   2   9 -15    1.83    0.45
   2   9 -15    0.97    0.42
  -2   9  15    1.01    0.40
  -2   9  15    1.66    0.46
  -1  -9  15    1.13    0.37
  -1  -9  15    2.41    0.37
  -1  -9  15    1.81    0.43
   1   9 -15    1.12    0.42
   1   9 -15    1.31    0.51
  -1   9  15    1.28    0.86
   0  -9  15    2.96    0.50
   0  -9  15    4.13    0.45
   0  -9  15    3.10    0.51
   0   9  15    1.67    0.55
   0   9 -15    3.29    0.57
   0   9 -15    3.28    0.52
   1  -9  15    0.01    0.40
   1  -9  15    0.16    0.45
  -1   9 -15   -0.19    0.44
  -1   9 -15    0.28    0.40
   1   9  15    0.39    0.56
   2  -9  15    1.49    0.44
   2  -9  15    0.46    0.45
  -2   9 -15    0.50    0.42
  -4 -10  15    0.09    0.42
  -4 -10  15    0.07    0.35
   4  10 -15   -0.27    0.47
  -4  10  15   -0.01    0.43
   4  10 -15   -0.02    0.46
  -3 -10  15   -0.02    0.40
  -3 -10  15    0.09    0.33
   3  10 -15    0.18    0.47
  -3  10  15   -0.08    0.45
   3  10 -15   -0.01    0.45
  -2 -10  15    0.00    0.40
  -2  10  15    0.01    0.49
  -2  10  15    0.36    0.39
   2  10 -15    0.63    0.46
   2  10 -15    0.16    0.54
  -1 -10  15    0.17    0.25
  -1 -10  15    0.52    0.43
   1  10 -15    0.60    0.43
  -1  10  15    0.86    0.49
   1  10 -15    0.24    0.44
   0 -10  15   -0.12    0.41
   0 -10  15    0.13    0.44
   0  10 -15    0.27    0.41
   0  10 -15    0.35    0.43
   0  10  15    0.35    0.50
   8   0 -16    0.58    0.47
  -8   0  16    0.09    0.34
   7   0 -16   -0.28    0.42
  -7   0  16   -0.09    0.31
   6   0 -16   -0.03    0.37
  -6   0  16   -0.08    0.31
   5   0 -16    0.35    0.26
  -5   0  16    0.23    0.26
  -4   0  16    0.11    0.21
   4   0 -16    0.14    0.32
  -4   0  16   -0.13    0.25
   3   0 -16   -0.15    0.29
  -3   0  16    0.12    0.24
  -3   0  16   -0.33    0.25
   2   0 -16    0.06    0.27
  -2   0  16    0.23    0.27
  -2   0  16    0.57    0.27
  -1   0  16    0.13    0.24
  -1   0  16   -0.18    0.25
   1   0 -16    0.11    0.27
   0   0 -16    2.03    0.35
   0   0  16    1.62    0.33
   1   0  16    0.30    0.34
  -1   0 -16   -0.08    0.27
   2   0  16    0.12    0.38
  -2   0 -16    0.66    0.30
  -3   0 -16    0.21    0.29
   3   0  16   -0.31    0.44
  -4   0 -16    0.40    0.32
   4   0  16   -0.07    0.40
   9  -1 -16   -0.35    0.53
   8  -1 -16    0.82    0.48
  -8  -1  16    0.54    0.35
  -8   1  16    0.02    0.34
   8   1 -16    0.10    0.49
   7  -1 -16    0.38    0.44
  -7  -1  16   -0.07    0.31
   7   1 -16    0.09    0.43
  -7   1  16    0.14    0.32
  -6  -1  16    0.07    0.26
   6  -1 -16   -0.16    0.36
   6   1 -16    0.37    0.37
  -6   1  16   -0.17    0.28
  -5  -1  16    2.49    0.36
   5  -1 -16    1.77    0.40
  -5   1  16    2.03    0.35
   5   1 -16    1.13    0.40
  -4  -1  16    0.66    0.25
  -4  -1  16    0.52    0.26
   4  -1 -16    0.67    0.32
  -4   1  16    0.23    0.24
  -4   1  16    0.98    0.29
   4   1 -16    1.06    0.33
  -3  -1  16   -0.15    0.23
  -3  -1  16   -0.12    0.28
   3  -1 -16    0.43    0.29
  -3   1  16   -0.05    0.26
   3   1 -16    0.20    0.31
  -3   1  16    0.09    0.26
  -2  -1  16    0.73    0.26
   2  -1 -16    0.58    0.29
  -2  -1  16    0.94    0.28
   2   1 -16    0.41    0.30
  -2   1  16    1.07    0.30
  -2   1  16    0.85    0.28
  -1  -1  16    4.24    0.44
  -1  -1  16    2.51    0.44
   1  -1 -16    4.29    0.45
   1   1 -16    3.04    0.44
  -1   1  16    3.12    0.45
  -1   1  16    3.57    0.46
   0  -1  16    5.66    0.70
   0  -1 -16    6.08    0.70
   0   1 -16    7.30    0.71
   0   1  16    6.28    0.71
   1  -1  16   -0.49    0.34
  -1  -1 -16   -0.24    0.25
  -1   1 -16    0.22    0.28
   1   1  16    0.35    0.29
  -2  -1 -16   -0.02    0.33
   2  -1  16   -0.18    0.32
  -2   1 -16   -0.02    0.30
   2   1  16   -0.08    0.38
   3  -1  16    0.49    0.46
  -3  -1 -16    0.72    0.38
  -3   1 -16    0.99    0.38
   3   1  16    0.16    0.35
   4  -1  16    0.24    0.51
  -4  -1 -16    0.07    0.37
  -4   1 -16   -0.14    0.39
   4   1  16    0.23    0.50
  -8  -2  16   -0.01    0.28
  -8  -2  16    0.23    0.34
   8  -2 -16   -0.35    0.33
  -8   2  16   -0.29    0.34
   8   2 -16    0.30    0.50
  -7  -2  16    0.01    0.30
   7  -2 -16   -0.19    0.29
   7   2 -16    0.07    0.42
  -7   2  16   -0.01    0.31
   6  -2 -16    0.36    0.39
  -6  -2  16    0.33    0.33
  -6   2  16    0.06    0.33
   6   2 -16    0.58    0.39
  -5  -2  16    2.43    0.34
   5  -2 -16    1.72    0.39
   5   2 -16    1.68    0.40
  -5   2  16    1.57    0.33
   4  -2 -16    0.24    0.31
  -4  -2  16   -0.14    0.24
  -4   2  16   -0.15    0.30
  -4   2  16   -0.11    0.25
   4   2 -16    0.01    0.22
  -3  -2  16    5.35    0.54
   3  -2 -16    5.48    0.58
  -3   2  16    5.62    0.57
  -3   2  16    3.97    0.59
   3   2 -16    5.58    0.59
   2  -2 -16    1.69    0.32
  -2  -2  16    1.16    0.34
  -2  -2  16    1.25    0.30
  -2   2  16    1.00    0.29
  -2   2  16    0.92    0.29
   2   2 -16    1.69    0.33
  -1  -2  16    1.63    0.33
   1  -2 -16    2.25    0.35
  -1  -2  16    1.79    0.35
  -1   2  16    1.46    0.38
   1   2 -16    2.00    0.35
   0  -2 -16    0.63    0.28
   0  -2  16    0.83    0.28
   0  -2  16    0.40    0.33
   0   2  16    0.15    0.35
   0   2 -16    0.15    0.28
  -1  -2 -16    2.57    0.36
   1  -2  16    1.84    0.43
  -1   2 -16    2.07    0.38
   1   2  16    2.15    0.38
   2  -2  16    0.60    0.41
  -2  -2 -16    0.95    0.29
   2   2  16    1.26    0.44
  -2   2 -16    0.60    0.39
   3  -2  16    3.37    0.51
  -3  -2 -16    3.96    0.46
  -3   2 -16    3.84    0.49
   3   2  16    2.94    0.52
   4  -2  16    0.74    0.50
  -4  -2 -16   -0.06    0.32
   4   2  16    0.99    0.44
  -4   2 -16    0.71    0.37
   8  -3 -16   -0.51    0.47
  -8  -3  16   -0.29    0.30
  -8  -3  16   -0.09    0.35
  -8   3  16   -0.44    0.37
  -8   3  16   -0.25    0.35
   8   3 -16   -0.25    0.48
   7  -3 -16    0.16    0.43
  -7  -3  16    0.76    0.32
  -7  -3  16    0.28    0.29
  -7   3  16    0.69    0.35
  -7   3  16    0.96    0.34
   7   3 -16    0.76    0.45
  -6  -3  16   -0.09    0.28
   6  -3 -16   -0.06    0.40
  -6   3  16    0.05    0.29
   6   3 -16    0.12    0.40
  -5  -3  16    1.35    0.30
   5  -3 -16    0.48    0.35
   5   3 -16    1.32    0.39
  -5   3  16    0.49    0.35
  -5   3  16    1.12    0.37
  -5   3  16    0.68    0.29
   4  -3 -16    0.67    0.32
  -4   3  16    0.49    0.24
   4   3 -16    0.94    0.35
  -4   3  16    0.28    0.31
  -4   3  16    0.87    0.33
  -3  -3  16    0.27    0.26
   3  -3 -16   -0.02    0.28
  -3  -3  16   -0.06    0.25
  -3   3  16   -0.19    0.29
   3   3 -16    0.08    0.31
  -3   3  16    0.16    0.25
  -3   3  16    0.11    0.28
  -2  -3  16    0.98    0.28
  -2  -3  16    0.64    0.28
   2  -3 -16    0.42    0.35
   2   3 -16    0.38    0.31
  -2   3  16    0.33    0.26
  -2   3  16    0.56    0.27
  -1  -3  16    0.13    0.29
  -1  -3  16    0.52    0.27
   1  -3 -16   -0.20    0.28
   1   3 -16    0.16    0.29
  -1   3  16    0.18    0.28
   0  -3  16    5.57    0.56
   0  -3 -16    3.85    0.54
   0  -3  16    3.71    0.46
   0   3 -16    3.57    0.49
   0   3  16    3.23    0.54
  -1  -3 -16    0.80    0.27
   1  -3  16    0.58    0.37
   1   3  16    0.78    0.34
  -1   3 -16    0.51    0.32
  -2  -3 -16    1.72    0.39
   2  -3  16    2.98    0.43
   2   3  16    2.22    0.51
  -2   3 -16    2.55    0.41
   3  -3  16    0.81    0.38
  -3  -3 -16    1.61    0.36
   3   3  16    1.07    0.50
  -3   3 -16    0.69    0.34
  -4  -3 -16    0.21    0.30
   4  -3  16   -0.57    0.49
   4   3  16   -0.22    0.52
  -4   3 -16   -0.14    0.37
  -8  -4  16    0.46    0.34
  -8  -4  16    0.06    0.35
   8   4 -16    0.00    0.51
  -8   4  16    0.09    0.42
  -8   4  16    0.41    0.40
  -7  -4  16    0.23    0.32
   7  -4 -16   -0.41    0.41
  -7  -4  16   -0.39    0.30
   7   4 -16   -0.02    0.32
  -7   4  16   -0.13    0.32
  -7   4  16    0.34    0.43
   6  -4 -16    0.34    0.39
  -6  -4  16    0.34    0.30
  -6   4  16   -0.25    0.31
  -6   4  16    0.02    0.34
   6   4 -16    0.00    0.28
   5  -4 -16    0.20    0.35
  -5  -4  16    0.09    0.27
   5   4 -16    0.14    0.27
  -5   4  16   -0.14    0.28
  -5   4  16    0.33    0.36
  -5   4  16   -0.06    0.24
   4  -4 -16    0.36    0.32
  -4  -4  16    0.98    0.28
  -4   4  16    0.79    0.29
  -4   4  16    0.82    0.27
   4   4 -16    0.70    0.28
  -4   4  16    0.57    0.35
  -3  -4  16   -0.32    0.28
   3  -4 -16   -0.05    0.28
  -3  -4  16    0.10    0.24
  -3   4  16    0.04    0.26
   3   4 -16   -0.24    0.33
  -3   4  16    0.33    0.31
  -2  -4  16    1.14    0.34
   2  -4 -16    1.89    0.33
  -2  -4  16    2.72    0.33
   2   4 -16    2.58    0.42
  -2   4  16    1.36    0.34
  -2   4  16    1.50    0.34
   1  -4 -16    0.65    0.27
  -1  -4  16    0.54    0.31
  -1  -4  16    0.44    0.30
   1   4 -16    1.39    0.33
  -1   4  16    0.03    0.31
   0  -4  16    2.85    0.37
   0  -4  16    1.73    0.38
   0  -4 -16    2.45    0.35
   0   4  16    1.32    0.38
   0   4 -16    1.87    0.38
   1  -4  16   -0.11    0.35
   1  -4  16    0.41    0.36
  -1  -4 -16    0.34    0.31
   1   4  16   -0.09    0.44
  -1   4 -16    0.47    0.33
   2  -4  16    0.68    0.41
  -2  -4 -16   -0.32    0.26
  -2   4 -16   -0.23    0.39
   2   4  16   -0.28    0.38
  -3  -4 -16    0.32    0.34
   3  -4  16    0.34    0.43
  -3   4 -16    0.41    0.35
   3   4  16    0.43    0.52
   4  -4  16   -0.36    0.45
  -4   4 -16   -0.24    0.47
   4   4  16   -0.06    0.57
  -8  -5  16   -0.48    0.33
  -8  -5  16   -0.40    0.34
  -8   5  16    0.30    0.41
  -8   5  16   -0.54    0.49
   8   5 -16   -0.77    0.52
  -7  -5  16    0.42    0.33
  -7  -5  16    0.64    0.35
   7  -5 -16    0.37    0.34
  -7   5  16    0.79    0.35
   7   5 -16    0.92    0.36
  -7   5  16    0.45    0.45
   6  -5 -16    0.23    0.39
  -6  -5  16    0.42    0.30
  -6  -5  16    0.49    0.32
   6   5 -16    0.37    0.30
  -6   5  16    0.09    0.41
  -6   5  16    1.51    1.09
   5  -5 -16    0.74    0.37
  -5  -5  16    0.57    0.28
  -5   5  16    0.70    0.34
  -5   5  16    0.42    0.33
   5   5 -16    0.54    0.40
  -5   5  16    0.36    0.33
  -4  -5  16    1.75    0.30
   4  -5 -16    1.16    0.35
  -4   5  16    1.10    0.35
  -4   5  16    0.53    0.39
  -4   5  16    0.20    0.30
   4   5 -16    0.51    0.39
   3  -5 -16    0.53    0.30
  -3  -5  16    0.68    0.27
  -3   5  16    0.21    0.29
   3   5 -16    0.77    0.36
  -3   5  16    0.63    0.29
  -2  -5  16    0.59    0.27
   2  -5 -16    0.75    0.29
  -2  -5  16    0.44    0.38
  -2   5  16    0.36    0.31
   2   5 -16    0.53    0.33
  -2   5  16    0.31    0.29
   1  -5 -16   -0.41    0.26
  -1  -5  16    0.10    0.28
  -1  -5  16    0.04    0.32
   1   5 -16    0.17    0.31
  -1   5  16    0.02    0.31
   0  -5  16   -0.40    0.34
   0  -5 -16    0.35    0.30
   0  -5  16    0.07    0.31
   0   5 -16   -0.34    0.29
   0   5 -16   -0.26    0.32
   0   5  16   -0.64    0.34
   1  -5  16    1.27    0.37
  -1  -5 -16    0.78    0.32
   1  -5  16    0.47    0.36
   1   5  16    0.69    0.37
  -1   5 -16    0.40    0.36
   2  -5  16    0.17    0.38
   2  -5  16    0.09    0.37
   2   5  16   -0.46    0.41
  -2   5 -16   -0.03    0.35
   3  -5  16    0.23    0.41
   3   5  16    0.11    0.55
  -3   5 -16    0.90    0.39
  -7  -6  16    0.57    0.37
  -7  -6  16    0.66    0.36
  -7   6  16    1.36    0.51
  -7   6  16    0.20    0.41
   7   6 -16    0.71    0.51
   6  -6 -16    0.70    0.31
  -6  -6  16    0.16    0.30
  -6  -6  16    0.47    0.35
  -6   6  16    0.01    0.45
   6   6 -16    0.15    0.84
  -6   6  16    0.34    0.38
  -5  -6  16   -0.08    0.28
  -5  -6  16    0.33    0.33
   5  -6 -16   -0.24    0.37
  -5   6  16   -0.41    0.34
  -5   6  16    0.04    0.32
   5   6 -16    0.11    0.42
  -5   6  16   -0.01    0.35
  -4  -6  16   -0.10    0.27
   4  -6 -16   -0.02    0.33
   4   6 -16    0.16    0.40
  -4   6  16    0.01    0.34
  -4   6  16    0.56    0.30
   3  -6 -16    0.70    0.31
  -3  -6  16    0.80    0.32
  -3   6  16    0.72    0.31
   3   6 -16    1.78    0.61
  -3   6  16    0.29    0.31
  -2  -6  16    0.20    0.27
  -2  -6  16    0.35    0.25
   2  -6 -16    0.44    0.27
   2   6 -16    0.03    0.23
  -2   6  16    0.07    0.30
  -2   6  16   -0.57    0.31
   2   6 -16    0.16    0.34
   1  -6 -16   -0.12    0.26
  -1  -6  16    0.80    0.29
  -1  -6  16    0.23    0.31
   1   6 -16    0.51    0.34
  -1   6  16    0.64    0.34
   1   6 -16    1.02    0.34
   0  -6  16   -0.02    0.30
   0  -6  16    0.21    0.34
   0  -6 -16    0.21    0.23
   0   6 -16   -0.26    0.32
   0   6 -16    0.06    0.43
   0   6  16    0.03    0.38
   1  -6  16    1.50    0.41
   1  -6  16    0.55    0.39
  -1   6 -16    1.78    0.40
   1   6  16    0.21    0.41
   2  -6  16    0.10    0.40
   2  -6  16    0.90    0.47
  -2   6 -16   -0.12    0.37
   2   6  16    0.41    0.43
   3  -6  16    1.83    0.42
   3  -6  16    1.75    0.44
   3   6  16    2.95    1.28
  -3   6 -16    1.17    0.55
  -7  -7  16    0.58    0.35
  -7  -7  16    0.12    0.38
  -7   7  16    0.16    0.38
   7   7 -16   -0.35    0.51
  -7   7  16    0.25    0.55
  -6  -7  16    0.90    0.34
  -6  -7  16    0.14    0.39
   6   7 -16    0.49    0.49
  -6   7  16    0.31    0.35
  -6   7  16    0.27    0.41
   5  -7 -16    0.03    0.27
  -5  -7  16    0.14    0.36
  -5  -7  16    0.14    0.30
   5   7 -16    0.71    0.44
  -5   7  16    0.24    0.47
  -5   7  16   -0.16    0.32
  -5   7  16    0.13    0.31
  -4  -7  16    0.80    0.37
  -4  -7  16    0.83    0.30
   4  -7 -16    0.89    0.34
  -4   7  16    0.53    0.32
  -4   7  16    0.40    0.34
   4   7 -16    1.79    0.44
  -3  -7  16    0.16    0.28
   3  -7 -16   -0.05    0.29
  -3  -7  16    0.67    0.28
   3   7 -16    0.22    0.28
  -3   7  16    0.01    0.34
  -3   7  16   -0.19    0.29
  -2  -7  16    0.30    0.31
  -2  -7  16    0.08    0.25
   2  -7 -16    0.73    0.27
   2   7 -16    0.85    0.34
  -2   7  16    0.39    0.37
   2   7 -16    0.48    0.37
  -2   7  16    1.20    1.15
  -1  -7  16   -0.12    0.30
  -1  -7  16    0.22    0.30
  -1   7  16    0.38    0.47
   1   7 -16    0.69    0.36
   1   7 -16   -0.07    0.31
   0  -7  16    2.39    0.40
   0  -7  16    1.69    0.42
   0   7 -16    1.63    0.43
   0   7  16    2.48    1.05
   0   7 -16    2.00    0.37
   1  -7  16   -0.01    0.32
   1  -7  16    0.41    0.35
  -1   7 -16    0.39    0.39
   1   7  16    0.54    0.45
   2  -7  16   -0.08    0.43
   2  -7  16    0.49    0.46
   2   7  16    0.27    0.48
  -2   7 -16   -0.15    1.02
  -6  -8  16    0.21    0.35
  -6  -8  16   -0.06    0.41
  -6   8  16    0.02    0.40
  -6   8  16    0.15    0.47
   6   8 -16   -0.17    0.50
  -5  -8  16    0.16    0.32
  -5  -8  16    0.18    0.32
  -5   8  16   -0.16    0.38
   5   8 -16    0.55    0.44
  -5   8  16   -0.15    0.37
  -4  -8  16    0.86    0.42
  -4  -8  16    1.50    0.37
   4  -8 -16    0.04    0.26
   4   8 -16    1.07    0.45
  -4   8  16    0.73    0.39
  -4   8  16    0.69    0.39
  -3  -8  16    0.52    0.32
  -3  -8  16    0.81    0.35
   3   8 -16    0.59    0.77
  -3   8  16    0.41    0.39
  -3   8  16    0.32    0.36
   3   8 -16    1.08    0.42
  -2  -8  16    3.16    0.41
  -2  -8  16    2.03    0.38
  -2   8  16    1.06    0.44
   2   8 -16    1.64    0.45
   2   8 -16    2.70    0.46
  -2   8  16    1.77    0.44
  -1  -8  16    0.52    0.40
  -1  -8  16    0.32    0.33
  -1  -8  16    0.12    0.34
  -1   8  16    0.07    0.41
   1   8 -16    0.16    0.37
   1   8 -16    0.05    0.35
   0  -8  16    0.10    0.30
   0  -8  16    0.06    0.39
   0  -8  16    0.25    0.37
   0   8  16   -0.35    0.43
   0   8 -16    0.01    0.39
   0   8 -16   -0.27    0.34
   1  -8  16   -0.01    0.42
   1  -8  16    0.95    0.39
   1   8  16    0.17    0.49
  -1   8 -16    0.84    0.42
  -5  -9  16    0.11    0.40
  -5  -9  16    0.41    0.28
   5   9 -16    0.58    0.52
  -4  -9  16    1.31    0.35
  -4  -9  16    1.71    0.38
   4   9 -16    0.92    0.40
  -4   9  16    1.21    0.46
  -4   9  16    0.86    0.42
   4   9 -16    1.16    0.50
  -3  -9  16    0.48    0.36
  -3  -9  16   -0.10    0.44
  -3   9  16   -0.16    0.39
   3   9 -16    0.38    0.42
  -3   9  16    0.64    0.44
   3   9 -16   -0.22    0.45
  -2  -9  16    0.32    0.35
  -2  -9  16    0.82    0.35
  -2   9  16    0.10    0.32
  -2   9  16   -0.19    0.35
   2   9 -16   -0.01    0.43
   2   9 -16   -0.34    0.43
  -1  -9  16   -0.16    0.34
  -1  -9  16   -0.50    0.38
  -1  -9  16    0.17    0.43
  -1   9  16    0.15    0.44
   1   9 -16   -0.11    0.41
   1   9 -16   -0.06    0.41
   0  -9  16    0.74    0.43
   0  -9  16   -0.21    0.44
   0   9  16    0.31    0.50
   0   9 -16   -0.15    0.43
   0   9 -16    0.18    0.48
   8   0 -17    0.70    0.51
  -8   0  17    0.48    0.41
   7   0 -17   -0.46    0.45
  -7   0  17    0.06    0.35
   6   0 -17    0.73    0.42
  -6   0  17    0.20    0.31
  -5   0  17    0.71    0.30
   5   0 -17    0.08    0.38
   4   0 -17    0.01    0.34
  -4   0  17   -0.49    0.28
   3   0 -17    2.07    0.39
  -3   0  17    1.91    0.34
  -3   0  17    1.31    0.32
   2   0 -17   -0.12    0.30
  -2   0  17    0.20    0.30
  -2   0  17    0.13    0.33
  -1   0  17    2.35    1.53
   1   0 -17    0.10    0.32
  -1   0  17    0.91    0.31
   0   0 -17    0.11    0.29
   0   0  17    0.34    0.34
  -1   0 -17    6.62    0.64
   1   0  17    4.74    0.67
   2   0  17   -0.05    0.68
  -2   0 -17   -0.10    0.32
  -3   0 -17    0.48    0.35
   3   0  17    0.19    0.39
  -8  -1  17   -0.14    0.36
   8  -1 -17   -0.18    0.49
   8   1 -17   -0.05    0.35
  -7  -1  17    2.91    0.77
   7  -1 -17    1.07    0.48
   7   1 -17    0.98    0.47
  -7   1  17    0.80    0.36
   6  -1 -17   -0.26    0.40
  -6  -1  17   -0.09    0.30
   6   1 -17    0.00    0.41
  -6   1  17    1.61    0.46
   5  -1 -17    0.78    0.37
  -5  -1  17    0.32    0.29
   5   1 -17    0.04    0.37
  -5   1  17    0.35    0.39
  -4  -1  17    1.03    0.30
   4  -1 -17    0.40    0.35
  -4   1  17    0.09    0.27
  -4   1  17    1.64    0.33
   4   1 -17    0.89    0.38
  -3  -1  17    0.25    0.28
  -3  -1  17    0.04    0.26
   3  -1 -17    0.33    0.54
  -3   1  17   -0.29    0.28
  -3   1  17   -0.13    0.28
   3   1 -17    0.19    0.34
  -2  -1  17    0.91    0.34
   2  -1 -17    1.16    0.33
  -2  -1  17    0.77    0.29
  -2   1  17    0.64    0.32
  -2   1  17    0.71    0.31
   2   1 -17    0.99    0.34
  -1  -1  17    4.87    0.52
  -1  -1  17    4.94    0.54
   1  -1 -17    4.27    0.54
   1   1 -17    4.08    0.55
  -1   1  17    5.58    0.55
  -1   1  17    3.88    0.56
   0  -1  17    0.55    0.31
   0  -1 -17    0.49    0.31
   0  -1  17    0.50    0.36
   0   1 -17    0.91    0.32
   0   1  17    0.46    0.30
   1  -1  17   -0.18    0.39
  -1  -1 -17    1.00    0.31
   1   1  17    0.57    0.34
  -1   1 -17    1.02    0.33
  -2  -1 -17    0.04    0.38
   2  -1  17    0.01    0.36
  -2   1 -17   -0.14    0.34
   2   1  17    0.47    0.35
   3  -1  17    0.03    0.48
  -3  -1 -17    0.20    0.34
  -3   1 -17   -0.12    0.35
   3   1  17   -0.24    0.48
   8  -2 -17   -0.32    0.49
  -8  -2  17    0.02    0.37
  -8  -2  17    0.06    0.37
   8   2 -17   -0.13    0.46
   7  -2 -17   -0.10    0.45
  -7  -2  17    0.46    0.35
  -7   2  17   -0.09    0.59
   7   2 -17    0.32    0.33
  -6  -2  17    1.26    0.33
   6  -2 -17    1.24    0.44
   6   2 -17   -0.03    0.42
  -6   2  17    1.19    0.34
   5  -2 -17    0.11    0.36
  -5  -2  17    0.01    0.29
   5   2 -17   -0.11    0.36
  -5   2  17    0.45    0.30
  -4  -2  17    5.09    0.53
   4  -2 -17    4.73    0.57
   4   2 -17    4.22    0.58
  -4   2  17    3.52    0.51
  -4   2  17    5.65    0.59
  -3  -2  17   -0.18    0.28
   3  -2 -17    0.34    0.33
  -3  -2  17   -0.38    0.28
  -3   2  17   -0.23    0.33
   3   2 -17    0.13    0.34
  -3   2  17    0.11    0.30
  -2  -2  17    1.13    0.38
   2  -2 -17    0.96    0.34
  -2  -2  17    1.63    0.33
   2   2 -17    1.35    0.37
  -2   2  17    1.48    0.38
  -2   2  17    1.93    0.35
  -1  -2  17    0.70    0.31
  -1  -2  17    0.04    0.32
   1  -2 -17    0.52    0.31
  -1   2  17    0.74    0.31
  -1   2  17    0.62    0.35
   1   2 -17    0.53    0.33
   0  -2  17    1.38    0.34
   0  -2 -17    1.44    0.33
   0  -2  17    1.26    0.39
   0   2  17    1.37    0.35
   0   2 -17    1.15    0.35
   1  -2  17    0.33    0.40
  -1  -2 -17   -0.06    0.35
  -1   2 -17   -0.13    0.32
   1   2  17    0.01    0.34
  -2  -2 -17    0.27    0.38
   2  -2  17    1.69    0.47
  -2   2 -17    0.48    0.37
   2   2  17    0.18    0.36
  -3  -2 -17    0.07    0.40
   3  -2  17    0.51    0.48
  -3   2 -17    0.17    0.45
   3   2  17    0.67    0.51
   8  -3 -17    1.25    0.50
  -8  -3  17    0.52    0.37
  -8   3  17   -0.07    0.40
   7  -3 -17    0.46    0.46
  -7  -3  17    0.64    0.35
   7   3 -17    0.32    0.48
  -7   3  17   -0.15    0.41
  -7   3  17   -0.40    0.43
  -6  -3  17   -0.33    0.30
   6  -3 -17    0.07    0.41
  -6   3  17   -0.53    0.32
   6   3 -17   -0.17    0.31
  -6   3  17   -0.01    0.31
   5  -3 -17    0.32    0.27
  -5  -3  17    0.27    0.29
   5   3 -17   -0.03    0.39
  -5   3  17    0.21    0.29
  -5   3  17    0.28    0.38
  -4  -3  17    0.12    0.32
   4  -3 -17   -0.11    0.34
   4   3 -17   -0.05    0.36
  -4   3  17   -0.14    0.29
  -4   3  17   -0.03    0.29
  -3  -3  17   -0.15    0.26
  -3  -3  17   -0.27    0.28
   3  -3 -17    0.00    0.31
  -3   3  17    0.35    0.29
  -3   3  17   -0.03    0.33
   3   3 -17   -0.16    0.34
  -2  -3  17    0.16    0.33
   2  -3 -17    0.22    0.31
  -2  -3  17   -0.17    0.29
  -2   3  17    0.07    0.29
  -2   3  17    0.34    0.30
   2   3 -17   -0.01    0.34
  -1  -3  17    0.59    0.34
  -1  -3  17    0.75    0.34
   1  -3 -17    1.84    0.58
  -1   3  17    0.66    0.41
   1   3 -17    0.47    0.34
   0  -3 -17    0.14    0.29
   0  -3  17   -0.68    0.35
   0  -3  17    0.51    0.37
   0   3 -17    0.57    0.33
   0   3  17    0.62    0.33
   1  -3  17    1.59    0.37
   1  -3  17    1.72    0.37
  -1  -3 -17    1.44    0.33
   1   3  17    1.01    0.40
  -1   3 -17    1.66    0.39
   2  -3  17    0.43    0.45
  -2  -3 -17    0.99    0.39
  -2   3 -17    0.41    0.45
   2   3  17    0.90    0.49
  -3  -3 -17    0.75    0.32
   3  -3  17    0.11    0.40
   3   3  17    1.28    0.54
  -3   3 -17    1.07    0.47
   8   4 -17    0.05    0.36
   7  -4 -17   -0.11    0.46
  -7  -4  17    0.15    0.40
  -7  -4  17   -0.15    0.34
   7   4 -17    0.27    0.49
  -7   4  17   -0.02    0.37
  -7   4  17   -0.71    0.44
  -6  -4  17    0.36    0.32
   6  -4 -17    0.15    0.41
  -6   4  17   -0.11    0.33
   6   4 -17    0.00    0.45
  -6   4  17    0.40    0.34
  -5  -4  17   -0.21    0.29
   5  -4 -17    0.05    0.38
  -5   4  17    0.50    0.39
   5   4 -17   -0.26    0.30
  -5   4  17    0.32    0.36
  -4  -4  17    0.61    0.30
   4  -4 -17    0.62    0.35
   4   4 -17    0.93    0.41
  -4   4  17   -0.13    0.30
  -4   4  17    0.00    0.33
  -3  -4  17    0.33    0.32
   3  -4 -17   -0.11    0.34
   3   4 -17    0.09    0.36
  -3   4  17    0.05    0.28
  -3   4  17   -0.13    0.29
  -2  -4  17    0.19    0.28
   2  -4 -17    0.61    0.32
  -2  -4  17    0.37    0.28
  -2   4  17    0.08    0.30
   2   4 -17    0.43    0.36
  -2   4  17    0.13    0.29
  -1  -4  17    0.42    0.31
   1  -4 -17    0.34    0.29
  -1  -4  17   -0.34    0.32
  -1   4  17   -0.15    0.31
   1   4 -17   -0.02    0.34
   0  -4 -17   -0.14    0.29
   0  -4  17    0.03    0.33
   0  -4  17    0.46    0.37
   0   4 -17   -0.23    0.42
   0   4  17   -0.43    0.36
   1  -4  17   -0.05    0.33
   1  -4  17    0.24    0.40
  -1  -4 -17    0.04    0.28
   1   4  17    0.82    1.03
  -1   4 -17    0.01    0.36
  -2  -4 -17    0.05    0.35
   2  -4  17    0.05    0.43
  -2   4 -17    0.03    0.37
   2   4  17   -0.23    0.51
   3  -4  17    0.29    0.37
   3   4  17   -0.25    0.57
  -3   4 -17    0.38    0.40
  -7  -5  17    0.19    0.37
  -7  -5  17    0.26    0.38
   7  -5 -17    0.18    0.48
  -7   5  17    0.01    0.36
  -7   5  17    0.22    0.47
   7   5 -17    0.65    0.50
   6  -5 -17    0.01    0.42
  -6  -5  17   -0.11    0.33
  -6  -5  17   -0.31    0.35
  -6   5  17   -0.01    0.35
   6   5 -17    0.19    0.47
  -6   5  17    0.03    0.42
  -5  -5  17   -0.12    0.30
   5  -5 -17    0.13    0.40
   5   5 -17    0.15    0.30
  -5   5  17    0.26    0.32
  -5   5  17   -0.10    0.41
   4  -5 -17    0.32    0.36
  -4  -5  17   -0.15    0.29
  -4   5  17    0.30    0.36
  -4   5  17    0.07    0.31
   4   5 -17   -0.16    0.41
   3  -5 -17   -0.26    0.31
  -3  -5  17    0.14    0.29
  -3   5  17   -0.19    0.31
  -3   5  17   -0.18    0.35
   3   5 -17    0.11    0.39
  -2  -5  17   -0.20    0.28
  -2  -5  17   -0.19    0.28
   2  -5 -17   -0.02    0.30
  -2   5  17    0.03    0.31
   2   5 -17   -0.08    0.36
  -2   5  17   -0.07    0.33
  -1  -5  17    0.44    0.33
  -1  -5  17    1.49    0.35
   1  -5 -17    1.90    0.32
  -1   5  17    0.97    0.38
   1   5 -17    0.44    0.37
   0  -5  17    0.22    0.29
   0  -5  17    0.18    0.32
   0  -5 -17   -0.45    0.27
   0   5 -17   -0.15    0.37
   0   5  17   -0.15    0.36
   1  -5  17    1.49    0.42
   1  -5  17    2.35    0.40
  -1  -5 -17    1.27    0.38
   1   5  17    0.53    0.45
  -1   5 -17    0.50    0.41
   2  -5  17    0.15    0.41
   2  -5  17    0.20    0.42
   2   5  17    0.48    0.55
  -2   5 -17   -0.48    0.37
  -7   6  17    0.09    0.31
   6  -6 -17    0.57    0.43
  -6  -6  17    0.13    0.35
  -6  -6  17    0.04    0.39
   6   6 -17   -0.11    0.34
  -6   6  17    0.07    0.48
  -6   6  17   -0.21    0.36
   5  -6 -17    0.65    0.39
  -5  -6  17   -0.21    0.31
  -5  -6  17    0.01    0.31
  -5   6  17    0.24    0.34
  -5   6  17   -0.25    0.52
   5   6 -17    0.08    0.44
  -4  -6  17    2.87    0.40
   4  -6 -17    2.81    0.46
  -4   6  17    1.69    0.41
  -4   6  17    1.72    0.40
   4   6 -17    2.44    0.50
   3  -6 -17    0.37    0.32
  -3  -6  17    0.15    0.30
   3   6 -17    0.13    0.39
  -3   6  17    0.47    0.37
  -3   6  17    0.61    0.34
  -2  -6  17    1.85    0.32
   2  -6 -17    0.79    0.31
  -2  -6  17    0.52    0.42
  -2   6  17    0.69    0.34
  -2   6  17    1.25    0.38
   2   6 -17    0.21    0.47
   1  -6 -17    0.30    0.28
  -1  -6  17   -0.22    0.33
  -1  -6  17    0.05    0.29
   1   6 -17   -0.07    0.37
  -1   6  17   -0.16    0.38
   0  -6  17   -0.14    0.40
   0  -6  17   -0.41    0.37
   0   6  17   -0.78    0.41
   0   6 -17    0.20    0.39
   1  -6  17    1.63    0.60
   1  -6  17    0.64    0.40
  -1   6 -17    0.55    0.43
   1   6  17   -0.28    0.41
   2  -6  17   -0.13    0.37
   2  -6  17    0.68    0.51
  -2   6 -17    0.85    0.43
   2   6  17    0.45    0.48
  -6  -7  17   -0.19    0.44
  -6  -7  17   -0.23    0.36
   6   7 -17    0.44    0.48
  -6   7  17   -0.21    0.43
  -6   7  17    0.63    0.57
  -5  -7  17   -0.01    0.34
  -5  -7  17   -0.65    0.40
   5  -7 -17   -0.07    0.39
  -5   7  17   -0.23    0.34
  -5   7  17    0.02    0.40
   5   7 -17    0.18    0.47
  -4  -7  17    0.58    0.31
   4  -7 -17    0.29    0.44
  -4  -7  17    0.79    0.41
   4   7 -17    0.59    0.45
  -4   7  17    0.18    0.35
  -4   7  17   -0.22    0.34
   3  -7 -17   -0.30    0.41
  -3  -7  17    0.00    0.35
  -3  -7  17   -0.21    0.38
   3   7 -17    0.08    0.42
  -3   7  17   -0.08    0.37
  -3   7  17    0.07    0.35
  -2  -7  17   -0.21    0.34
   2   7 -17    0.12    0.40
   2   7 -17    0.03    0.26
  -2   7  17   -0.04    0.33
  -2   7  17    0.13    0.37
  -1  -7  17    0.32    0.36
  -1  -7  17   -0.09    0.40
  -1   7  17    0.02    0.40
   1   7 -17   -0.11    0.40
   1   7 -17   -0.14    0.38
   0  -7  17    1.74    0.37
   0  -7  17    0.69    0.42
   0   7 -17    1.56    0.45
   0   7  17    0.34    0.45
   1  -7  17    0.95    0.38
   1  -7  17    1.45    0.49
  -1   7 -17    1.58    0.46
   1   7  17    0.99    0.51
  -5   8  17    1.59    1.15
  -4  -8  17    1.86    0.44
  -4  -8  17    3.19    1.07
   4   8 -17    1.46    0.40
  -4   8  17    0.80    0.44
  -4   8  17    1.20    0.45
  -3  -8  17   -0.06    0.45
  -3  -8  17    0.40    0.33
  -3   8  17   -0.17    0.34
  -3   8  17    0.02    0.39
   3   8 -17    0.86    0.47
  -2  -8  17   -0.16    0.43
  -2  -8  17    0.12    0.33
  -2   8  17    0.05    0.42
   2   8 -17    0.13    0.44
   2   8 -17   -0.06    0.40
  -2   8  17   -0.43    0.41
  -1  -8  17    0.17    0.38
  -1  -8  17    0.35    0.35
  -1  -8  17   -0.21    0.36
   1   8 -17   -0.09    0.42
  -1   8  17   -0.25    0.43
   1   8 -17   -0.19    0.37
   0  -8  17   -0.17    0.48
   0  -8  17   -0.01    0.38
   0  -8  17   -0.11    0.35
   0   8 -17   -0.48    0.44
   7   0 -18    0.77    0.49
  -7   0  18    0.00    0.36
  -6   0  18    0.83    0.35
   6   0 -18    0.26    0.32
   5   0 -18   -0.42    0.42
  -5   0  18    0.11    0.32
  -4   0  18    3.21    0.47
   4   0 -18    3.97    0.53
  -3   0  18    0.02    0.31
   3   0 -18   -0.03    0.34
  -3   0  18   -0.03    0.29
  -2   0  18    3.11    0.45
  -2   0  18    2.71    0.43
   2   0 -18    3.17    0.48
  -1   0  18    0.03    0.35
  -1   0  18    0.07    0.31
   1   0 -18    0.01    0.34
   0   0 -18    7.11    0.78
   0   0  18    8.13    1.57
   0   0  18    6.76    0.75
   1   0  18   -0.14    0.44
  -1   0 -18   -0.11    0.33
   2   0  18    0.32    0.50
  -2   0 -18    1.10    0.46
  -7  -1  18    0.13    0.37
   7  -1 -18    0.64    0.49
  -7   1  18   -0.03    0.36
   7   1 -18    0.50    0.47
  -6  -1  18    0.01    0.34
   6  -1 -18    0.36    0.44
   6   1 -18    0.45    0.32
  -6   1  18    0.75    0.35
   5  -1 -18    0.50    0.30
  -5  -1  18    0.10    0.32
   5   1 -18   -0.34    0.41
  -5   1  18   -0.57    0.38
  -4  -1  18    0.96    0.32
   4  -1 -18    0.46    0.38
  -4   1  18    0.21    0.33
   4   1 -18    0.50    0.40
  -3  -1  18   -0.51    0.30
  -3  -1  18   -0.16    0.31
   3  -1 -18    0.17    0.35
   3   1 -18   -0.21    0.37
  -3   1  18   -0.07    0.31
  -3   1  18    0.14    0.31
  -2  -1  18    0.17    0.33
   2  -1 -18   -0.04    0.36
  -2  -1  18    0.14    0.31
  -2   1  18   -0.09    0.33
   2   1 -18   -0.38    0.35
  -2   1  18    0.76    0.34
  -1  -1  18   -0.14    0.36
   1  -1 -18    0.19    0.34
  -1  -1  18    0.21    0.32
  -1   1  18    0.20    0.33
  -1   1  18   -0.34    0.34
   1   1 -18   -0.06    0.34
   0  -1  18    0.31    0.32
   0  -1  18    0.24    0.38
   0  -1 -18   -0.13    0.32
   0   1 -18    0.42    0.35
   0   1  18   -0.03    0.33
   1  -1  18    2.17    0.44
  -1  -1 -18    2.72    0.49
  -1   1 -18    2.36    0.43
   1   1  18    2.17    0.51
  -2  -1 -18    0.79    0.36
   2  -1  18   -0.29    0.50
   2   1  18   -0.12    0.48
  -2   1 -18    0.18    0.45
   7  -2 -18   -0.40    0.50
  -7  -2  18   -0.17    0.37
   7   2 -18    0.74    0.50
  -7   2  18    0.28    0.55
  -6  -2  18    0.06    0.32
   6  -2 -18    0.19    0.43
   6   2 -18   -0.43    0.45
  -6   2  18   -0.50    0.35
   5  -2 -18   -0.01    0.41
  -5  -2  18   -0.12    0.31
   5   2 -18    0.19    0.31
  -5   2  18   -0.16    0.32
  -4  -2  18    0.16    0.29
   4  -2 -18   -0.07    0.39
  -4   2  18    0.25    0.47
   4   2 -18    0.64    0.39
  -3  -2  18    0.04    0.30
   3  -2 -18    0.42    0.38
   3   2 -18    0.47    0.38
  -3   2  18    0.32    0.32
  -3   2  18   -0.29    0.34
  -2  -2  18    0.63    0.32
  -2  -2  18    0.19    0.35
   2  -2 -18    0.47    0.33
  -2   2  18    0.03    0.33
   2   2 -18    0.49    0.36
  -2   2  18    0.20    0.29
  -1  -2  18    0.65    0.35
  -1  -2  18    0.41    0.39
   1  -2 -18    0.55    0.33
  -1   2  18    0.01    0.37
  -1   2  18    0.30    0.33
   1   2 -18    0.38    0.36
   0  -2  18    0.93    0.43
   0  -2 -18    0.93    0.34
   0  -2  18    0.84    0.41
   0   2  18    0.62    0.37
   0   2 -18    0.74    0.37
  -1  -2 -18   -0.13    0.34
   1  -2  18    0.17    0.45
  -1   2 -18    0.32    0.37
   1   2  18   -0.10    0.36
   2  -2  18    0.59    0.49
  -2  -2 -18   -0.06    0.42
  -2   2 -18    0.04    0.38
   2   2  18   -0.14    0.41
  -7  -3  18   -0.06    0.37
   7  -3 -18   -0.49    0.48
  -7   3  18    0.51    0.43
   7   3 -18    0.72    1.18
  -6  -3  18   -0.13    0.34
   6  -3 -18    0.48    0.46
   6   3 -18   -0.09    0.47
  -6   3  18    0.29    0.37
  -6   3  18   -0.37    0.32
   5  -3 -18   -0.32    0.40
  -5  -3  18   -0.03    0.31
  -5   3  18    0.18    0.33
   5   3 -18   -0.07    0.43
   4  -3 -18    1.38    0.40
  -4  -3  18    0.68    0.32
  -4   3  18   -0.05    0.35
   4   3 -18    0.25    0.40
  -4   3  18    0.60    0.34
  -3  -3  18    1.31    0.35
   3  -3 -18    1.73    0.41
   3   3 -18    2.03    0.43
  -3   3  18    1.36    0.37
  -3   3  18    1.36    0.41
  -2  -3  18   -0.03    0.32
  -2  -3  18   -0.10    0.37
   2  -3 -18   -0.40    0.34
  -2   3  18    0.23    0.33
   2   3 -18    0.03    0.36
  -2   3  18    0.06    0.39
  -1  -3  18    0.84    0.38
  -1  -3  18    0.74    0.34
   1  -3 -18    1.14    0.35
   1   3 -18    0.98    0.38
  -1   3  18    0.80    0.35
  -1   3  18    1.37    0.37
   0  -3  18   -0.06    0.34
   0  -3  18    0.50    0.40
   0  -3 -18    0.39    0.32
   0   3  18    0.15    0.37
   0   3 -18    0.32    0.36
   1  -3  18    1.31    0.43
   1  -3  18    0.27    0.36
  -1  -3 -18    0.96    0.35
  -1   3 -18    0.89    0.40
   1   3  18    0.72    0.40
   2  -3  18    0.53    0.49
  -2  -3 -18   -0.31    0.41
   2   3  18    0.77    0.53
  -2   3 -18    0.40    0.41
   7  -4 -18   -0.12    0.34
  -7  -4  18   -0.02    0.38
  -7  -4  18   -0.06    0.39
   7   4 -18    0.43    0.37
  -7   4  18    0.36    0.95
  -6  -4  18    0.95    0.38
   6  -4 -18    0.99    0.47
   6   4 -18    1.51    0.51
  -6   4  18    0.18    0.44
  -6   4  18    0.84    0.45
   5  -4 -18    0.34    0.42
  -5  -4  18    0.62    0.34
  -5   4  18    0.15    0.35
   5   4 -18    0.37    0.47
   4  -4 -18    0.46    0.38
  -4  -4  18   -0.12    0.31
  -4   4  18    0.12    0.39
   4   4 -18    0.61    0.43
  -4   4  18    0.44    0.29
  -3  -4  18    0.08    0.35
   3  -4 -18   -0.27    0.34
  -3   4  18    0.19    0.30
   3   4 -18    0.28    0.40
  -3   4  18    0.21    0.33
  -2  -4  18    0.48    0.37
  -2  -4  18   -0.05    0.31
   2  -4 -18    0.65    0.35
  -2   4  18    0.27    0.42
  -2   4  18    0.23    0.33
   2   4 -18    0.25    0.39
  -1  -4  18    0.13    0.33
  -1  -4  18    0.05    0.33
   1  -4 -18    0.05    0.32
  -1   4  18    0.30    0.33
  -1   4  18   -0.50    0.46
   1   4 -18    0.08    0.37
   0  -4  18    0.09    0.36
   0  -4  18    0.05    0.40
   0  -4 -18    0.31    0.32
   0   4  18    0.12    0.48
   0   4 -18   -0.06    0.36
   1  -4  18    0.28    0.44
   1  -4  18   -0.03    0.36
  -1  -4 -18    0.23    0.38
   1   4  18    0.13    0.42
  -1   4 -18    0.20    0.39
   2  -4  18    1.21    0.41
   2  -4  18    2.06    0.52
  -2   4 -18    1.43    0.47
  -6  -5  18    0.07    0.41
   6  -5 -18   -0.15    0.45
  -6  -5  18   -0.27    0.37
   6   5 -18   -0.01    0.48
  -6   5  18    0.20    0.39
  -5  -5  18    0.56    0.35
   5  -5 -18    0.09    0.43
   5   5 -18   -0.30    0.47
  -5   5  18   -0.09    0.35
   4  -5 -18    0.17    0.37
  -4  -5  18    0.69    0.33
  -4   5  18    0.15    0.35
  -4   5  18    0.23    0.33
   4   5 -18   -0.05    0.47
   3  -5 -18    1.20    0.37
  -3  -5  18    0.39    0.34
  -3   5  18    0.71    0.35
  -3   5  18    0.58    0.35
   3   5 -18    1.10    0.44
   2  -5 -18   -0.37    0.33
  -2  -5  18   -0.34    0.32
  -2   5  18   -0.08    0.34
   2   5 -18    0.16    0.39
  -2   5  18   -0.11    0.34
   1  -5 -18    1.34    0.35
  -1  -5  18    1.24    0.41
  -1  -5  18    0.21    0.36
   1   5 -18    0.97    0.42
  -1   5  18    1.07    0.37
  -1   5  18    0.73    0.38
   0  -5  18    1.55    0.39
   0  -5 -18    1.32    0.35
   0  -5  18    1.29    0.43
   0   5 -18    0.80    0.51
   0   5  18    1.98    0.55
   1  -5  18    0.66    0.36
   1  -5  18    1.32    0.44
  -1   5 -18    0.11    0.43
   1   5  18   -0.12    0.47
   5  -6 -18   -0.03    0.42
  -5  -6  18    0.17    0.42
  -5  -6  18    0.54    0.37
  -5   6  18    0.13    0.37
   5   6 -18    0.09    0.49
  -4  -6  18   -0.10    0.36
   4  -6 -18   -0.01    0.41
   4   6 -18    0.07    0.48
  -4   6  18    0.05    0.36
  -4   6  18    0.01    0.33
  -3  -6  18    0.48    0.35
   3  -6 -18    0.22    0.35
  -3   6  18    0.29    0.35
   3   6 -18    0.74    0.46
  -3   6  18    0.56    0.37
  -2  -6  18   -0.20    0.32
   2  -6 -18    0.30    0.32
   2   6 -18   -0.03    0.43
  -2   6  18    0.07    0.39
  -2   6  18    0.06    0.36
  -1  -6  18    1.36    0.43
  -1  -6  18    0.44    0.41
  -1   6  18    0.49    0.41
  -1   6  18    0.98    0.39
   1   6 -18    1.09    0.44
   0  -6  18    0.64    0.47
   0  -6  18    0.21    0.43
   0   6  18    0.09    0.51
   0   6 -18   -0.29    0.40
   4  -7 -18    0.00    0.38
  -4  -7  18    0.69    0.46
  -4  -7  18    0.70    0.37
  -4   7  18   -0.05    0.44
   4   7 -18    0.83    0.51
  -3  -7  18   -0.04    0.35
  -3  -7  18    0.54    0.97
  -3   7  18    0.56    0.43
   3   7 -18   -0.16    0.47
  -3   7  18   -0.01    0.37
  -2  -7  18    0.29    0.41
  -2   7  18    0.29    0.38
  -2   7  18    0.16    0.42
   2   7 -18    0.38    0.49
  -1  -7  18    2.01    0.40
  -1  -7  18    1.30    0.59
   1   7 -18    2.03    0.50
  -1   7  18    0.82    0.42
  -6   0  19    0.17    0.37
   6   0 -19   -0.34    0.45
   5   0 -19    2.16    0.50
  -5   0  19    1.37    0.40
  -4   0  19   -0.24    0.34
   4   0 -19    0.08    0.42
   3   0 -19    2.21    0.44
  -3   0  19    2.14    0.42
  -2   0  19   -0.14    0.29
  -2   0  19   -0.28    0.32
   2   0 -19   -0.22    0.36
   1   0 -19    0.51    0.37
  -1   0  19   -0.01    0.41
  -1   0  19   -0.19    0.35
   0   0 -19   -0.23    0.37
   0   0  19    0.14    0.38
   0   0  19    0.18    0.45
  -1   0 -19    1.50    0.43
   1   0  19    1.42    0.52
  -6  -1  19    0.42    0.90
   6  -1 -19   -0.29    0.32
   6   1 -19   -0.07    0.32
  -6   1  19   -0.14    0.37
  -5  -1  19   -0.16    0.34
   5  -1 -19    0.53    0.43
  -5   1  19   -0.14    0.35
   5   1 -19    0.64    0.45
  -4  -1  19   -0.12    0.32
   4  -1 -19   -0.11    0.40
   4   1 -19    0.12    0.42
  -4   1  19    0.24    0.55
   3  -1 -19    0.45    0.40
  -3  -1  19    1.14    0.35
  -3   1  19    0.22    0.36
  -3   1  19    0.58    0.35
   3   1 -19    0.46    0.29
  -2  -1  19    0.16    0.36
   2  -1 -19    0.40    0.38
  -2  -1  19   -0.27    0.37
  -2   1  19   -0.15    0.34
   2   1 -19    0.29    0.38
  -2   1  19   -0.30    0.31
  -1  -1  19   -0.09    0.34
   1  -1 -19    0.47    0.36
  -1  -1  19   -0.31    0.37
  -1   1  19   -0.73    0.41
   1   1 -19   -0.10    0.36
  -1   1  19   -0.09    0.34
   0  -1  19    2.98    0.51
   0  -1  19    2.78    0.56
   0  -1 -19    2.97    0.48
   0   1  19    3.77    0.68
   0   1  19    4.03    0.52
   0   1 -19    2.93    0.50
  -1  -1 -19    0.10    0.46
   1  -1  19    0.11    0.50
   1   1  19   -0.34    0.48
  -1   1 -19   -0.17    0.38
   6  -2 -19   -0.03    0.47
  -6  -2  19    0.02    0.37
   6   2 -19   -0.09    0.46
  -6   2  19    0.20    0.39
   5  -2 -19    0.48    0.43
  -5  -2  19   -0.09    0.35
   5   2 -19    0.25    0.44
  -5   2  19    0.12    0.35
   4  -2 -19   -0.62    0.41
  -4  -2  19   -0.05    0.36
  -4   2  19    0.71    0.37
   4   2 -19    0.08    0.42
  -3  -2  19    0.44    0.39
   3  -2 -19   -0.44    0.39
  -3   2  19   -0.10    0.37
   3   2 -19   -0.13    0.41
  -3   2  19    0.44    0.35
  -2  -2  19    0.24    0.36
  -2  -2  19    0.11    0.37
   2  -2 -19   -0.72    0.36
   2   2 -19    0.11    0.39
  -2   2  19    0.36    0.41
  -2   2  19    0.42    0.54
  -1  -2  19    0.17    0.41
  -1  -2  19   -0.16    0.36
   1  -2 -19    0.78    0.37
   1   2 -19    0.58    0.40
  -1   2  19   -0.36    0.42
  -1   2  19    0.64    0.38
   0  -2  19    0.16    0.37
   0  -2  19   -0.07    0.36
   0  -2 -19    0.02    0.35
   0   2 -19    0.28    0.39
   0   2  19    0.02    0.36
  -1  -2 -19   -0.01    0.35
   1  -2  19    0.59    0.50
   1  -2  19    0.16    0.40
   1   2  19   -0.34    0.41
  -1   2 -19    0.18    0.39
  -6  -3  19    0.48    0.42
   6  -3 -19    1.60    0.51
   6   3 -19   -0.03    1.15
  -6   3  19    0.86    0.41
  -5  -3  19    0.26    0.41
   5  -3 -19   -0.05    0.42
  -5   3  19    0.02    0.36
   5   3 -19    0.02    0.46
   4  -3 -19    0.59    0.42
  -4  -3  19    0.41    0.40
   4   3 -19    0.10    0.44
  -4   3  19   -0.11    0.36
   3  -3 -19    0.76    0.39
  -3  -3  19    0.58    0.40
   3   3 -19    0.17    0.42
  -3   3  19    0.44    0.37
  -3   3  19   -0.05    0.41
   2  -3 -19   -0.90    0.38
  -2  -3  19   -0.31    0.35
  -2   3  19    0.00    0.43
  -2   3  19   -0.03    0.36
   2   3 -19   -0.19    0.40
  -1  -3  19    0.64    0.39
   1  -3 -19    1.05    0.36
  -1  -3  19    0.76    0.37
  -1   3  19   -0.04    0.45
  -1   3  19    0.32    0.39
   1   3 -19    0.32    0.41
   0  -3 -19    1.16    0.38
   0  -3  19    0.94    0.40
   0  -3  19    0.32    0.43
   0   3 -19    1.11    0.43
   0   3  19    1.29    0.51
   5  -4 -19    0.20    0.44
  -5  -4  19    0.99    0.44
  -5   4  19   -0.01    0.43
   5   4 -19   -0.04    0.50
  -4  -4  19    0.32    0.37
   4  -4 -19    0.58    0.40
   4   4 -19    0.15    0.46
  -4   4  19   -0.05    0.38
  -3  -4  19    4.36    0.51
   3  -4 -19    3.03    0.52
  -3   4  19    3.90    0.58
   3   4 -19    3.90    0.59
  -3   4  19    2.50    0.51
  -2  -4  19   -0.14    0.36
   2  -4 -19   -0.21    0.35
  -2   4  19    0.23    0.39
  -2   4  19   -0.08    0.48
   2   4 -19    0.13    0.44
  -1  -4  19    0.21    0.47
   1  -4 -19    1.34    0.39
  -1  -4  19    1.04    0.44
  -1   4  19    0.47    0.41
  -1   4  19    0.73    0.40
   1   4 -19    0.38    0.42
   0  -4 -19    0.11    0.34
   0  -4  19   -0.13    0.43
   0  -4  19    0.22    0.45
   0   4  19   -0.14    0.43
   0   4 -19   -0.58    0.42
   4  -5 -19   -0.48    0.39
  -4  -5  19    0.25    0.37
  -4   5  19    0.62    0.45
   4   5 -19    1.24    1.29
   3  -5 -19    0.36    0.37
  -3  -5  19    0.17    0.37
   3   5 -19    0.19    0.46
  -3   5  19   -0.20    0.35
  -3   5  19    0.15    0.39
   2  -5 -19   -0.18    0.35
  -2  -5  19    0.16    0.37
   2   5 -19    0.42    0.45
  -2   5  19    0.22    0.40
  -2   5  19   -0.24    0.39
   1  -5 -19   -0.03    0.33
  -1  -5  19    0.50    0.40
  -1  -5  19    0.14    0.41
  -1   5  19   -0.35    0.44
   1   5 -19    0.25    0.42
  -1   5  19    0.09    0.40
   5   0 -20    0.06    0.47
  -5   0  20    0.08    0.64
  -4   0  20    3.43    1.37
   3   0 -20    0.08    0.42
  -3   0  20   -0.46    0.37
   2   0 -20    0.06    0.44
  -2   0  20   -0.09    0.42
  -2   0  20    0.15    0.39
  -1   0  20    0.53    0.46
  -1   0  20    0.17    0.41
   1   0 -20    0.39    0.41
  -5  -1  20    0.12    0.38
  -5   1  20   -0.26    0.38
  -4  -1  20    0.45    0.38
   4  -1 -20    0.29    0.44
   4   1 -20    0.48    0.48
  -4   1  20    1.88    1.01
  -3  -1  20   -0.06    0.37
   3  -1 -20    0.32    0.44
   3   1 -20    0.19    0.43
  -3   1  20   -0.01    0.39
  -2  -1  20    0.29    0.40
   2  -1 -20    0.08    0.41
  -2   1  20    1.35    1.49
  -2   1  20   -0.07    0.42
   2   1 -20   -0.49    0.42
   1  -1 -20   -0.11    0.40
  -1  -1  20    0.48    0.50
  -1  -1  20    0.26    0.41
  -1   1  20    1.06    0.48
  -1   1  20    0.84    0.46
   1   1 -20    0.94    0.43
   4  -2 -20   -0.19    0.44
  -4  -2  20   -0.28    0.36
  -4   2  20    0.02    0.40
   4   2 -20    0.04    0.45
  -3  -2  20    1.07    0.40
   3  -2 -20    0.62    0.42
   3   2 -20    1.08    0.48
  -3   2  20    0.65    0.41
  -2  -2  20    0.15    0.45
   2  -2 -20    0.07    0.41
  -2   2  20    0.15    0.44
  -2   2  20    3.00    1.04
   2   2 -20    0.97    0.45
   3  -3 -20    0.81    0.42
  -3  -3  20    0.42    0.36
  -3   3  20    0.37    0.41
   3   3 -20    0.75    0.48
  -2  -3  20    0.22    0.31
   0   0   0    0.00    0.00
;
_shelx_hkl_checksum   63087

