data_x13372 

# start Validation Reply Form
_vrf_PLAT015_I
;
PROBLEM: No _shelx_hkl_file record in SHELXL20xy CIF ...      Please Do ! 
RESPONSE: CheckCIF is sorely mistaken.  The 'hkl' file was indeed embedded 
in the CIF (see within the file!).  The checksums will verify that everything 
is in place and unadulterated.
;
# end Validation Reply Form

_audit_creation_method            SHELXL-2013 
# CIF file edited on-the-fly by script CIFFIX (S. Parkin, 2013). 
# CIFFIX: http://xray.uky.edu/people/parkin/programs/ciffix 
 
_publ_section_exptl_refinement 
; 
H atoms were found in difference Fourier maps and subsequently placed 
at idealized positions with constrained distances of 0.98 \%A (RCH~3~), 
1.00 \%A (R~3~CH) and 0.95 \%A (C~sp2~H).  U~iso~(H) values were set to 
either 1.2U~eq~ or 1.5U~eq~ (RCH~3~) of the attached atom. 

To ensure satisfactory refinement of disordered groups in the structure, 
a combination of constraints and restraints were employed. The constraints 
(SHELXL command EADP) were used to fix parameters of superimposed or 
partially overlapping fragments. Restraints (SHELXL commands SAME and RIGU) 
were used to maintain the integrity of ill-defined or disordered groups. 

The ellipsoids seem to be elongated in one direction.  This is perhaps a 
consequence of the disorder of the side chains causing displacement of the 
anthracene backbone.
; 
 
_publ_section_references 
; 
Bruker-AXS (2006). 
  <i>APEX2</i> Bruker-AXS Inc., Madison, Wisconsin, USA. 
 
Hope, H. (1994). 
  <i>Prog. Inorg. Chem.</i> <b>41</b>, 1--19. 
 
Parkin, S. & Hope, H. (1998). 
  <i>J. Appl. Cryst.</i> <b>31</b>, 945--953. 
 
Parkin, S. (2000). 
  <i>Acta Cryst.</i> A<b>56</b>, 157--162. 
 
Parkin, S. (2013). 
  <i>CIFFIX</i>, http://xray.uky.edu/people/parkin/programs/ciffix 
 
Sheldrick, G.M. (2008a). 
  <i>Acta Cryst.</i> <b>A</b>64, 112--122. 
 
Sheldrick, G.M. (2008b). 
  <i>SADABS</i> University of G\"ottingen, Germany. 
 
Spek, A.L. (2009). 
  <i>Acta Cryst.</i> <b>D</b>65, 148--155. 
; 
 
_chemical_name_systematic 
; 
 ? 
; 
_chemical_name_common             ? 
_chemical_melting_point           ? 
_chemical_formula_moiety          'C40 H46 N4 Si2' 
_chemical_formula_sum             'C40 H46 N4 Si2' 
_chemical_formula_weight          638.99 
 
loop_ 
 _atom_type_symbol 
 _atom_type_description 
 _atom_type_scat_dispersion_real 
 _atom_type_scat_dispersion_imag 
 _atom_type_scat_source 
 'C'  'C'   0.0181   0.0091 
 'International Tables Vol C Tables 4.2.6.8 and 6.1.1.4' 
 'H'  'H'   0.0000   0.0000 
 'International Tables Vol C Tables 4.2.6.8 and 6.1.1.4' 
 'N'  'N'   0.0311   0.0180 
 'International Tables Vol C Tables 4.2.6.8 and 6.1.1.4' 
 'Si'  'Si'   0.2541   0.3302 
 'International Tables Vol C Tables 4.2.6.8 and 6.1.1.4' 
 
_space_group_crystal_system       triclinic 
_space_group_IT_number            2 
_space_group_name_H-M_alt         'P -1' 
_space_group_name_Hall            '-P 1' 
 
_shelx_space_group_comment 
; 
The symmetry employed for this shelxl refinement is uniquely defined 
by the following loop, which should always be used as a source of 
symmetry information in preference to the above space-group names. 
They are only intended as comments. 
; 
 
loop_ 
 _space_group_symop_operation_xyz 
 'x, y, z' 
 '-x, -y, -z' 
 
_cell_length_a                    8.1892(2) 
_cell_length_b                    8.4696(2) 
_cell_length_c                    14.2025(3) 
_cell_angle_alpha                 107.193(2) 
_cell_angle_beta                  99.784(2) 
_cell_angle_gamma                 91.845(2) 
_cell_volume                      923.81(4) 
_cell_formula_units_Z             1 
_cell_measurement_temperature     90.0(2) 
_cell_measurement_reflns_used     5654 
_cell_measurement_theta_min       3.32 
_cell_measurement_theta_max       68.69 
 
_exptl_crystal_description        tablet 
_exptl_crystal_colour             orange 
_exptl_crystal_density_meas       ? 
_exptl_crystal_density_method     ? 
_exptl_crystal_density_diffrn     1.149 
_exptl_crystal_F_000              342 
_exptl_transmission_factor_min    ? 
_exptl_transmission_factor_max    ? 
_exptl_crystal_size_max           0.180 
_exptl_crystal_size_mid           0.080 
_exptl_crystal_size_min           0.020 
_exptl_absorpt_coefficient_mu     1.110 
_shelx_estimated_absorpt_T_min    0.825 
_shelx_estimated_absorpt_T_max    0.978 
_exptl_absorpt_correction_type    multi-scan 
_exptl_absorpt_correction_T_min   0.723 
_exptl_absorpt_correction_T_max   0.942 
_exptl_absorpt_process_details    '<i>SADABS</i> (Sheldrick, 2008b)' 
 
_exptl_special_details 
; 
The crystal was mounted with polyisobutene oil on the tip of a fine glass 
fibre, fastened in a copper mounting pin with electrical solder.  It was 
placed directly into the cold stream of a liquid nitrogen based cryostat, 
according to published methods (Hope, 1994; Parkin & Hope, 1998). 
 
Diffraction data were collected with the crystal at 90K, which is standard 
practice in this laboratory for the majority of flash-cooled crystals. 
; 
 
_diffrn_ambient_temperature       90.0(2) 
_diffrn_radiation_wavelength      1.54178 
_diffrn_radiation_type            CuK\a 
_diffrn_source                    'fine-focus rotating anode' 
_diffrn_measurement_device_type   'Bruker X8 Proteum diffractometer' 
_diffrn_measurement_method        '\f and \w scans' 
_diffrn_detector_area_resol_mean  5.6 
_diffrn_reflns_number             11412 
_diffrn_reflns_av_unetI/netI      0.0342 
_diffrn_reflns_av_R_equivalents   0.0437 
_diffrn_reflns_limit_h_min        -4 
_diffrn_reflns_limit_h_max        9 
_diffrn_reflns_limit_k_min        -10 
_diffrn_reflns_limit_k_max        10 
_diffrn_reflns_limit_l_min        -17 
_diffrn_reflns_limit_l_max        16 
_diffrn_reflns_theta_min          3.316 
_diffrn_reflns_theta_max          68.736 
_diffrn_reflns_theta_full         67.679 
_diffrn_measured_fraction_theta_max                0.958 
_diffrn_measured_fraction_theta_full               0.974 
_diffrn_reflns_Laue_measured_fraction_max          0.958 
_diffrn_reflns_Laue_measured_fraction_full         0.974 
_diffrn_reflns_point_group_measured_fraction_max   0.958 
_diffrn_reflns_point_group_measured_fraction_full  0.974 
 
_reflns_number_total              3273 
_reflns_number_gt                 2590 
_reflns_threshold_expression      'I > 2\s(I)' 
_reflns_Friedel_coverage          0.000 
_reflns_Friedel_fraction_max      . 
_reflns_Friedel_fraction_full     . 
 
_reflns_special_details 
; 
Reflections were merged by SHELXL according to the crystal 
class for the calculation of statistics and refinement. 
 
_reflns_Friedel_fraction is defined as the number of unique 
Friedel pairs measured divided by the number that would be 
possible theoretically, ignoring centric projections and 
systematic absences. 
; 
 
_computing_data_collection        '<i>APEX2</i> (Bruker-AXS, 2006)' 
_computing_cell_refinement        '<i>APEX2</i> (Bruker-AXS, 2006)' 
_computing_data_reduction         '<i>APEX2</i> (Bruker-AXS, 2006)' 
_computing_structure_solution     '<i>SHELXS-97</i> (Sheldrick, 2008a)' 
_computing_structure_refinement   '<i>SHELXL-2013</i> (Sheldrick, 2008a)' 
_computing_molecular_graphics     '<i>XP in SHELXTL</i> (Sheldrick, 2008a)' 
_computing_publication_material 
'<i>SHELX</i> (Sheldrick, 2008a) and <i>CIFFIX</i> (Parkin, 2013)' 
 
_refine_special_details 
; 
Refinement progress was checked using <i>Platon</i> (Spek, 2009) and by 
an <i>R</i>-tensor (Parkin, 2000). The final model was further checked 
with the IUCr utility <i>checkCIF</i>. 
; 
 
_refine_ls_structure_factor_coef  Fsqd 
_refine_ls_matrix_type            full 
_refine_ls_weighting_scheme       calc 
_refine_ls_weighting_details 
'w=1/[\s^2^(Fo^2^)+(0.1062P)^2^+0.5912P] where P=(Fo^2^+2Fc^2^)/3' 
_atom_sites_solution_primary      direct 
_atom_sites_solution_secondary    difmap 
_atom_sites_solution_hydrogens    geom 
_refine_ls_hydrogen_treatment     constr 
_refine_ls_extinction_method      none 
_refine_ls_extinction_coef        . 
_refine_ls_number_reflns          3273 
_refine_ls_number_parameters      234 
_refine_ls_number_restraints      42 
_refine_ls_R_factor_all           0.0813 
_refine_ls_R_factor_gt            0.0660 
_refine_ls_wR_factor_ref          0.2026 
_refine_ls_wR_factor_gt           0.1854 
_refine_ls_goodness_of_fit_ref    1.058 
_refine_ls_restrained_S_all       1.055 
_refine_ls_shift/su_max           0.000 
_refine_ls_shift/su_mean          0.000 
 
loop_ 
 _atom_site_label 
 _atom_site_type_symbol 
 _atom_site_fract_x 
 _atom_site_fract_y 
 _atom_site_fract_z 
 _atom_site_U_iso_or_equiv 
 _atom_site_adp_type 
 _atom_site_occupancy 
 _atom_site_site_symmetry_order 
 _atom_site_calc_flag 
 _atom_site_refinement_flags_posn 
 _atom_site_refinement_flags_adp 
 _atom_site_refinement_flags_occupancy 
 _atom_site_disorder_assembly 
 _atom_site_disorder_group 
Si1 Si 0.11056(11) 0.61263(12) 0.82208(6) 0.0579(3) Uani 1 1 d . . . . . 
C1 C 0.3942(3) 0.5298(4) 0.57174(19) 0.0506(7) Uani 1 1 d . . . . . 
C2 C 0.4963(3) 0.3975(4) 0.56202(19) 0.0502(7) Uani 1 1 d . . . . . 
C3 C 0.4961(3) 0.2915(4) 0.62279(19) 0.0517(7) Uani 1 1 d . . . . . 
H3 H 0.4246 0.3098 0.6704 0.062 Uiso 1 1 calc R U . . . 
C4 C 0.5948(4) 0.1652(4) 0.61488(19) 0.0516(7) Uani 1 1 d . . . . . 
C5 C 0.7053(3) 0.1363(4) 0.5438(2) 0.0525(7) Uani 1 1 d . . . . . 
C6 C 0.7080(3) 0.2342(4) 0.48424(19) 0.0515(7) Uani 1 1 d . . . . . 
H6 H 0.7806 0.2137 0.4372 0.062 Uiso 1 1 calc R U . . . 
C7 C 0.6047(3) 0.3670(4) 0.49038(19) 0.0501(7) Uani 1 1 d . . . . . 
C8 C 0.2939(4) 0.5614(4) 0.6475(2) 0.0532(7) Uani 1 1 d . . . . . 
C9 C 0.2188(4) 0.5842(4) 0.7148(2) 0.0560(8) Uani 1 1 d . . . . . 
C10 C -0.1282(6) 0.6024(7) 0.7617(4) 0.0467(9) Uani 0.555(4) 1 d D U P A 1 
H10 H -0.1580 0.4894 0.7120 0.056 Uiso 0.555(4) 1 calc R U P A 1 
C11 C -0.1529(9) 0.7263(10) 0.7027(5) 0.0686(15) Uani 0.555(4) 1 d D U P A 1 
H11A H -0.2689 0.7135 0.6679 0.103 Uiso 0.555(4) 1 calc R U P A 1 
H11B H -0.0794 0.7059 0.6534 0.103 Uiso 0.555(4) 1 calc R U P A 1 
H11C H -0.1262 0.8393 0.7489 0.103 Uiso 0.555(4) 1 calc R U P A 1 
C12 C -0.2392(13) 0.6197(12) 0.8388(6) 0.060(2) Uani 0.555(4) 1 d D U P A 1 
H12A H -0.2067 0.7249 0.8925 0.090 Uiso 0.555(4) 1 calc R U P A 1 
H12B H -0.2274 0.5274 0.8672 0.090 Uiso 0.555(4) 1 calc R U P A 1 
H12C H -0.3553 0.6179 0.8066 0.090 Uiso 0.555(4) 1 calc R U P A 1 
C10' C -0.0831(8) 0.7027(9) 0.8000(5) 0.0467(9) Uani 0.445(4) 1 d D U P A 2 
H10' H -0.0591 0.8248 0.8139 0.056 Uiso 0.445(4) 1 calc R U P A 2 
C11' C -0.1589(11) 0.6262(12) 0.6897(6) 0.0686(15) Uani 0.445(4) 1 d D U P A 2 
H11D H -0.0804 0.6464 0.6487 0.103 Uiso 0.445(4) 1 calc R U P A 2 
H11E H -0.2621 0.6764 0.6740 0.103 Uiso 0.445(4) 1 calc R U P A 2 
H11F H -0.1831 0.5064 0.6751 0.103 Uiso 0.445(4) 1 calc R U P A 2 
C12' C -0.2036(18) 0.6746(17) 0.8662(8) 0.060(2) Uani 0.445(4) 1 d D U P A 2 
H12D H -0.1525 0.7252 0.9370 0.090 Uiso 0.445(4) 1 calc R U P A 2 
H12E H -0.2288 0.5553 0.8528 0.090 Uiso 0.445(4) 1 calc R U P A 2 
H12F H -0.3067 0.7255 0.8511 0.090 Uiso 0.445(4) 1 calc R U P A 2 
C13 C 0.2568(7) 0.7834(6) 0.9305(4) 0.0539(11) Uani 0.628(4) 1 d D U P A 1 
H13 H 0.3706 0.7437 0.9361 0.065 Uiso 0.628(4) 1 calc R U P A 1 
C14 C 0.2697(9) 0.9486(7) 0.9069(4) 0.0721(14) Uani 0.628(4) 1 d D U P A 1 
H14A H 0.1609 0.9936 0.9035 0.108 Uiso 0.628(4) 1 calc R U P A 1 
H14B H 0.3054 0.9300 0.8424 0.108 Uiso 0.628(4) 1 calc R U P A 1 
H14C H 0.3511 1.0276 0.9599 0.108 Uiso 0.628(4) 1 calc R U P A 1 
C15 C 0.2045(10) 0.8100(15) 1.0326(6) 0.070(2) Uani 0.628(4) 1 d D U P A 1 
H15A H 0.2838 0.8926 1.0847 0.105 Uiso 0.628(4) 1 calc R U P A 1 
H15B H 0.2032 0.7049 1.0484 0.105 Uiso 0.628(4) 1 calc R U P A 1 
H15C H 0.0931 0.8494 1.0299 0.105 Uiso 0.628(4) 1 calc R U P A 1 
C13' C 0.1621(11) 0.8149(11) 0.9102(6) 0.0539(11) Uani 0.372(4) 1 d D U P A 2 
H13' H 0.0893 0.8939 0.8871 0.065 Uiso 0.372(4) 1 calc R U P A 2 
C14' C 0.3423(13) 0.8722(13) 0.9169(7) 0.0721(14) Uani 0.372(4) 1 d D U P A 2 
H14D H 0.3606 0.8711 0.8504 0.108 Uiso 0.372(4) 1 calc R U P A 2 
H14E H 0.4149 0.7973 0.9414 0.108 Uiso 0.372(4) 1 calc R U P A 2 
H14F H 0.3678 0.9850 0.9634 0.108 Uiso 0.372(4) 1 calc R U P A 2 
C15' C 0.137(2) 0.819(3) 1.0176(11) 0.070(2) Uani 0.372(4) 1 d D U P A 2 
H15D H 0.0207 0.7829 1.0150 0.105 Uiso 0.372(4) 1 calc R U P A 2 
H15E H 0.1637 0.9323 1.0634 0.105 Uiso 0.372(4) 1 calc R U P A 2 
H15F H 0.2100 0.7444 1.0418 0.105 Uiso 0.372(4) 1 calc R U P A 2 
C16 C 0.1275(3) 0.4184(4) 0.85873(19) 0.0477(6) Uani 1 1 d . . . . . 
H16 H 0.0678 0.4310 0.9160 0.057 Uiso 1 1 calc R U . . . 
C17 C 0.0452(4) 0.2651(5) 0.7747(2) 0.0688(9) Uani 1 1 d . . . . . 
H17A H 0.0934 0.2555 0.7148 0.103 Uiso 1 1 calc R U . . . 
H17B H -0.0745 0.2751 0.7591 0.103 Uiso 1 1 calc R U . . . 
H17C H 0.0638 0.1662 0.7960 0.103 Uiso 1 1 calc R U . . . 
C18 C 0.3091(4) 0.3925(5) 0.8957(2) 0.0621(8) Uani 1 1 d . . . . . 
H18A H 0.3135 0.2872 0.9112 0.093 Uiso 1 1 calc R U . . . 
H18B H 0.3559 0.4838 0.9562 0.093 Uiso 1 1 calc R U . . . 
H18C H 0.3737 0.3898 0.8432 0.093 Uiso 1 1 calc R U . . . 
C19 C 0.5869(4) 0.0610(5) 0.6788(2) 0.0645(9) Uani 1 1 d . . . . . 
N1 N 0.5769(5) -0.0202(5) 0.7281(3) 0.0845(10) Uani 1 1 d . . . . . 
C20 C 0.8059(5) -0.0042(6) 0.5338(3) 0.0758(10) Uani 1 1 d . . . . . 
N2 N 0.8845(5) -0.1175(6) 0.5261(3) 0.1011(12) Uani 1 1 d . . . . . 
 
loop_ 
 _atom_site_aniso_label 
 _atom_site_aniso_U_11 
 _atom_site_aniso_U_22 
 _atom_site_aniso_U_33 
 _atom_site_aniso_U_23 
 _atom_site_aniso_U_13 
 _atom_site_aniso_U_12 
Si1 0.0692(6) 0.0833(6) 0.0409(5) 0.0313(4) 0.0385(4) 0.0230(4) 
C1 0.0482(15) 0.077(2) 0.0295(13) 0.0139(12) 0.0201(11) 0.0035(13) 
C2 0.0480(14) 0.0771(19) 0.0289(13) 0.0147(12) 0.0194(11) 0.0032(13) 
C3 0.0512(15) 0.076(2) 0.0303(13) 0.0133(13) 0.0203(11) -0.0014(13) 
C4 0.0526(15) 0.0712(19) 0.0316(13) 0.0139(12) 0.0142(11) -0.0022(13) 
C5 0.0479(15) 0.076(2) 0.0343(14) 0.0140(13) 0.0142(11) 0.0039(13) 
C6 0.0462(14) 0.078(2) 0.0327(13) 0.0139(13) 0.0198(11) 0.0071(13) 
C7 0.0478(15) 0.078(2) 0.0276(12) 0.0146(12) 0.0177(11) 0.0028(13) 
C8 0.0543(16) 0.078(2) 0.0347(14) 0.0206(13) 0.0226(12) 0.0084(13) 
C9 0.0613(17) 0.079(2) 0.0393(15) 0.0259(14) 0.0256(13) 0.0139(14) 
C10 0.054(2) 0.055(3) 0.037(2) 0.0154(19) 0.0209(19) 0.010(2) 
C11 0.063(2) 0.078(4) 0.069(3) 0.034(4) 0.004(2) 0.001(4) 
C12 0.060(5) 0.069(7) 0.052(4) 0.008(4) 0.028(4) 0.013(3) 
C10' 0.054(2) 0.055(3) 0.037(2) 0.0154(19) 0.0209(19) 0.010(2) 
C11' 0.063(2) 0.078(4) 0.069(3) 0.034(4) 0.004(2) 0.001(4) 
C12' 0.060(5) 0.069(7) 0.052(4) 0.008(4) 0.028(4) 0.013(3) 
C13 0.069(3) 0.063(3) 0.046(2) 0.0264(18) 0.034(2) 0.025(2) 
C14 0.105(4) 0.068(4) 0.058(3) 0.029(3) 0.037(3) 0.018(2) 
C15 0.095(7) 0.083(3) 0.045(3) 0.023(3) 0.039(4) 0.019(5) 
C13' 0.069(3) 0.063(3) 0.046(2) 0.0264(18) 0.034(2) 0.025(2) 
C14' 0.105(4) 0.068(4) 0.058(3) 0.029(3) 0.037(3) 0.018(2) 
C15' 0.095(7) 0.083(3) 0.045(3) 0.023(3) 0.039(4) 0.019(5) 
C16 0.0450(14) 0.0720(18) 0.0296(12) 0.0173(12) 0.0138(10) 0.0028(12) 
C17 0.067(2) 0.088(2) 0.0477(18) 0.0142(17) 0.0138(15) -0.0063(17) 
C18 0.0528(17) 0.097(2) 0.0429(16) 0.0270(16) 0.0138(13) 0.0118(15) 
C19 0.0645(19) 0.079(2) 0.0494(18) 0.0143(17) 0.0208(15) -0.0019(16) 
N1 0.099(2) 0.098(2) 0.0637(19) 0.0272(18) 0.0303(17) -0.0010(18) 
C20 0.069(2) 0.106(3) 0.056(2) 0.024(2) 0.0212(17) 0.012(2) 
N2 0.097(3) 0.130(3) 0.085(3) 0.031(2) 0.037(2) 0.035(2) 
 
_geom_special_details 
; 
 All esds (except the esd in the dihedral angle between two l.s. planes) 
 are estimated using the full covariance matrix.  The cell esds are taken 
 into account individually in the estimation of esds in distances, angles 
 and torsion angles; correlations between esds in cell parameters are only 
 used when they are defined by crystal symmetry.  An approximate (isotropic) 
 treatment of cell esds is used for estimating esds involving l.s. planes. 
; 
 
loop_ 
 _geom_bond_atom_site_label_1 
 _geom_bond_atom_site_label_2 
 _geom_bond_distance 
 _geom_bond_site_symmetry_2 
 _geom_bond_publ_flag 
Si1 C13' 1.785(9) . ? 
Si1 C10' 1.801(7) . ? 
Si1 C9 1.850(3) . ? 
Si1 C16 1.869(3) . ? 
Si1 C13 1.960(6) . ? 
Si1 C10 1.985(5) . ? 
C1 C2 1.408(4) . ? 
C1 C8 1.431(3) . ? 
C1 C7 1.414(4) 2_666 ? 
C2 C3 1.417(4) . ? 
C2 C7 1.434(3) . ? 
C3 C4 1.352(4) . ? 
C3 H3 0.9500 . ? 
C4 C5 1.440(4) . ? 
C4 C19 1.448(5) . ? 
C5 C6 1.350(4) . ? 
C5 C20 1.456(5) . ? 
C6 C7 1.421(4) . ? 
C6 H6 0.9500 . ? 
C7 C1 1.414(4) 2_666 ? 
C8 C9 1.195(4) . ? 
C10 C11 1.522(8) . ? 
C10 C12 1.517(8) . ? 
C10 H10 1.0000 . ? 
C11 H11A 0.9800 . ? 
C11 H11B 0.9800 . ? 
C11 H11C 0.9800 . ? 
C12 H12A 0.9800 . ? 
C12 H12B 0.9800 . ? 
C12 H12C 0.9800 . ? 
C10' C12' 1.532(10) . ? 
C10' C11' 1.517(10) . ? 
C10' H10' 1.0000 . ? 
C11' H11D 0.9800 . ? 
C11' H11E 0.9800 . ? 
C11' H11F 0.9800 . ? 
C12' H12D 0.9800 . ? 
C12' H12E 0.9800 . ? 
C12' H12F 0.9800 . ? 
C13 C15 1.537(7) . ? 
C13 C14 1.536(7) . ? 
C13 H13 1.0000 . ? 
C14 H14A 0.9800 . ? 
C14 H14B 0.9800 . ? 
C14 H14C 0.9800 . ? 
C15 H15A 0.9800 . ? 
C15 H15B 0.9800 . ? 
C15 H15C 0.9800 . ? 
C13' C14' 1.517(12) . ? 
C13' C15' 1.564(12) . ? 
C13' H13' 1.0000 . ? 
C14' H14D 0.9800 . ? 
C14' H14E 0.9800 . ? 
C14' H14F 0.9800 . ? 
C15' H15D 0.9800 . ? 
C15' H15E 0.9800 . ? 
C15' H15F 0.9800 . ? 
C16 C17 1.523(4) . ? 
C16 C18 1.535(4) . ? 
C16 H16 1.0000 . ? 
C17 H17A 0.9800 . ? 
C17 H17B 0.9800 . ? 
C17 H17C 0.9800 . ? 
C18 H18A 0.9800 . ? 
C18 H18B 0.9800 . ? 
C18 H18C 0.9800 . ? 
C19 N1 1.128(5) . ? 
C20 N2 1.161(5) . ? 
 
loop_ 
 _geom_angle_atom_site_label_1 
 _geom_angle_atom_site_label_2 
 _geom_angle_atom_site_label_3 
 _geom_angle 
 _geom_angle_site_symmetry_1 
 _geom_angle_site_symmetry_3 
 _geom_angle_publ_flag 
C13' Si1 C10' 80.0(4) . . ? 
C13' Si1 C9 111.5(3) . . ? 
C10' Si1 C9 110.8(2) . . ? 
C13' Si1 C16 123.0(3) . . ? 
C10' Si1 C16 123.3(2) . . ? 
C9 Si1 C16 106.34(13) . . ? 
C9 Si1 C13 103.18(17) . . ? 
C16 Si1 C13 105.37(16) . . ? 
C9 Si1 C10 104.07(17) . . ? 
C16 Si1 C10 103.89(18) . . ? 
C13 Si1 C10 131.9(2) . . ? 
C2 C1 C8 119.0(3) . . ? 
C2 C1 C7 120.3(2) . 2_666 ? 
C8 C1 C7 120.7(3) . 2_666 ? 
C1 C2 C3 121.3(2) . . ? 
C1 C2 C7 120.6(3) . . ? 
C3 C2 C7 118.1(3) . . ? 
C4 C3 C2 121.8(2) . . ? 
C4 C3 H3 119.1 . . ? 
C2 C3 H3 119.1 . . ? 
C3 C4 C5 120.0(3) . . ? 
C3 C4 C19 118.8(2) . . ? 
C5 C4 C19 121.2(3) . . ? 
C6 C5 C4 119.8(3) . . ? 
C6 C5 C20 121.0(3) . . ? 
C4 C5 C20 119.1(3) . . ? 
C5 C6 C7 121.4(2) . . ? 
C5 C6 H6 119.3 . . ? 
C7 C6 H6 119.3 . . ? 
C1 C7 C2 119.1(3) 2_666 . ? 
C1 C7 C6 122.0(2) 2_666 . ? 
C2 C7 C6 118.9(3) . . ? 
C9 C8 C1 175.5(3) . . ? 
C8 C9 Si1 176.8(3) . . ? 
C11 C10 C12 114.1(7) . . ? 
C11 C10 Si1 109.8(4) . . ? 
C12 C10 Si1 112.0(5) . . ? 
C11 C10 H10 106.8 . . ? 
C12 C10 H10 106.8 . . ? 
Si1 C10 H10 106.8 . . ? 
C10 C11 H11A 109.5 . . ? 
C10 C11 H11B 109.5 . . ? 
H11A C11 H11B 109.5 . . ? 
C10 C11 H11C 109.5 . . ? 
H11A C11 H11C 109.5 . . ? 
H11B C11 H11C 109.5 . . ? 
C10 C12 H12A 109.5 . . ? 
C10 C12 H12B 109.5 . . ? 
H12A C12 H12B 109.5 . . ? 
C10 C12 H12C 109.5 . . ? 
H12A C12 H12C 109.5 . . ? 
H12B C12 H12C 109.5 . . ? 
C12' C10' C11' 110.8(7) . . ? 
C12' C10' Si1 112.8(8) . . ? 
C11' C10' Si1 107.1(5) . . ? 
C12' C10' H10' 108.7 . . ? 
C11' C10' H10' 108.7 . . ? 
Si1 C10' H10' 108.7 . . ? 
C10' C11' H11D 109.5 . . ? 
C10' C11' H11E 109.5 . . ? 
H11D C11' H11E 109.5 . . ? 
C10' C11' H11F 109.5 . . ? 
H11D C11' H11F 109.5 . . ? 
H11E C11' H11F 109.5 . . ? 
C10' C12' H12D 109.5 . . ? 
C10' C12' H12E 109.5 . . ? 
H12D C12' H12E 109.5 . . ? 
C10' C12' H12F 109.5 . . ? 
H12D C12' H12F 109.5 . . ? 
H12E C12' H12F 109.5 . . ? 
C15 C13 C14 110.5(5) . . ? 
C15 C13 Si1 112.5(5) . . ? 
C14 C13 Si1 111.9(4) . . ? 
C15 C13 H13 107.2 . . ? 
C14 C13 H13 107.2 . . ? 
Si1 C13 H13 107.2 . . ? 
C13 C14 H14A 109.5 . . ? 
C13 C14 H14B 109.5 . . ? 
H14A C14 H14B 109.5 . . ? 
C13 C14 H14C 109.5 . . ? 
H14A C14 H14C 109.5 . . ? 
H14B C14 H14C 109.5 . . ? 
C13 C15 H15A 109.5 . . ? 
C13 C15 H15B 109.5 . . ? 
H15A C15 H15B 109.5 . . ? 
C13 C15 H15C 109.5 . . ? 
H15A C15 H15C 109.5 . . ? 
H15B C15 H15C 109.5 . . ? 
C14' C13' C15' 108.2(9) . . ? 
C14' C13' Si1 110.2(6) . . ? 
C15' C13' Si1 111.9(10) . . ? 
C14' C13' H13' 108.8 . . ? 
C15' C13' H13' 108.8 . . ? 
Si1 C13' H13' 108.8 . . ? 
C13' C14' H14D 109.5 . . ? 
C13' C14' H14E 109.5 . . ? 
H14D C14' H14E 109.5 . . ? 
C13' C14' H14F 109.5 . . ? 
H14D C14' H14F 109.5 . . ? 
H14E C14' H14F 109.5 . . ? 
C13' C15' H15D 109.5 . . ? 
C13' C15' H15E 109.5 . . ? 
H15D C15' H15E 109.5 . . ? 
C13' C15' H15F 109.5 . . ? 
H15D C15' H15F 109.5 . . ? 
H15E C15' H15F 109.5 . . ? 
C17 C16 C18 110.0(3) . . ? 
C17 C16 Si1 112.7(2) . . ? 
C18 C16 Si1 111.8(2) . . ? 
C17 C16 H16 107.4 . . ? 
C18 C16 H16 107.4 . . ? 
Si1 C16 H16 107.4 . . ? 
C16 C17 H17A 109.5 . . ? 
C16 C17 H17B 109.5 . . ? 
H17A C17 H17B 109.5 . . ? 
C16 C17 H17C 109.5 . . ? 
H17A C17 H17C 109.5 . . ? 
H17B C17 H17C 109.5 . . ? 
C16 C18 H18A 109.5 . . ? 
C16 C18 H18B 109.5 . . ? 
H18A C18 H18B 109.5 . . ? 
C16 C18 H18C 109.5 . . ? 
H18A C18 H18C 109.5 . . ? 
H18B C18 H18C 109.5 . . ? 
N1 C19 C4 178.4(4) . . ? 
N2 C20 C5 179.1(4) . . ? 
 
loop_ 
 _geom_torsion_atom_site_label_1 
 _geom_torsion_atom_site_label_2 
 _geom_torsion_atom_site_label_3 
 _geom_torsion_atom_site_label_4 
 _geom_torsion 
 _geom_torsion_site_symmetry_1 
 _geom_torsion_site_symmetry_2 
 _geom_torsion_site_symmetry_3 
 _geom_torsion_site_symmetry_4 
 _geom_torsion_publ_flag 
C8 C1 C2 C3 2.6(4) . . . . ? 
C7 C1 C2 C3 -179.4(3) 2_666 . . . ? 
C8 C1 C2 C7 -176.9(3) . . . . ? 
C7 C1 C2 C7 1.1(5) 2_666 . . . ? 
C1 C2 C3 C4 -179.3(3) . . . . ? 
C7 C2 C3 C4 0.3(4) . . . . ? 
C2 C3 C4 C5 0.6(4) . . . . ? 
C2 C3 C4 C19 -179.4(3) . . . . ? 
C3 C4 C5 C6 -1.0(4) . . . . ? 
C19 C4 C5 C6 179.0(3) . . . . ? 
C3 C4 C5 C20 -177.7(3) . . . . ? 
C19 C4 C5 C20 2.3(5) . . . . ? 
C4 C5 C6 C7 0.5(5) . . . . ? 
C20 C5 C6 C7 177.1(3) . . . . ? 
C1 C2 C7 C1 -1.1(5) . . . 2_666 ? 
C3 C2 C7 C1 179.4(3) . . . 2_666 ? 
C1 C2 C7 C6 178.8(3) . . . . ? 
C3 C2 C7 C6 -0.7(4) . . . . ? 
C5 C6 C7 C1 -179.8(3) . . . 2_666 ? 
C5 C6 C7 C2 0.4(4) . . . . ? 
C13' Si1 C10' C12' -90.4(6) . . . . ? 
C9 Si1 C10' C12' 160.2(5) . . . . ? 
C16 Si1 C10' C12' 32.6(7) . . . . ? 
C13 Si1 C10' C12' -88.5(6) . . . . ? 
C10 Si1 C10' C12' 80.6(7) . . . . ? 
C13' Si1 C10' C11' 147.5(6) . . . . ? 
C9 Si1 C10' C11' 38.1(6) . . . . ? 
C16 Si1 C10' C11' -89.5(5) . . . . ? 
C13 Si1 C10' C11' 149.4(5) . . . . ? 
C10 Si1 C10' C11' -41.5(5) . . . . ? 
C10' Si1 C13' C14' -144.2(6) . . . . ? 
C9 Si1 C13' C14' -35.6(7) . . . . ? 
C16 Si1 C13' C14' 92.4(6) . . . . ? 
C13 Si1 C13' C14' 40.0(6) . . . . ? 
C10 Si1 C13' C14' -148.4(6) . . . . ? 
C10' Si1 C13' C15' 95.3(8) . . . . ? 
C9 Si1 C13' C15' -156.1(7) . . . . ? 
C16 Si1 C13' C15' -28.0(9) . . . . ? 
C13 Si1 C13' C15' -80.5(9) . . . . ? 
C10 Si1 C13' C15' 91.1(8) . . . . ? 
C13' Si1 C16 C17 168.8(4) . . . . ? 
C10' Si1 C16 C17 68.5(3) . . . . ? 
C9 Si1 C16 C17 -61.0(2) . . . . ? 
C13 Si1 C16 C17 -170.1(2) . . . . ? 
C10 Si1 C16 C17 48.4(3) . . . . ? 
C13' Si1 C16 C18 -66.7(4) . . . . ? 
C10' Si1 C16 C18 -167.0(3) . . . . ? 
C9 Si1 C16 C18 63.5(2) . . . . ? 
C13 Si1 C16 C18 -45.6(2) . . . . ? 
C10 Si1 C16 C18 173.0(2) . . . . ? 
 
_refine_diff_density_max    0.427 
_refine_diff_density_min   -0.477 
_refine_diff_density_rms    0.053 
 
_shelxl_version_number 2013-4 
 
_iucr_refine_instructions_details 
; 
TITL x13372 in P-1 
CELL  1.54178   8.1892   8.4696  14.2025  107.193   99.784   91.845 
ZERR    1.00   0.0002   0.0002   0.0003   0.002   0.002   0.002 
LATT  1 
SFAC C H N SI 
UNIT 40 46 4 2 
TEMP -183.000 
SIZE 0.18 0.08 0.02 
SHEL 999 0.827 
REM COLR orange 
L.S. 20 
BOND $H 
CONF 
ACTA 
LIST 4 
FMAP 2 
PLAN 10 
WGHT    0.106200    0.591200 
FVAR       0.26304   0.55508   0.62805 
SI1   4    0.110558    0.612629    0.822084    11.00000    0.06923    0.08326 = 
         0.04094    0.03135    0.03847    0.02295 
C1    1    0.394211    0.529839    0.571739    11.00000    0.04820    0.07710 = 
         0.02954    0.01387    0.02010    0.00350 
C2    1    0.496260    0.397461    0.562024    11.00000    0.04801    0.07705 = 
         0.02893    0.01470    0.01939    0.00317 
C3    1    0.496082    0.291550    0.622787    11.00000    0.05124    0.07579 = 
         0.03034    0.01334    0.02026   -0.00135 
AFIX  43 
H3    2    0.424580    0.309819    0.670394    11.00000   -1.20000 
AFIX   0 
C4    1    0.594850    0.165231    0.614884    11.00000    0.05258    0.07124 = 
         0.03164    0.01393    0.01418   -0.00221 
C5    1    0.705276    0.136295    0.543834    11.00000    0.04785    0.07591 = 
         0.03428    0.01403    0.01423    0.00394 
C6    1    0.708005    0.234153    0.484238    11.00000    0.04618    0.07835 = 
         0.03266    0.01389    0.01981    0.00714 
AFIX  43 
H6    2    0.780568    0.213708    0.437203    11.00000   -1.20000 
AFIX   0 
C7    1    0.604668    0.367030    0.490384    11.00000    0.04781    0.07779 = 
         0.02761    0.01462    0.01775    0.00276 
C8    1    0.293930    0.561390    0.647497    11.00000    0.05433    0.07822 = 
         0.03469    0.02062    0.02265    0.00835 
C9    1    0.218757    0.584213    0.714754    11.00000    0.06131    0.07905 = 
         0.03934    0.02585    0.02558    0.01385 
EADP C10 C10' 
EADP C11 C11' 
EADP C12 C12' 
SAME 0.020 C10' C11' C12' 
RIGU 0.010 C10 > C12' 
PART 1 
C10   1   -0.128156    0.602443    0.761655    21.00000    0.05404    0.05525 = 
         0.03670    0.01543    0.02091    0.00951 
AFIX  13 
H10   2   -0.158042    0.489438    0.712048    21.00000   -1.20000 
AFIX   0 
C11   1   -0.152868    0.726342    0.702725    21.00000    0.06265    0.07819 = 
         0.06891    0.03390    0.00366    0.00088 
AFIX 137 
H11A  2   -0.268865    0.713500    0.667931    21.00000   -1.50000 
H11B  2   -0.079403    0.705933    0.653425    21.00000   -1.50000 
H11C  2   -0.126243    0.839344    0.748886    21.00000   -1.50000 
AFIX   0 
C12   1   -0.239233    0.619674    0.838815    21.00000    0.05954    0.06854 = 
         0.05179    0.00770    0.02814    0.01319 
AFIX 137 
H12A  2   -0.206727    0.724850    0.892534    21.00000   -1.50000 
H12B  2   -0.227413    0.527357    0.867155    21.00000   -1.50000 
H12C  2   -0.355299    0.617942    0.806589    21.00000   -1.50000 
AFIX   0 
PART 2 
C10'  1   -0.083071    0.702664    0.799972   -21.00000    0.05404    0.05525 = 
         0.03670    0.01543    0.02091    0.00951 
AFIX  13 
H10'  2   -0.059053    0.824760    0.813884   -21.00000   -1.20000 
AFIX   0 
C11'  1   -0.158892    0.626206    0.689688   -21.00000    0.06265    0.07819 = 
         0.06891    0.03390    0.00366    0.00088 
AFIX  33 
H11D  2   -0.080362    0.646424    0.648721   -21.00000   -1.50000 
H11E  2   -0.262143    0.676381    0.673975   -21.00000   -1.50000 
H11F  2   -0.183145    0.506430    0.675135   -21.00000   -1.50000 
AFIX   0 
C12'  1   -0.203607    0.674625    0.866159   -21.00000    0.05954    0.06854 = 
         0.05179    0.00770    0.02814    0.01319 
AFIX  33 
H12D  2   -0.152474    0.725155    0.936953   -21.00000   -1.50000 
H12E  2   -0.228805    0.555267    0.852800   -21.00000   -1.50000 
H12F  2   -0.306653    0.725516    0.851068   -21.00000   -1.50000 
AFIX   0 
PART 0 
EADP C13 C13' 
EADP C14 C14' 
EADP C15 C15' 
SAME 0.020 C13' C14' C15' 
RIGU 0.010 C13 > C15' 
PART 1 
C13   1    0.256762    0.783433    0.930508    31.00000    0.06945    0.06256 = 
         0.04596    0.02643    0.03396    0.02502 
AFIX  13 
H13   2    0.370612    0.743652    0.936148    31.00000   -1.20000 
AFIX   0 
C14   1    0.269711    0.948612    0.906935    31.00000    0.10515    0.06796 = 
         0.05799    0.02878    0.03672    0.01831 
AFIX 137 
H14A  2    0.160863    0.993631    0.903530    31.00000   -1.50000 
H14B  2    0.305448    0.930004    0.842358    31.00000   -1.50000 
H14C  2    0.351081    1.027573    0.959878    31.00000   -1.50000 
AFIX   0 
C15   1    0.204460    0.809991    1.032618    31.00000    0.09454    0.08308 = 
         0.04549    0.02282    0.03949    0.01944 
AFIX 137 
H15A  2    0.283791    0.892585    1.084728    31.00000   -1.50000 
H15B  2    0.203161    0.704888    1.048361    31.00000   -1.50000 
H15C  2    0.093075    0.849436    1.029881    31.00000   -1.50000 
AFIX   0 
PART 2 
C13'  1    0.162092    0.814917    0.910231   -31.00000    0.06945    0.06256 = 
         0.04596    0.02643    0.03396    0.02502 
AFIX  13 
H13'  2    0.089273    0.893871    0.887074   -31.00000   -1.20000 
AFIX   0 
C14'  1    0.342308    0.872173    0.916945   -31.00000    0.10515    0.06796 = 
         0.05799    0.02878    0.03672    0.01831 
AFIX  33 
H14D  2    0.360624    0.871124    0.850353   -31.00000   -1.50000 
H14E  2    0.414927    0.797335    0.941410   -31.00000   -1.50000 
H14F  2    0.367801    0.985050    0.963410   -31.00000   -1.50000 
AFIX   0 
C15'  1    0.136743    0.819040    1.017630   -31.00000    0.09454    0.08308 = 
         0.04549    0.02282    0.03949    0.01944 
AFIX  33 
H15D  2    0.020683    0.782948    1.014961   -31.00000   -1.50000 
H15E  2    0.163658    0.932330    1.063361   -31.00000   -1.50000 
H15F  2    0.210008    0.744425    1.041845   -31.00000   -1.50000 
AFIX   0 
PART 0 
C16   1    0.127532    0.418396    0.858731    11.00000    0.04504    0.07204 = 
         0.02961    0.01731    0.01381    0.00277 
AFIX  13 
H16   2    0.067796    0.430954    0.916016    11.00000   -1.20000 
AFIX   0 
C17   1    0.045210    0.265120    0.774658    11.00000    0.06693    0.08761 = 
         0.04775    0.01416    0.01376   -0.00631 
AFIX 137 
H17A  2    0.093408    0.255475    0.714795    11.00000   -1.50000 
H17B  2   -0.074539    0.275075    0.759052    11.00000   -1.50000 
H17C  2    0.063785    0.166174    0.796026    11.00000   -1.50000 
AFIX   0 
C18   1    0.309067    0.392458    0.895667    11.00000    0.05282    0.09662 = 
         0.04289    0.02703    0.01379    0.01181 
AFIX 137 
H18A  2    0.313460    0.287185    0.911184    11.00000   -1.50000 
H18B  2    0.355933    0.483824    0.956183    11.00000   -1.50000 
H18C  2    0.373673    0.389811    0.843207    11.00000   -1.50000 
AFIX   0 
C19   1    0.586929    0.061033    0.678791    11.00000    0.06452    0.07937 = 
         0.04936    0.01432    0.02076   -0.00193 
N1    3    0.576854   -0.020176    0.728128    11.00000    0.09865    0.09782 = 
         0.06369    0.02723    0.03032   -0.00096 
C20   1    0.805939   -0.004246    0.533778    11.00000    0.06862    0.10613 = 
         0.05621    0.02446    0.02120    0.01163 
N2    3    0.884489   -0.117533    0.526074    11.00000    0.09667    0.12978 = 
         0.08450    0.03066    0.03684    0.03534 
 
HKLF 4 
 
REM  x13372 in P-1 
REM R1 =  0.0660 for    2590 Fo > 4sig(Fo)  and  0.0813 for all    3273 data 
REM    234 parameters refined using     42 restraints 
 
END 
 
WGHT      0.1059      0.5954 
 
REM Highest difference peak  0.427,  deepest hole -0.477,  1-sigma level  0.053 
Q1    1   0.0205  0.6259  0.7944  11.00000  0.05    0.43 
Q2    1   0.1194  0.5206  0.8269  11.00000  0.05    0.33 
Q3    1   0.1873  0.9059  0.8847  11.00000  0.05    0.30 
Q4    1   0.1787  0.5757  0.7702  11.00000  0.05    0.28 
Q5    1  -0.1920  0.7802  0.7362  11.00000  0.05    0.27 
Q6    1   0.3801  0.5647  0.5363  11.00000  0.05    0.22 
Q7    1   0.2424  0.4857  0.6793  11.00000  0.05    0.21 
Q8    1   0.2178  0.3797  0.8839  11.00000  0.05    0.20 
Q9    1   0.6698  0.1557  0.5788  11.00000  0.05    0.19 
Q10   1   0.3955  0.4291  0.5369  11.00000  0.05    0.18 
; 
_shelx_res_checksum   20709 
 
_shelx_hkl_file
;
  -1   0   0    0.64    0.05
  -1   0   0    0.64    0.05
   1   0   0    0.70    0.09
   1   0   0    0.65    0.05
   1   0   0    0.61    0.06
   1   0   0    0.73    0.09
   1   0   0    0.71    0.06
   1   0   0    0.68    0.05
   1   0   0    0.59    0.06
   1   0   0    0.64    0.06
  -2   0   0   66.41    3.03
  -2   0   0   63.83    3.03
   2   0   0   63.51    3.64
   2   0   0   66.96    3.64
   2   0   0   63.47    3.53
   2   0   0   61.92    3.52
   2   0   0   66.38    3.03
   2   0   0   62.85    3.03
   2   0   0   62.52    3.67
   2   0   0   59.78    4.16
   3   0   0   32.48    1.77
   3   0   0   28.13    2.00
   4   0   0   26.41    1.84
   4   0   0   28.94    1.63
   5   0   0   10.57    0.76
   6   0   0    2.99    0.29
   6   0   0    3.16    0.24
   6   0   0    3.02    0.32
   6   0   0    3.16    0.26
   6   0   0    3.26    0.23
   6   0   0    3.10    0.20
   7   0   0    2.35    0.24
   7   0   0    2.31    0.21
   7   0   0    2.52    0.29
   7   0   0    2.12    0.23
   8   0   0    1.37    0.20
   8   0   0    0.79    0.12
   8   0   0    1.05    0.15
   9   0   0    0.35    0.12
   9   0   0    0.21    0.09
   9   0   0    0.62    0.15
   9  -1   0   -0.10    0.11
   9  -1   0   -0.08    0.08
   8  -1   0    7.13    0.42
   8  -1   0    7.30    0.55
   8  -1   0    7.08    0.48
   8  -1   0    6.27    0.44
   7  -1   0    5.91    0.47
   7  -1   0    6.68    0.39
   7  -1   0    6.77    0.52
   7  -1   0    5.87    0.41
   6  -1   0    0.09    0.12
   6  -1   0    0.21    0.12
   6  -1   0    0.08    0.04
   6  -1   0    0.14    0.14
   6  -1   0    0.13    0.17
   6  -1   0    0.26    0.10
   5  -1   0    9.94    0.71
   5  -1   0    9.45    0.55
   5  -1   0    9.14    0.63
   4  -1   0    6.58    0.40
   4  -1   0    6.15    0.34
   4  -1   0    6.72    0.38
   4  -1   0    6.87    0.53
   4  -1   0    7.18    0.39
   4  -1   0    7.29    0.40
  -4   1   0    6.09    0.34
   3  -1   0   27.34    1.42
   3  -1   0   24.19    1.23
   3  -1   0   23.88    1.42
   3  -1   0   25.72    1.70
   3  -1   0   25.79    1.47
   3  -1   0   24.79    1.23
   3  -1   0   26.44    1.47
  -3   1   0   26.38    1.24
  -3   1   0   24.99    1.23
   2  -1   0   67.62    3.22
   2  -1   0   64.69    4.41
   2  -1   0   68.49    3.73
   2  -1   0   64.67    3.86
  -2   1   0   69.69    3.22
  -2   1   0   69.63    3.22
   1  -1   0  133.61    8.02
   1  -1   0  135.46    7.75
   1  -1   0  148.37    6.66
   1  -1   0  132.62    9.14
  -1   1   0  149.89    6.66
  -1   1   0  149.43    6.69
  -1   1   0  130.02    7.99
   0  -1   0  111.34    6.99
   0  -1   0  114.04    6.76
   0  -1   0  129.03    5.83
   0  -1   0  133.92    5.83
   0   1   0  114.84    6.78
   0   1   0  130.91    5.83
   0   1   0  124.16    5.83
   0   1   0  117.17    7.00
  -1  -1   0   18.49    0.82
  -1  -1   0   16.82    0.82
   1   1   0   17.25    0.82
   1   1   0   16.66    0.95
   1   1   0   15.55    0.98
   1   1   0   17.80    0.98
   1   1   0   15.51    0.94
   1   1   0   16.28    0.99
   1   1   0   17.60    0.82
  -2  -1   0   63.64    2.83
  -2  -1   0   60.28    2.83
   2   1   0   59.74    2.83
   2   1   0   56.08    3.39
   2   1   0   59.70    3.42
   2   1   0   58.24    2.83
   2   1   0   56.73    3.29
   2   1   0   61.80    3.29
   2   1   0   62.79    3.39
   2   1   0   54.75    3.87
  -3  -1   0    0.23    0.05
  -3  -1   0    0.17    0.04
   3   1   0    0.31    0.10
   3   1   0    0.23    0.06
   3   1   0    0.21    0.06
   3   1   0    0.28    0.07
   3   1   0    0.22    0.05
   3   1   0    0.26    0.06
   3   1   0    0.25    0.06
   3   1   0    0.38    0.15
   4   1   0    1.25    0.22
   5   1   0   11.48    0.59
   5   1   0   12.11    0.73
   5   1   0   10.57    0.80
   5   1   0    9.72    0.72
   5   1   0   11.02    0.68
   6   1   0    1.44    0.19
   6   1   0    1.13    0.15
   6   1   0    0.90    0.26
   6   1   0    1.29    0.14
   6   1   0    1.01    0.14
   6   1   0    1.35    0.13
   6   1   0    0.93    0.10
   7   1   0    1.30    0.20
   7   1   0    1.12    0.13
   7   1   0    1.33    0.17
   7   1   0    1.00    0.15
   7   1   0    1.08    0.14
   8   1   0    0.62    0.14
   8   1   0    0.81    0.18
   8   1   0    0.82    0.16
   9   1   0    0.59    0.14
   9   1   0    0.59    0.12
   9  -2   0    0.52    0.12
   9  -2   0    0.22    0.08
   8  -2   0    0.74    0.14
   8  -2   0    0.46    0.13
   8  -2   0    0.91    0.13
   7  -2   0    2.86    0.25
   7  -2   0    2.33    0.23
   7  -2   0    2.58    0.24
   7  -2   0    2.70    0.30
   6  -2   0    0.81    0.15
   6  -2   0    0.66    0.07
   6  -2   0    0.58    0.12
   6  -2   0    0.31    0.27
   6  -2   0    0.75    0.15
   6  -2   0    0.93    0.19
   5  -2   0    1.23    0.10
   5  -2   0    1.42    0.17
   5  -2   0    1.41    0.17
   5  -2   0    1.54    0.14
   5  -2   0    1.27    0.13
   5  -2   0    1.96    0.19
   5  -2   0    1.11    0.25
   4  -2   0    7.74    0.51
   4  -2   0    8.45    0.50
   4  -2   0    8.75    0.65
   3  -2   0   17.78    0.99
   3  -2   0   17.54    0.95
   3  -2   0   15.90    0.98
   3  -2   0   16.48    0.84
   3  -2   0   17.05    0.83
   3  -2   0   15.59    0.95
   3  -2   0   17.65    1.15
  -3   2   0   15.61    0.84
  -3   2   0   16.52    0.85
   2  -2   0    9.01    0.64
   2  -2   0   11.67    0.56
   2  -2   0   10.93    0.56
   2  -2   0   11.78    0.66
   2  -2   0    9.40    0.62
   2  -2   0   11.89    0.63
   2  -2   0   11.78    0.76
  -2   2   0   10.83    0.56
  -2   2   0   11.28    0.56
  -2   2   0    9.55    0.65
   1  -2   0  174.07    7.99
   1  -2   0  167.75    9.32
   1  -2   0  181.31    7.99
   1  -2   0  160.40    9.61
  -1   2   0  157.09    9.27
  -1   2   0  175.72    7.99
  -1   2   0  156.89    9.57
  -1   2   0  168.23    7.98
   0  -2   0    0.19    0.10
   0  -2   0    0.14    0.12
   0  -2   0    0.18    0.12
   0  -2   0    0.20    0.11
   0   2   0    0.10    0.13
   0   2   0    0.29    0.13
   0   2   0    0.25    0.10
   0   2   0    0.10    0.12
  -1  -2   0    6.62    0.35
  -1  -2   0    6.55    0.35
  -1  -2   0    5.90    0.39
   1   2   0    6.49    0.38
   1   2   0    5.87    0.34
   1   2   0    6.52    0.40
   1   2   0    5.85    0.41
  -2  -2   0   21.61    1.07
  -2  -2   0   24.66    1.08
   2   2   0   23.26    1.28
   2   2   0   20.18    1.27
   2   2   0   19.81    1.23
   2   2   0   23.36    1.24
   2   2   0   21.38    1.08
   2   2   0   21.19    1.07
   2   2   0   21.78    1.29
  -3  -2   0   13.28    0.74
   3   2   0   14.40    0.87
   3   2   0   16.47    0.85
   3   2   0   16.41    0.91
   3   2   0   13.88    0.74
   3   2   0   16.08    0.88
   3   2   0   14.53    0.85
   3   2   0   14.29    0.74
   4   2   0    7.95    0.54
   5   2   0    2.75    0.29
   5   2   0    2.98    0.20
   5   2   0    3.05    0.17
   5   2   0    2.61    0.14
   5   2   0    2.79    0.24
   5   2   0    3.10    0.34
   5   2   0    2.31    0.24
   6   2   0    1.30    0.16
   6   2   0    1.38    0.29
   6   2   0    1.36    0.13
   6   2   0    1.51    0.16
   6   2   0    1.46    0.18
   6   2   0    1.77    0.22
   7   2   0    4.06    0.32
   7   2   0    4.04    0.38
   7   2   0    3.79    0.32
   7   2   0    4.26    0.26
   8   2   0    0.74    0.17
   8   2   0    0.74    0.12
   8   2   0    0.71    0.12
   9   2   0    0.04    0.08
   9   2   0    0.28    0.11
   9  -3   0    0.62    0.08
   9  -3   0    0.56    0.09
   8  -3   0   -0.01    0.12
   8  -3   0    0.18    0.11
   8  -3   0    0.34    0.14
   7  -3   0    0.04    0.12
   7  -3   0   -0.02    0.10
   7  -3   0    0.00    0.06
   7  -3   0   -0.15    0.11
   6  -3   0   -0.01    0.28
   6  -3   0    0.25    0.07
   6  -3   0    0.43    0.11
   6  -3   0    0.48    0.15
   6  -3   0    0.54    0.15
   5  -3   0    2.04    0.19
   5  -3   0    1.77    0.13
   5  -3   0    1.26    0.19
   5  -3   0    1.51    0.18
   5  -3   0    1.95    0.12
   5  -3   0    1.79    0.22
   5  -3   0    1.80    0.30
   5  -3   0    1.61    0.16
   5  -3   0    1.63    0.19
   4  -3   0    0.59    0.16
   4  -3   0    0.62    0.26
   4  -3   0    0.55    0.14
   3  -3   0   51.85    2.89
   3  -3   0   51.50    3.41
   2  -3   0   17.14    0.96
   2  -3   0   17.25    0.99
   2  -3   0   16.40    0.85
   2  -3   0   16.10    0.84
   2  -3   0   17.90    1.13
  -2   3   0   15.67    0.86
  -2   3   0   15.09    0.85
   1  -3   0    5.57    0.42
   1  -3   0    5.55    0.38
   1  -3   0    5.52    0.33
   1  -3   0    5.17    0.35
   1  -3   0    5.83    0.34
  -1   3   0    5.12    0.34
  -1   3   0    5.16    0.34
  -1   3   0    4.96    0.35
  -1   3   0    5.33    0.38
   0  -3   0   19.57    0.94
   0  -3   0   18.61    1.09
   0  -3   0   19.32    0.94
   0  -3   0   16.99    1.05
   0   3   0   17.79    0.94
   0   3   0   18.85    1.09
   0   3   0   18.26    1.06
   0   3   0   17.95    1.08
   0   3   0   18.01    0.94
  -1  -3   0    4.23    0.28
  -1  -3   0    4.41    0.28
   1   3   0    4.44    0.29
   1   3   0    3.84    0.27
   1   3   0    4.30    0.32
   1   3   0    3.97    0.28
   1   3   0    4.19    0.32
   2   3   0    4.11    0.33
   2   3   0    3.76    0.28
   2   3   0    4.30    0.31
   2   3   0    4.10    0.29
   3   3   0    0.21    0.13
   3   3   0    0.20    0.11
   3   3   0    0.02    0.15
   4   3   0    0.48    0.06
   4   3   0    0.38    0.13
   4   3   0    0.62    0.07
   4   3   0    0.59    0.09
   4   3   0    0.46    0.05
   4   3   0    0.44    0.19
   4   3   0    0.43    0.11
   4   3   0    0.60    0.14
   4   3   0    0.37    0.11
   5   3   0    0.38    0.07
   5   3   0    0.44    0.06
   5   3   0    0.36    0.14
   5   3   0    0.46    0.12
   5   3   0    0.47    0.10
   5   3   0    0.32    0.21
   5   3   0    0.25    0.13
   6   3   0    1.53    0.19
   6   3   0    1.30    0.14
   6   3   0    1.83    0.26
   6   3   0    1.68    0.21
   6   3   0    1.17    0.30
   7   3   0    2.18    0.23
   7   3   0    1.92    0.23
   7   3   0    2.41    0.28
   7   3   0    2.20    0.18
   8   3   0   -0.17    0.14
   8   3   0   -0.09    0.11
   8   3   0   -0.01    0.11
   9  -4   0    1.95    0.15
   9  -4   0    1.86    0.14
   8  -4   0    1.76    0.15
   8  -4   0    1.68    0.18
   7  -4   0    0.48    0.07
   7  -4   0    0.47    0.14
   7  -4   0    0.96    0.16
   7  -4   0    0.47    0.12
   6  -4   0    0.36    0.08
   6  -4   0    0.47    0.15
   6  -4   0    0.24    0.05
   6  -4   0    0.39    0.12
   6  -4   0    0.45    0.30
   6  -4   0    0.39    0.10
   5  -4   0   13.09    0.77
   5  -4   0   13.57    0.83
   5  -4   0   11.78    0.79
   5  -4   0   13.15    0.62
   5  -4   0   12.08    0.73
   5  -4   0   12.22    0.96
   5  -4   0   12.79    0.60
   5  -4   0   11.83    0.71
   4  -4   0    8.60    0.46
   4  -4   0   10.56    0.76
   4  -4   0    9.94    0.59
   4  -4   0    9.03    0.47
   4  -4   0    9.40    0.64
   4  -4   0   10.24    0.60
   4  -4   0   10.22    0.62
   4  -4   0    9.64    0.57
   3  -4   0    2.23    0.29
   3  -4   0    2.57    0.25
   3  -4   0    2.36    0.24
   2  -4   0    1.10    0.16
   2  -4   0    1.15    0.23
   2  -4   0    0.92    0.19
   1  -4   0    8.19    0.49
   1  -4   0    9.33    0.54
   1  -4   0    8.83    0.57
   1  -4   0    9.33    0.62
   1  -4   0    7.98    0.50
  -1   4   0    7.74    0.51
  -1   4   0    8.01    0.57
  -1   4   0    8.57    0.54
   0  -4   0   22.51    1.50
   0  -4   0   22.35    1.15
   0   4   0   23.58    1.35
   0   4   0   22.80    1.30
   0   4   0   20.68    1.15
   0   4   0   22.67    1.33
   1   4   0   41.01    2.33
   1   4   0   38.89    2.25
   1   4   0   39.90    2.33
   2   4   0    0.23    0.18
   2   4   0    0.12    0.14
   2   4   0    0.21    0.16
   3   4   0    2.02    0.21
   3   4   0    2.10    0.14
   3   4   0    2.19    0.24
   3   4   0    1.98    0.13
   3   4   0    2.23    0.29
   3   4   0    1.74    0.17
   3   4   0    2.04    0.22
   4   4   0    7.88    0.42
   4   4   0    7.48    0.37
   4   4   0    7.41    0.56
   4   4   0    7.30    0.48
   4   4   0    7.57    0.36
   4   4   0    6.79    0.46
   4   4   0    7.28    0.56
   5   4   0    2.27    0.23
   5   4   0    2.32    0.19
   5   4   0    2.26    0.14
   5   4   0    1.91    0.28
   5   4   0    1.52    0.32
   6   4   0    0.15    0.10
   6   4   0   -0.02    0.05
   6   4   0    0.08    0.15
   6   4   0   -0.04    0.14
   7   4   0   -0.10    0.16
   7   4   0    0.02    0.13
   8   4   0    0.52    0.09
   8   4   0    0.79    0.14
   8  -5   0    0.28    0.10
   8  -5   0    0.26    0.08
   7  -5   0    0.21    0.09
   7  -5   0    0.23    0.06
   7  -5   0    0.21    0.12
   6  -5   0    0.34    0.10
   6  -5   0    0.40    0.08
   6  -5   0    0.31    0.08
   6  -5   0    0.22    0.06
   6  -5   0    0.26    0.11
   5  -5   0    3.86    0.21
   5  -5   0    4.01    0.26
   5  -5   0    3.94    0.27
   5  -5   0    3.30    0.44
   5  -5   0    3.68    0.22
   5  -5   0    2.74    0.30
   4  -5   0    1.47    0.13
   4  -5   0    1.20    0.22
   4  -5   0    1.44    0.11
   4  -5   0    1.23    0.13
   4  -5   0    1.68    0.15
   4  -5   0    1.15    0.23
   4  -5   0    1.54    0.32
   3  -5   0    0.61    0.09
   3  -5   0    0.34    0.10
   3  -5   0    0.60    0.07
   3  -5   0    0.50    0.19
   3  -5   0    0.65    0.25
   2  -5   0    0.48    0.19
   2  -5   0    0.63    0.17
   2  -5   0    0.60    0.20
   1  -5   0    0.62    0.19
  -1   5   0    0.60    0.18
   0   5   0   34.12    2.00
   0   5   0   35.69    2.06
   0   5   0   35.00    2.07
   1   5   0    3.49    0.30
   1   5   0    3.23    0.30
   1   5   0    2.73    0.24
   1   5   0    3.16    0.31
   2   5   0    7.19    0.35
   2   5   0    6.98    0.51
   2   5   0    7.42    0.44
   2   5   0    6.10    0.45
   2   5   0    7.55    0.51
   2   5   0    7.15    0.49
   2   5   0    6.84    0.36
   3   5   0   14.33    0.93
   3   5   0   15.75    1.00
   3   5   0   13.61    0.97
   3   5   0   14.60    0.83
   3   5   0   14.86    0.96
   3   5   0   16.49    0.73
   3   5   0   16.65    1.11
   3   5   0   15.74    0.90
   3   5   0   17.14    0.76
   4   5   0    0.77    0.09
   4   5   0    0.67    0.08
   4   5   0    0.63    0.17
   4   5   0    0.91    0.19
   4   5   0    0.81    0.12
   4   5   0    0.91    0.13
   4   5   0    0.61    0.28
   5   5   0    0.08    0.07
   5   5   0    0.02    0.09
   5   5   0    0.14    0.18
   5   5   0   -0.02    0.13
   6   5   0    0.15    0.05
   6   5   0    0.34    0.13
   6   5   0    0.34    0.09
   6   5   0    0.31    0.18
   7   5   0    0.03    0.14
   7   5   0    0.14    0.11
   8  -6   0    0.06    0.07
   7  -6   0    0.94    0.09
   7  -6   0    0.77    0.10
   6  -6   0    0.54    0.09
   6  -6   0    0.48    0.10
   6  -6   0    0.66    0.12
   6  -6   0    0.55    0.07
   5  -6   0    3.83    0.23
   5  -6   0    4.09    0.26
   5  -6   0    3.97    0.28
   5  -6   0    3.87    0.22
   4  -6   0    0.01    0.09
   4  -6   0    0.08    0.09
   4  -6   0    0.14    0.26
   4  -6   0    0.09    0.10
   4  -6   0    0.09    0.11
   3  -6   0    2.69    0.29
   3  -6   0    3.14    0.36
   3  -6   0    2.87    0.24
   3  -6   0    2.83    0.22
   3  -6   0    2.75    0.19
   3  -6   0    2.46    0.28
   2  -6   0    5.90    0.49
   2  -6   0    5.47    0.37
   0   6   0    3.70    0.29
   0   6   0    3.90    0.34
   1   6   0   -0.02    0.21
   1   6   0    0.22    0.11
   1   6   0    0.31    0.21
   1   6   0    0.24    0.09
   1   6   0   -0.18    0.22
   2   6   0    5.44    0.44
   2   6   0    5.15    0.47
   2   6   0    5.11    0.46
   2   6   0    5.95    0.30
   2   6   0    5.33    0.30
   2   6   0    5.91    0.37
   3   6   0    2.62    0.23
   3   6   0    2.59    0.27
   3   6   0    2.78    0.19
   3   6   0    2.36    0.35
   3   6   0    2.60    0.19
   4   6   0    0.19    0.13
   4   6   0    0.09    0.07
   4   6   0   -0.04    0.17
   4   6   0    0.08    0.09
   5   6   0    3.44    0.31
   5   6   0    3.27    0.19
   5   6   0    2.98    0.26
   6   6   0   -0.07    0.15
   6   6   0   -0.03    0.10
   7   6   0    0.26    0.11
   7  -7   0    0.27    0.05
   7  -7   0    0.28    0.06
   6  -7   0    0.04    0.07
   6  -7   0   -0.01    0.09
   6  -7   0    0.07    0.04
   5  -7   0    0.14    0.08
   5  -7   0   -0.09    0.07
   5  -7   0   -0.01    0.09
   5  -7   0   -0.02    0.10
   4  -7   0    0.33    0.09
   4  -7   0    0.24    0.10
   4  -7   0    0.25    0.09
   3  -7   0   -0.12    0.09
   3  -7   0    0.07    0.11
   2  -7   0    1.22    0.14
  -1   7   0   -0.05    0.12
   0   7   0    0.82    0.13
   1   7   0    0.21    0.08
   1   7   0    0.30    0.11
   2   7   0   -0.06    0.10
   2   7   0    0.01    0.10
   2   7   0   -0.10    0.09
   3   7   0    0.15    0.08
   3   7   0    0.08    0.08
   3   7   0    0.23    0.14
   4   7   0    0.14    0.09
   4   7   0    0.18    0.16
   5   7   0    0.82    0.16
   5   7   0    0.62    0.08
   6   7   0    0.12    0.10
   6  -8   0   -0.02    0.05
   5  -8   0    0.31    0.07
   5  -8   0    0.20    0.07
   5  -8   0    0.31    0.06
   4  -8   0    0.25    0.05
   4  -8   0    0.45    0.10
   4  -8   0    0.42    0.09
   3  -8   0   -0.12    0.08
   3  -8   0   -0.18    0.10
   2  -8   0    0.04    0.11
   1  -8   0    0.84    0.12
  -1   8   0    0.58    0.14
   0   8   0    0.40    0.11
   1   8   0   -0.16    0.09
   1   8   0   -0.07    0.10
   2   8   0   -0.14    0.08
   2   8   0   -0.13    0.12
   2   8   0   -0.08    0.10
   3   8   0    0.08    0.12
   3   8   0   -0.04    0.07
   3   8   0    0.07    0.06
   4   8   0    0.03    0.06
   4   8   0    0.09    0.13
   4  -9   0   -0.02    0.06
   4  -9   0    0.03    0.06
   3  -9   0   -0.01    0.07
   3  -9   0   -0.01    0.05
   2  -9   0    0.02    0.08
  -2   9   0    0.07    0.10
   1  -9   0    0.13    0.09
  -1   9   0   -0.03    0.08
   0   9   0    1.02    0.12
   0   9   0    0.90    0.09
   1   9   0    0.20    0.13
   1   9   0   -0.01    0.08
   2   9   0    0.83    0.13
   2   9   0    0.44    0.08
   2   9   0    0.58    0.07
   3   9  -1    0.21    0.10
   3   9  -1    0.08    0.06
   2   9  -1    2.56    0.22
   2   9  -1    2.02    0.14
   2   9  -1    1.82    0.15
   1   9  -1    1.74    0.20
   1   9  -1    1.19    0.12
   0   9  -1   -0.02    0.08
   0   9  -1   -0.14    0.07
  -1   9  -1    0.23    0.10
   1  -9   1    0.34    0.11
  -2   9  -1    0.00    0.09
   2  -9   1    0.04    0.09
   3  -9   1    0.34    0.06
   3  -9   1    0.27    0.07
   4  -9   1    0.14    0.06
   4  -9   1    0.15    0.05
   5   8  -1    0.19    0.11
   4   8  -1    0.28    0.07
   4   8  -1    0.43    0.14
   3   8  -1    0.11    0.06
   3   8  -1    0.04    0.07
   3   8  -1    0.28    0.15
   2   8  -1   -0.11    0.10
   2   8  -1    0.29    0.16
   2   8  -1    0.05    0.09
   1   8  -1    0.16    0.09
   1   8  -1    0.14    0.10
   0   8  -1   -0.01    0.12
  -1   8  -1    0.23    0.13
   1  -8   1    0.15    0.11
   2  -8   1    0.42    0.12
   3  -8   1    0.45    0.10
   3  -8   1    0.55    0.09
   4  -8   1    0.03    0.06
   4  -8   1    0.11    0.09
   4  -8   1   -0.09    0.09
   5  -8   1    0.11    0.07
   5  -8   1    0.02    0.06
   5  -8   1    0.05    0.07
   5  -8   1    0.08    0.07
   6  -8   1    0.20    0.06
   6   7  -1    0.22    0.08
   6   7  -1    0.20    0.12
   5   7  -1    0.08    0.07
   5   7  -1    0.17    0.15
   5   7  -1    0.15    0.11
   4   7  -1   -0.07    0.08
   4   7  -1    0.07    0.17
   4   7  -1    0.10    0.10
   4   7  -1   -0.04    0.05
   3   7  -1    0.12    0.12
   3   7  -1    0.03    0.10
   3   7  -1    0.34    0.18
   3   7  -1    0.00    0.07
   2   7  -1    0.22    0.09
   2   7  -1    0.22    0.09
   2   7  -1    0.33    0.10
   2   7  -1    0.40    0.11
   1   7  -1    0.20    0.23
   1   7  -1    0.33    0.08
   1   7  -1    0.35    0.11
   0   7  -1    3.08    0.26
  -1   7  -1    1.02    0.14
   2  -7   1    0.54    0.12
   3  -7   1    5.45    0.36
   3  -7   1    5.24    0.35
   3  -7   1    5.41    0.29
   4  -7   1    0.07    0.09
   4  -7   1   -0.08    0.09
   4  -7   1   -0.08    0.09
   5  -7   1    0.41    0.09
   5  -7   1    0.48    0.09
   5  -7   1    0.58    0.10
   5  -7   1    0.43    0.11
   6  -7   1    0.34    0.10
   6  -7   1    0.37    0.05
   6  -7   1    0.38    0.08
   7  -7   1    0.11    0.06
   7   6  -1    0.02    0.09
   7   6  -1    0.07    0.12
   6   6  -1    0.03    0.10
   6   6  -1   -0.14    0.15
   5   6  -1    0.00    0.14
   5   6  -1   -0.16    0.17
   5   6  -1    0.08    0.07
   5   6  -1    0.08    0.08
   4   6  -1    1.95    0.19
   4   6  -1    1.84    0.15
   4   6  -1    2.01    0.24
   4   6  -1    1.93    0.13
   4   6  -1    1.63    0.17
   3   6  -1    1.08    0.10
   3   6  -1    0.83    0.28
   3   6  -1    0.77    0.21
   3   6  -1    1.28    0.15
   3   6  -1    1.21    0.20
   3   6  -1    1.01    0.10
   2   6  -1    3.38    0.20
   2   6  -1    2.97    0.33
   2   6  -1    3.17    0.24
   2   6  -1    2.97    0.21
   2   6  -1    2.97    0.35
   2   6  -1    3.00    0.32
   2   6  -1    3.10    0.25
   1   6  -1   15.07    0.74
   1   6  -1   15.53    0.89
   1   6  -1   14.70    0.95
   1   6  -1   14.83    0.92
   1   6  -1   15.23    0.95
   1   6  -1   13.93    0.92
   0   6  -1    1.65    0.21
   0   6  -1    2.06    0.27
  -1   6  -1    2.93    0.32
   1  -6   1    3.44    0.34
   2  -6   1    1.76    0.20
   2  -6   1    2.31    0.31
   3  -6   1    2.59    0.16
   3  -6   1    2.34    0.27
   3  -6   1    2.53    0.22
   3  -6   1    1.92    0.29
   3  -6   1    2.65    0.23
   3  -6   1    2.56    0.35
   4  -6   1    0.24    0.10
   4  -6   1   -0.04    0.09
   4  -6   1    0.06    0.09
   4  -6   1   -0.03    0.10
   4  -6   1    0.10    0.20
   4  -6   1   -0.01    0.26
   5  -6   1    2.95    0.18
   5  -6   1    3.00    0.21
   5  -6   1    2.85    0.19
   5  -6   1    2.98    0.23
   6  -6   1    0.27    0.06
   6  -6   1    0.32    0.10
   6  -6   1    0.34    0.08
   7  -6   1    0.21    0.06
   7  -6   1    0.17    0.10
   8   5  -1    0.06    0.08
   7   5  -1    1.04    0.17
   7   5  -1    1.03    0.14
   6   5  -1    0.94    0.12
   6   5  -1    1.37    0.21
   6   5  -1    1.13    0.14
   5   5  -1   -0.07    0.14
   5   5  -1    0.03    0.10
   5   5  -1   -0.03    0.07
   5   5  -1    0.01    0.12
   4   5  -1    2.97    0.17
   4   5  -1    3.17    0.31
   4   5  -1    3.13    0.26
   4   5  -1    2.39    0.24
   4   5  -1    2.98    0.21
   4   5  -1    1.97    0.25
   4   5  -1    3.35    0.18
   4   5  -1    2.51    0.36
   3   5  -1    0.22    0.07
   3   5  -1    0.32    0.10
   3   5  -1    0.10    0.16
   3   5  -1    0.24    0.19
   3   5  -1    0.19    0.19
   3   5  -1    0.32    0.07
   3   5  -1    0.26    0.08
   3   5  -1    0.21    0.15
   2   5  -1   34.42    1.86
   2   5  -1   30.67    1.50
   2   5  -1   33.24    1.57
   2   5  -1   32.01    1.88
   2   5  -1   29.32    1.98
   2   5  -1   34.49    1.93
   2   5  -1   33.22    1.92
   1   5  -1   11.33    0.73
   1   5  -1   11.46    0.73
   1   5  -1   11.12    0.71
   0   5  -1    3.73    0.32
   0   5  -1    3.69    0.33
   0   5  -1    3.63    0.35
  -1   5  -1    6.65    0.48
   1  -5   1    7.33    0.54
   2  -5   1    6.25    0.45
   2  -5   1    6.38    0.47
   2  -5   1    6.39    0.52
   3  -5   1    3.09    0.20
   3  -5   1    3.02    0.23
   3  -5   1    3.58    0.38
   3  -5   1    3.46    0.32
   3  -5   1    3.70    0.31
   4  -5   1    1.77    0.18
   4  -5   1    1.59    0.13
   4  -5   1    1.52    0.22
   4  -5   1    1.35    0.23
   4  -5   1    1.65    0.14
   4  -5   1    1.60    0.32
   4  -5   1    1.66    0.16
   5  -5   1    4.96    0.34
   5  -5   1    4.14    0.49
   5  -5   1    4.58    0.30
   5  -5   1    4.00    0.37
   5  -5   1    5.13    0.26
   5  -5   1    4.90    0.25
   6  -5   1    5.40    0.35
   6  -5   1    5.56    0.29
   6  -5   1    6.23    0.40
   6  -5   1    5.69    0.29
   7  -5   1    0.04    0.08
   7  -5   1    0.07    0.12
   7  -5   1   -0.05    0.06
   8  -5   1   -0.03    0.07
   8  -5   1    0.06    0.09
   8   4  -1    0.02    0.09
   8   4  -1   -0.10    0.12
   7   4  -1    0.02    0.13
   7   4  -1    0.12    0.09
   7   4  -1   -0.01    0.16
   6   4  -1    2.38    0.30
   6   4  -1    2.18    0.24
   6   4  -1    2.30    0.19
   5   4  -1    0.02    0.25
   5   4  -1   -0.03    0.06
   5   4  -1   -0.22    0.16
   5   4  -1   -0.04    0.10
   5   4  -1    0.17    0.14
   4   4  -1    0.19    0.23
   4   4  -1    0.31    0.13
   4   4  -1    0.16    0.05
   4   4  -1    0.19    0.13
   4   4  -1    0.28    0.15
   4   4  -1    0.25    0.07
   4   4  -1    0.22    0.09
   4   4  -1    0.22    0.07
   4   4  -1    0.21    0.13
   3   4  -1    3.40    0.19
   3   4  -1    3.30    0.29
   3   4  -1    3.54    0.31
   3   4  -1    3.53    0.27
   2   4  -1    1.59    0.23
   2   4  -1    1.69    0.19
   2   4  -1    1.78    0.21
   1   4  -1    5.82    0.38
   1   4  -1    4.70    0.35
   1   4  -1    5.65    0.40
   1   4  -1    5.63    0.40
   0   4  -1    6.72    0.44
   0   4  -1    6.17    0.44
   0   4  -1    6.19    0.42
   0   4  -1    7.54    0.46
   0   4  -1    7.18    0.46
   0  -4   1    6.53    0.41
  -1   4  -1   25.55    1.49
  -1   4  -1   23.84    1.43
  -1   4  -1   22.94    1.27
   1  -4   1   26.79    1.48
   1  -4   1   24.43    1.26
   1  -4   1   25.43    1.43
   1  -4   1   25.37    1.27
   2  -4   1    3.01    0.27
   2  -4   1    2.40    0.25
   2  -4   1    2.39    0.24
   2  -4   1    2.99    0.28
   3  -4   1    2.52    0.29
   3  -4   1    2.27    0.24
   3  -4   1    2.46    0.25
   4  -4   1    1.17    0.14
   4  -4   1    0.90    0.10
   4  -4   1    0.97    0.09
   4  -4   1    1.09    0.10
   4  -4   1    0.90    0.19
   4  -4   1    0.73    0.20
   4  -4   1    1.15    0.29
   4  -4   1    1.12    0.10
   5  -4   1    1.83    0.36
   5  -4   1    2.45    0.15
   5  -4   1    2.32    0.23
   5  -4   1    1.84    0.24
   5  -4   1    2.42    0.21
   5  -4   1    2.40    0.20
   5  -4   1    2.53    0.15
   6  -4   1    3.78    0.29
   6  -4   1    3.42    0.26
   6  -4   1    3.57    0.18
   6  -4   1    3.62    0.30
   6  -4   1    3.34    0.19
   6  -4   1    2.37    0.42
   7  -4   1    0.28    0.07
   7  -4   1    0.21    0.13
   7  -4   1    0.33    0.12
   7  -4   1    0.54    0.14
   8  -4   1    0.01    0.11
   8  -4   1    0.04    0.08
   9   3  -1   -0.14    0.10
   8   3  -1   -0.04    0.15
   8   3  -1    0.25    0.10
   7   3  -1    0.81    0.16
   7   3  -1    0.44    0.11
   7   3  -1    0.67    0.18
   7   3  -1    0.58    0.14
   6   3  -1    2.47    0.36
   6   3  -1    2.84    0.28
   6   3  -1    3.16    0.33
   6   3  -1    3.23    0.26
   6   3  -1    3.38    0.18
   6   3  -1    3.28    0.23
   5   3  -1    2.72    0.27
   5   3  -1    3.50    0.22
   5   3  -1    3.14    0.17
   5   3  -1    3.33    0.19
   5   3  -1    3.09    0.31
   5   3  -1    3.15    0.35
   5   3  -1    3.22    0.25
   4   3  -1    1.78    0.13
   4   3  -1    1.73    0.11
   4   3  -1    1.73    0.16
   4   3  -1    1.85    0.14
   4   3  -1    1.77    0.15
   4   3  -1    1.96    0.27
   4   3  -1    1.48    0.14
   3   3  -1    5.50    0.40
   3   3  -1    5.58    0.35
   3   3  -1    5.58    0.37
   2   3  -1    0.39    0.12
   2   3  -1    0.62    0.18
   2   3  -1    0.54    0.14
   2   3  -1    0.67    0.14
   2   3  -1    0.35    0.11
  -2  -3   1    0.59    0.12
   1   3  -1    9.18    0.56
   1   3  -1    8.53    0.49
   1   3  -1    8.68    0.55
   1   3  -1    8.85    0.53
   1   3  -1    8.47    0.49
  -1  -3   1    8.92    0.49
  -1  -3   1    9.62    0.49
   0   3  -1   67.02    3.66
   0   3  -1   63.72    3.18
   0   3  -1   64.57    3.17
   0   3  -1   67.95    3.79
   0  -3   1   68.78    3.17
   0  -3   1   68.22    3.17
   0  -3   1   63.66    3.78
   0  -3   1   62.63    3.66
  -1   3  -1   28.68    1.45
  -1   3  -1   28.05    1.65
  -1   3  -1   28.43    1.45
  -1   3  -1   29.13    1.71
   1  -3   1   30.93    1.71
   1  -3   1   29.89    1.45
   1  -3   1   28.95    1.44
   1  -3   1   30.43    1.65
  -2   3  -1   21.37    1.19
  -2   3  -1   22.40    1.20
   2  -3   1   22.67    1.18
   2  -3   1   23.03    1.19
   2  -3   1   24.62    1.35
   2  -3   1   25.72    1.59
   2  -3   1   25.72    1.40
   3  -3   1    5.22    0.45
   3  -3   1    5.17    0.37
   3  -3   1    5.21    0.35
   4  -3   1    1.04    0.27
   4  -3   1    1.18    0.19
   4  -3   1    1.03    0.16
   5  -3   1    7.23    0.35
   5  -3   1    6.78    0.43
   5  -3   1    7.41    0.61
   5  -3   1    5.86    0.45
   5  -3   1    7.25    0.49
   5  -3   1    7.00    0.34
   5  -3   1    7.23    0.46
   5  -3   1    6.80    0.42
   6  -3   1    3.49    0.18
   6  -3   1    3.43    0.26
   6  -3   1    3.04    0.28
   6  -3   1    2.22    0.40
   6  -3   1    3.59    0.30
   7  -3   1   -0.09    0.14
   7  -3   1    0.15    0.14
   7  -3   1    0.07    0.10
   7  -3   1   -0.03    0.06
   8  -3   1    0.74    0.11
   8  -3   1    0.47    0.11
   8  -3   1    0.91    0.14
   9  -3   1    0.30    0.07
   9  -3   1    0.21    0.07
   9  -3   1    0.44    0.11
   9   2  -1   -0.03    0.11
   9   2  -1   -0.16    0.08
   8   2  -1   -0.03    0.12
   8   2  -1    0.12    0.13
   8   2  -1    0.02    0.16
   7   2  -1    0.20    0.14
   7   2  -1    0.35    0.12
   7   2  -1    0.15    0.06
   7   2  -1    0.37    0.17
   7   2  -1    0.12    0.12
   6   2  -1   12.68    0.95
   6   2  -1   16.27    0.80
   6   2  -1   15.30    0.69
   6   2  -1   14.65    1.07
   6   2  -1   13.48    0.96
   6   2  -1   15.36    0.93
   5   2  -1    5.33    0.42
   5   2  -1    4.35    0.37
   5   2  -1    5.59    0.32
   5   2  -1    4.84    0.42
   5   2  -1    5.31    0.36
   5   2  -1    5.40    0.27
   4   2  -1    3.45    0.30
   3   2  -1   27.83    1.51
   3   2  -1   27.88    1.43
   3   2  -1   23.00    1.24
   3   2  -1   24.06    1.43
   3   2  -1   26.99    1.47
   3   2  -1   25.68    1.47
   3   2  -1   25.29    1.24
  -3  -2   1   23.59    1.24
  -3  -2   1   26.12    1.24
   2   2  -1    4.78    0.35
   2   2  -1    4.35    0.30
   2   2  -1    5.13    0.30
   2   2  -1    4.85    0.27
   2   2  -1    4.78    0.27
   2   2  -1    4.47    0.31
   2   2  -1    5.06    0.31
  -2  -2   1    5.23    0.27
  -2  -2   1    4.53    0.27
   1   2  -1    5.87    0.35
   1   2  -1    5.44    0.36
   1   2  -1    6.17    0.36
   1   2  -1    5.49    0.32
   1   2  -1    4.96    0.35
   1   2  -1    5.95    0.32
  -1  -2   1    6.08    0.32
  -1  -2   1    5.12    0.36
  -1  -2   1    6.06    0.32
   0   2  -1  163.61    9.26
   0   2  -1  158.86    8.98
   0   2  -1  167.68    7.68
   0   2  -1  163.63    7.68
   0  -2   1  154.29    9.22
   0  -2   1  149.93    8.95
   0  -2   1  165.85    7.68
   0  -2   1  166.46    7.68
  -1   2  -1  102.42    4.88
  -1   2  -1  101.06    5.85
  -1   2  -1   92.52    5.66
  -1   2  -1  102.29    4.89
   1  -2   1  107.63    5.85
   1  -2   1   98.16    5.66
   1  -2   1  106.20    4.88
   1  -2   1  107.09    4.88
  -2   2  -1   38.23    1.88
  -2   2  -1   34.53    2.24
  -2   2  -1   40.38    1.90
   2  -2   1   40.30    2.17
   2  -2   1   37.31    1.88
   2  -2   1   33.73    2.17
   2  -2   1   42.82    2.25
   2  -2   1   39.26    1.89
   2  -2   1   43.62    2.56
  -3   2  -1    5.87    0.36
  -3   2  -1    6.14    0.38
   3  -2   1    7.14    0.42
   3  -2   1    6.78    0.39
   3  -2   1    6.45    0.36
   3  -2   1    6.75    0.51
   3  -2   1    6.22    0.36
   3  -2   1    5.88    0.39
   4  -2   1   22.23    1.23
   4  -2   1   21.92    1.48
   4  -2   1   21.00    1.27
   5  -2   1   10.89    0.69
   5  -2   1   10.72    0.85
   5  -2   1   11.08    0.76
   5  -2   1   11.73    0.55
   5  -2   1   12.10    0.83
   5  -2   1   11.16    0.53
   5  -2   1   12.07    0.66
   5  -2   1   11.26    0.68
   6  -2   1    0.69    0.12
   6  -2   1    0.71    0.15
   6  -2   1    0.71    0.07
   6  -2   1    0.78    0.15
   6  -2   1    0.50    0.26
   6  -2   1    1.15    0.19
   7  -2   1    0.26    0.15
   7  -2   1    0.07    0.13
   7  -2   1    0.24    0.13
   7  -2   1    0.17    0.15
   8  -2   1    0.13    0.11
   8  -2   1    0.26    0.13
   8  -2   1    0.40    0.14
   9  -2   1    0.57    0.10
   9  -2   1    0.42    0.10
   9   1  -1   -0.04    0.13
   9   1  -1   -0.12    0.10
   8   1  -1   -0.09    0.13
   8   1  -1   -0.12    0.10
   8   1  -1    0.01    0.13
   8   1  -1    0.08    0.16
   7   1  -1    3.50    0.26
   7   1  -1    3.66    0.28
   7   1  -1    3.49    0.24
   7   1  -1    4.25    0.35
   7   1  -1    3.77    0.30
   7   1  -1    3.40    0.20
   6   1  -1    3.07    0.24
   6   1  -1    3.25    0.32
   6   1  -1    3.25    0.33
   6   1  -1    2.77    0.28
   6   1  -1    3.40    0.23
   6   1  -1    3.22    0.17
   6   1  -1    2.88    0.22
   5   1  -1    0.08    0.19
   5   1  -1    0.08    0.11
   4   1  -1    6.41    0.49
   4   1  -1    7.02    0.47
   3   1  -1   22.85    1.31
   3   1  -1   21.52    1.47
   2   1  -1    1.27    0.10
   2   1  -1    1.25    0.16
   2   1  -1    1.29    0.10
   2   1  -1    1.37    0.09
   2   1  -1    1.52    0.16
   2   1  -1    1.41    0.10
   2   1  -1    1.29    0.10
   2   1  -1    1.30    0.09
  -2  -1   1    1.24    0.09
   1   1  -1   28.36    1.32
   1   1  -1   24.01    1.58
   1   1  -1   27.97    1.52
   1   1  -1   24.96    1.53
   1   1  -1   27.85    1.58
   1   1  -1   29.27    1.32
   1   1  -1   26.04    1.58
  -1  -1   1   29.61    1.32
  -1  -1   1   29.31    1.32
   0   1  -1    7.16    0.36
   0   1  -1    7.88    0.37
   0   1  -1    6.87    0.42
   0   1  -1    6.62    0.41
   0  -1   1    6.88    0.42
   0  -1   1    7.39    0.36
   0  -1   1    6.55    0.41
   0  -1   1    8.06    0.36
  -1   1  -1   41.21    2.49
  -1   1  -1   47.33    2.16
  -1   1  -1   47.04    2.16
  -1   1  -1   41.47    2.58
   1  -1   1   49.79    2.16
   1  -1   1   44.89    2.50
   1  -1   1   43.66    2.58
  -2   1  -1  156.78    7.43
  -2   1  -1  161.67    7.44
   2  -1   1  150.74   10.17
   2  -1   1  143.17    8.63
   2  -1   1  160.33    7.44
   2  -1   1  156.80    8.92
   2  -1   1  158.33    7.43
   2  -1   1  161.68    8.67
   2  -1   1  156.95    8.94
  -3   1  -1   82.84    4.13
  -3   1  -1   85.25    4.14
   3  -1   1   85.35    4.14
   3  -1   1   80.75    4.13
   3  -1   1   92.77    4.96
   3  -1   1   86.49    5.66
   3  -1   1   94.74    4.80
   3  -1   1   83.90    4.80
   3  -1   1   87.45    4.95
   4  -1   1    4.06    0.27
   4  -1   1    4.44    0.26
   4  -1   1    4.08    0.37
   4  -1   1    4.76    0.28
   4  -1   1    3.65    0.24
   4  -1   1    4.27    0.26
   5  -1   1    1.00    0.23
   5  -1   1    1.55    0.14
   5  -1   1    1.32    0.09
   5  -1   1    1.53    0.16
   5  -1   1    1.62    0.22
   5  -1   1    1.37    0.17
   6  -1   1    1.77    0.23
   6  -1   1    1.71    0.18
   6  -1   1    1.60    0.17
   6  -1   1    1.89    0.18
   6  -1   1    1.77    0.26
   6  -1   1    1.75    0.10
   7  -1   1    1.25    0.20
   7  -1   1    0.81    0.14
   7  -1   1    0.73    0.13
   7  -1   1    0.99    0.13
   8  -1   1    4.00    0.35
   8  -1   1    4.58    0.39
   8  -1   1    4.24    0.30
   9  -1   1    0.17    0.07
   9  -1   1    0.40    0.11
   9   0  -1    2.49    0.24
   9   0  -1    2.52    0.20
   9   0  -1    1.71    0.18
   8   0  -1    1.14    0.19
   8   0  -1    0.69    0.14
   8   0  -1    0.91    0.16
   8   0  -1    0.71    0.14
   7   0  -1   -0.04    0.12
   7   0  -1    0.18    0.14
   7   0  -1   -0.11    0.11
   7   0  -1    0.08    0.13
   7   0  -1   -0.20    0.13
   7   0  -1   -0.03    0.09
   6   0  -1    2.71    0.23
   6   0  -1    3.10    0.24
   6   0  -1    2.54    0.27
   6   0  -1    2.95    0.23
   6   0  -1    2.84    0.30
   6   0  -1    2.72    0.19
   5   0  -1    0.40    0.18
   5   0  -1    0.30    0.18
   4   0  -1   58.47    3.29
   4   0  -1   55.28    3.74
   3   0  -1    0.82    0.17
   3   0  -1    0.69    0.17
   2   0  -1   99.45    5.80
   2   0  -1  102.94    6.59
   1   0  -1  107.32    6.67
   1   0  -1  116.27    6.44
   1   0  -1  112.74    6.65
   1   0  -1  113.02    6.44
   1   0  -1  110.88    7.60
   1   0  -1  116.56    6.65
   1   0  -1  120.93    5.54
   1   0  -1  121.81    5.54
  -1   0   1  119.52    5.54
  -1   0   1  122.89    5.54
   0   0  -1   44.41    2.66
   0   0  -1   43.91    2.58
   0   0  -1   50.65    2.22
   0   0  -1   48.42    2.22
   0   0   1   44.71    2.66
   0   0   1   43.11    2.58
   0   0   1   48.49    2.22
   0   0   1   48.70    2.22
  -1   0  -1  399.06   17.39
  -1   0  -1  362.51   17.38
   1   0   1  345.29   20.95
   1   0   1  372.59   20.22
   1   0   1  351.82   20.87
   1   0   1  374.71   17.38
   1   0   1  384.33   17.38
   1   0   1  335.91   20.20
   1   0   1  362.20   20.87
  -2   0  -1    4.15    0.23
  -2   0  -1    4.19    0.22
   2   0   1    4.14    0.23
   2   0   1    3.59    0.30
   2   0   1    3.91    0.22
   2   0   1    4.05    0.25
   2   0   1    3.82    0.26
   2   0   1    3.99    0.30
   2   0   1    4.00    0.26
   2   0   1    4.31    0.26
  -3   0  -1    0.83    0.09
   3   0   1    0.83    0.09
   3   0   1    0.81    0.11
   3   0   1    0.91    0.11
   3   0   1    0.78    0.09
   3   0   1    0.85    0.10
   3   0   1    1.00    0.16
   3   0   1    0.72    0.08
   3   0   1    0.80    0.15
   4   0   1   21.73    1.21
   4   0   1   18.48    1.33
   5   0   1    1.67    0.18
   5   0   1    1.79    0.17
   5   0   1    1.54    0.23
   5   0   1    1.53    0.10
   5   0   1    1.73    0.19
   6   0   1    1.64    0.17
   6   0   1    1.87    0.22
   6   0   1    1.80    0.18
   6   0   1    1.55    0.19
   6   0   1    1.69    0.17
   7   0   1    0.55    0.15
   7   0   1    0.46    0.12
   7   0   1    0.30    0.15
   7   0   1    0.53    0.19
   8   0   1    0.85    0.16
   8   0   1    0.92    0.18
   8   0   1    0.38    0.13
   9   0   1    4.64    0.39
   9   0   1    5.09    0.35
   9  -1  -1   15.13    0.95
   9  -1  -1   14.17    0.82
   8  -1  -1    2.33    0.27
   8  -1  -1    1.87    0.19
   8  -1  -1    2.20    0.25
   8  -1  -1    1.95    0.21
   7  -1  -1    6.50    0.49
   7  -1  -1    5.96    0.41
   7  -1  -1    5.64    0.45
   7  -1  -1    6.17    0.38
   7  -1  -1    5.76    0.41
   6  -1  -1    0.14    0.11
   6  -1  -1    0.02    0.10
   6  -1  -1   -0.01    0.13
   6  -1  -1    0.15    0.11
   6  -1  -1    0.16    0.16
   6  -1  -1   -0.03    0.22
   5  -1  -1   11.68    0.86
   4  -1  -1   38.77    2.58
   3  -1  -1   88.32    4.40
   3  -1  -1   90.58    5.11
   3  -1  -1   93.12    6.04
   3  -1  -1   91.66    5.28
   3  -1  -1   89.00    4.40
   3  -1  -1   94.54    5.11
   3  -1  -1   93.93    5.28
  -3   1   1   95.24    4.41
  -3   1   1   94.89    4.40
   2  -1  -1    5.01    0.35
   2  -1  -1    5.70    0.29
   2  -1  -1    5.42    0.35
   2  -1  -1    5.72    0.30
   2  -1  -1    5.47    0.42
   2  -1  -1    5.72    0.34
   2  -1  -1    5.53    0.33
  -2   1   1    5.82    0.30
  -2   1   1    5.80    0.30
   1  -1  -1    6.44    0.33
   1  -1  -1    6.25    0.37
   1  -1  -1    5.75    0.43
   1  -1  -1    6.31    0.38
  -1   1   1    6.41    0.33
  -1   1   1    5.46    0.38
  -1   1   1    6.45    0.33
   0  -1  -1   35.58    2.11
   0  -1  -1   39.85    1.82
   0  -1  -1   42.74    1.82
   0  -1  -1   36.28    2.17
   0  -1  -1   34.48    2.47
   0   1   1   41.64    1.82
   0   1   1   35.18    2.18
   0   1   1   36.53    2.11
   0   1   1   41.05    1.82
   0   1   1   35.89    2.17
  -1  -1  -1  600.23   28.08
  -1  -1  -1  649.98   28.09
  -1  -1  -1  550.19   33.72
   1   1   1  613.34   28.09
   1   1   1  589.20   33.85
   1   1   1  530.90   32.64
   1   1   1  604.45   28.08
   1   1   1  583.60   32.66
  -2  -1  -1  441.87   20.14
  -2  -1  -1  428.64   20.12
   2   1   1  445.33   23.44
   2   1   1  418.76   20.12
   2   1   1  437.26   24.32
   2   1   1  382.72   23.41
   2   1   1  404.04   24.17
   2   1   1  435.37   24.21
   2   1   1  416.61   20.13
  -3  -1  -1    0.07    0.07
  -3  -1  -1    0.13    0.08
   3   1   1    0.15    0.08
   3   1   1    0.15    0.07
   3   1   1    0.15    0.08
   3   1   1    0.11    0.08
   3   1   1    0.10    0.09
   3   1   1    0.10    0.09
   3   1   1    0.18    0.18
   4   1   1    7.28    0.36
   5   1   1    0.29    0.05
   5   1   1    0.39    0.22
   5   1   1    0.18    0.13
   5   1   1    0.42    0.11
   5   1   1    0.36    0.16
   5   1   1    0.37    0.09
   6   1   1    4.07    0.27
   6   1   1    4.79    0.39
   6   1   1    4.53    0.33
   6   1   1    4.03    0.29
   6   1   1    3.92    0.33
   7   1   1    0.02    0.17
   7   1   1   -0.01    0.15
   7   1   1   -0.01    0.14
   7   1   1    0.01    0.09
   8   1   1    0.86    0.15
   8   1   1    0.67    0.12
   8   1   1    0.97    0.18
   9   1   1   -0.07    0.13
   9   1   1   -0.07    0.10
   9  -2  -1    0.63    0.11
   9  -2  -1    0.55    0.10
   9  -2  -1    0.99    0.14
   8  -2  -1    1.72    0.22
   8  -2  -1    1.45    0.17
   8  -2  -1    1.16    0.17
   7  -2  -1    3.75    0.30
   7  -2  -1    3.18    0.28
   7  -2  -1    3.53    0.26
   7  -2  -1    4.12    0.36
   6  -2  -1    4.73    0.32
   6  -2  -1    5.51    0.44
   6  -2  -1    5.46    0.33
   6  -2  -1    5.20    0.25
   6  -2  -1    4.03    0.47
   6  -2  -1    5.37    0.37
   6  -2  -1    5.41    0.38
   5  -2  -1    0.56    0.27
   5  -2  -1    0.62    0.16
   5  -2  -1    0.58    0.13
   5  -2  -1    0.60    0.11
   5  -2  -1    0.51    0.06
   5  -2  -1    0.52    0.13
   4  -2  -1   11.41    0.69
   4  -2  -1   11.37    0.67
   4  -2  -1   11.70    0.83
   3  -2  -1    4.54    0.32
   3  -2  -1    4.49    0.29
   3  -2  -1    4.55    0.28
   3  -2  -1    4.45    0.30
   3  -2  -1    5.33    0.41
   3  -2  -1    5.24    0.33
   3  -2  -1    5.54    0.33
  -3   2   1    4.36    0.29
   2  -2  -1   28.16    1.32
   2  -2  -1   28.11    1.56
   2  -2  -1   28.21    1.32
   2  -2  -1   24.04    1.51
   2  -2  -1   27.60    1.79
   2  -2  -1   28.98    1.52
  -2   2   1   27.33    1.33
  -2   2   1   26.54    1.32
  -2   2   1   23.79    1.56
   1  -2  -1   48.82    2.29
   1  -2  -1   50.56    2.30
   1  -2  -1   48.03    2.74
   1  -2  -1   49.65    2.65
   1  -2  -1   47.60    3.12
  -1   2   1   48.73    2.30
  -1   2   1   46.23    2.30
  -1   2   1   44.20    2.65
  -1   2   1   44.74    2.74
   0  -2  -1   40.93    2.33
   0  -2  -1   41.49    2.73
   0  -2  -1   40.84    2.40
   0  -2  -1   42.89    2.02
   0  -2  -1   44.00    2.02
   0   2   1   41.96    2.33
   0   2   1   43.18    2.02
   0   2   1   39.27    2.40
   0   2   1   40.57    2.02
   0   2   1   42.57    2.41
  -1  -2  -1  149.84    6.64
  -1  -2  -1  124.83    7.70
  -1  -2  -1  141.65    6.64
  -1  -2  -1  131.29    9.05
  -1  -2  -1  129.78    7.95
   1   2   1  139.26    6.64
   1   2   1  139.36    6.64
   1   2   1  148.86    7.96
   1   2   1  141.40    7.99
   1   2   1  145.68    7.70
  -2  -2  -1    0.85    0.12
  -2  -2  -1    1.25    0.14
   2   2   1    0.99    0.14
   2   2   1    1.32    0.15
   2   2   1    1.26    0.20
   2   2   1    1.03    0.13
   2   2   1    1.10    0.13
   2   2   1    0.96    0.13
   2   2   1    1.32    0.16
   3   2   1    5.81    0.39
   3   2   1    6.42    0.45
   3   2   1    6.18    0.39
   4   2   1    1.49    0.15
   4   2   1    1.93    0.27
   4   2   1    1.92    0.17
   4   2   1    1.92    0.16
   5   2   1   15.47    1.13
   5   2   1   15.85    0.98
   5   2   1   14.67    1.02
   5   2   1   17.36    0.85
   5   2   1   14.53    0.73
   5   2   1   16.37    1.01
   6   2   1    2.46    0.28
   6   2   1    1.98    0.18
   6   2   1    1.69    0.11
   6   2   1    1.99    0.25
   6   2   1    1.28    0.26
   6   2   1    1.87    0.22
   7   2   1    0.04    0.17
   7   2   1    0.08    0.12
   7   2   1   -0.10    0.15
   8   2   1   -0.19    0.15
   8   2   1    0.13    0.12
   8   2   1   -0.18    0.13
   9   2   1   -0.02    0.10
   9  -3  -1    0.15    0.07
   9  -3  -1   -0.05    0.08
   8  -3  -1    0.01    0.10
   8  -3  -1   -0.02    0.11
   8  -3  -1    0.05    0.14
   7  -3  -1    4.01    0.30
   7  -3  -1    3.56    0.29
   7  -3  -1    3.90    0.20
   7  -3  -1    4.49    0.32
   6  -3  -1    2.50    0.26
   6  -3  -1    2.25    0.19
   6  -3  -1    2.49    0.22
   6  -3  -1    2.15    0.15
   6  -3  -1    2.15    0.19
   6  -3  -1    1.84    0.33
   5  -3  -1    0.05    0.07
   5  -3  -1    0.03    0.10
   5  -3  -1   -0.12    0.13
   5  -3  -1    0.09    0.06
   5  -3  -1    0.20    0.11
   5  -3  -1    0.07    0.13
   5  -3  -1    0.11    0.09
   5  -3  -1    0.16    0.11
   5  -3  -1    0.05    0.22
   4  -3  -1   14.50    0.84
   4  -3  -1   14.67    1.03
   4  -3  -1   13.50    0.85
   3  -3  -1   10.22    0.66
   3  -3  -1   10.83    0.64
   3  -3  -1   10.90    0.77
   2  -3  -1   41.47    2.10
   2  -3  -1   40.33    2.09
   2  -3  -1   45.49    2.41
   2  -3  -1   45.76    2.49
   2  -3  -1   43.56    2.83
  -2   3   1   40.53    2.10
   1  -3  -1    0.10    0.12
   1  -3  -1    0.03    0.15
   1  -3  -1    0.12    0.12
   1  -3  -1    0.20    0.12
   1  -3  -1    0.05    0.12
  -1   3   1    0.11    0.11
  -1   3   1    0.11    0.13
  -1   3   1    0.06    0.15
  -1   3   1    0.13    0.12
  -1   3   1    0.17    0.13
   0  -3  -1   29.79    1.71
   0  -3  -1   30.29    1.99
   0  -3  -1   30.37    1.76
   0  -3  -1   30.18    1.49
   0  -3  -1   31.70    1.49
   0   3   1   29.25    1.50
   0   3   1   31.42    1.77
   0   3   1   30.56    1.71
   0   3   1   28.54    1.49
   0   3   1   30.01    1.76
  -1  -3  -1   46.34    2.19
  -1  -3  -1   44.79    2.19
   1   3   1   45.34    2.60
   1   3   1   40.92    2.19
   1   3   1   48.14    2.52
   1   3   1   41.75    2.19
   1   3   1   46.48    2.60
   2   3   1    5.69    0.36
   2   3   1    4.90    0.38
   2   3   1    5.50    0.38
   3   3   1   16.12    0.99
   3   3   1   16.08    0.94
   3   3   1   15.98    0.97
   4   3   1    1.71    0.20
   4   3   1    1.95    0.22
   4   3   1    2.12    0.20
   4   3   1    2.29    0.31
   4   3   1    1.88    0.18
   4   3   1    2.16    0.16
   4   3   1    1.65    0.24
   4   3   1    1.78    0.12
   4   3   1    2.12    0.13
   5   3   1    0.47    0.14
   5   3   1    0.46    0.07
   5   3   1    0.23    0.10
   5   3   1    0.25    0.17
   5   3   1    0.28    0.21
   5   3   1    0.33    0.15
   6   3   1    1.17    0.09
   6   3   1    1.39    0.21
   6   3   1    1.32    0.17
   6   3   1    1.10    0.13
   6   3   1    0.73    0.28
   6   3   1    1.02    0.18
   7   3   1    2.61    0.28
   7   3   1    2.13    0.22
   7   3   1    1.72    0.24
   8   3   1    0.85    0.15
   8   3   1    0.56    0.12
   8   3   1    0.71    0.12
   9  -4  -1    0.10    0.07
   9  -4  -1    0.16    0.07
   8  -4  -1    0.73    0.09
   8  -4  -1    0.52    0.12
   7  -4  -1    0.86    0.10
   7  -4  -1    0.61    0.15
   7  -4  -1    0.58    0.07
   6  -4  -1    1.65    0.17
   6  -4  -1    1.72    0.13
   6  -4  -1    1.62    0.18
   6  -4  -1    1.10    0.34
   6  -4  -1    1.34    0.15
   6  -4  -1    1.79    0.23
   5  -4  -1    0.06    0.27
   5  -4  -1    0.30    0.16
   5  -4  -1    0.39    0.08
   5  -4  -1    0.06    0.16
   5  -4  -1    0.34    0.08
   5  -4  -1    0.40    0.13
   5  -4  -1    0.23    0.16
   5  -4  -1    0.39    0.11
   5  -4  -1    0.17    0.11
   4  -4  -1   -0.05    0.06
   4  -4  -1    0.14    0.09
   4  -4  -1    0.03    0.07
   4  -4  -1    0.05    0.25
   4  -4  -1   -0.18    0.14
   4  -4  -1   -0.07    0.08
   3  -4  -1    5.79    0.41
   3  -4  -1    5.75    0.39
   3  -4  -1    5.43    0.49
   2  -4  -1   27.54    1.59
   2  -4  -1   27.89    1.87
   2  -4  -1   28.08    1.65
   1  -4  -1    5.29    0.37
   1  -4  -1    4.99    0.42
   1  -4  -1    5.28    0.36
  -1   4   1    4.86    0.34
  -1   4   1    4.40    0.35
   0  -4  -1    0.77    0.16
   0  -4  -1    0.83    0.15
   0   4   1    0.83    0.18
   0   4   1    0.96    0.18
   0   4   1    1.08    0.18
   0   4   1    0.92    0.17
   1   4   1    2.87    0.28
   1   4   1    2.54    0.26
   1   4   1    2.50    0.26
   2   4   1    3.74    0.32
   2   4   1    3.79    0.34
   2   4   1    4.04    0.31
   3   4   1    1.28    0.26
   3   4   1    1.34    0.16
   3   4   1    1.29    0.12
   3   4   1    1.19    0.19
   3   4   1    1.43    0.13
   3   4   1    1.35    0.15
   3   4   1    1.50    0.18
   3   4   1    1.43    0.12
   3   4   1    1.12    0.21
   4   4   1    2.41    0.27
   4   4   1    2.95    0.23
   4   4   1    1.84    0.33
   4   4   1    2.95    0.30
   4   4   1    2.73    0.26
   4   4   1    3.05    0.17
   4   4   1    2.01    0.27
   4   4   1    3.12    0.17
   4   4   1    3.18    0.20
   5   4   1    0.40    0.27
   5   4   1    0.72    0.09
   5   4   1    0.75    0.11
   5   4   1    0.62    0.15
   5   4   1    0.72    0.16
   5   4   1    0.78    0.16
   6   4   1    0.00    0.10
   6   4   1   -0.03    0.05
   6   4   1   -0.04    0.18
   6   4   1    0.07    0.13
   6   4   1    0.08    0.14
   7   4   1    0.03    0.12
   7   4   1    0.03    0.13
   8   4   1    0.65    0.10
   8  -5  -1    1.93    0.15
   8  -5  -1    2.48    0.17
   7  -5  -1    1.67    0.12
   7  -5  -1    1.46    0.14
   7  -5  -1    1.86    0.17
   6  -5  -1   -0.21    0.06
   6  -5  -1   -0.10    0.10
   6  -5  -1    0.01    0.10
   6  -5  -1   -0.10    0.08
   5  -5  -1    4.54    0.24
   5  -5  -1    4.50    0.28
   5  -5  -1    4.22    0.31
   5  -5  -1    4.14    0.24
   5  -5  -1    3.35    0.46
   4  -5  -1    9.23    0.58
   4  -5  -1    9.51    0.63
   4  -5  -1    9.37    0.61
   4  -5  -1    9.13    0.46
   4  -5  -1    9.66    0.48
   4  -5  -1    9.01    0.75
   4  -5  -1   10.25    0.57
   3  -5  -1    1.76    0.25
   3  -5  -1    1.68    0.18
   3  -5  -1    2.09    0.31
   3  -5  -1    1.75    0.15
   3  -5  -1    1.97    0.25
   3  -5  -1    1.98    0.19
   2  -5  -1    0.19    0.16
   2  -5  -1    0.12    0.15
   2  -5  -1    0.25    0.09
   2  -5  -1    0.15    0.21
   1  -5  -1    3.56    0.34
   0   5   1    4.76    0.37
   0   5   1    4.57    0.38
   0   5   1    4.69    0.37
   1   5   1   21.70    1.34
   1   5   1   24.07    1.40
   1   5   1   21.55    1.12
   1   5   1   25.22    1.36
   2   5   1    4.22    0.29
   2   5   1    4.26    0.24
   2   5   1    4.01    0.38
   2   5   1    4.20    0.36
   2   5   1    4.21    0.23
   2   5   1    4.29    0.37
   3   5   1    1.62    0.19
   3   5   1    1.61    0.24
   3   5   1    1.97    0.15
   3   5   1    1.63    0.30
   3   5   1    1.31    0.28
   3   5   1    1.75    0.15
   3   5   1    1.93    0.26
   3   5   1    2.17    0.15
   4   5   1    0.66    0.10
   4   5   1    0.48    0.28
   4   5   1    0.59    0.12
   4   5   1    0.62    0.08
   4   5   1    0.58    0.18
   4   5   1    0.73    0.12
   5   5   1    0.83    0.10
   5   5   1    0.88    0.15
   5   5   1    1.24    0.21
   6   5   1    0.08    0.10
   6   5   1    0.07    0.16
   6   5   1    0.02    0.05
   7   5   1   -0.02    0.09
   7   5   1   -0.07    0.13
   8  -6  -1    1.19    0.10
   7  -6  -1    0.04    0.06
   7  -6  -1    0.10    0.10
   6  -6  -1    0.74    0.11
   6  -6  -1    1.16    0.09
   6  -6  -1    0.87    0.10
   6  -6  -1    0.89    0.13
   5  -6  -1    0.71    0.12
   5  -6  -1    0.92    0.10
   5  -6  -1    0.81    0.13
   5  -6  -1    0.86    0.10
   4  -6  -1    2.06    0.16
   4  -6  -1    2.22    0.19
   4  -6  -1    1.92    0.34
   4  -6  -1    2.28    0.16
   4  -6  -1    2.06    0.20
   3  -6  -1    1.58    0.30
   3  -6  -1    1.90    0.16
   3  -6  -1    1.49    0.27
   3  -6  -1    1.72    0.20
   3  -6  -1    1.77    0.27
   2  -6  -1    0.38    0.11
   0   6   1    5.27    0.37
   1   6   1    3.56    0.37
   1   6   1    3.62    0.38
   1   6   1    4.03    0.28
   1   6   1    3.56    0.37
   1   6   1    3.77    0.22
   2   6   1   -0.08    0.10
   2   6   1    0.03    0.10
   2   6   1    0.00    0.19
   2   6   1    0.12    0.22
   2   6   1    0.08    0.09
   3   6   1    0.01    0.08
   3   6   1   -0.19    0.14
   3   6   1    0.14    0.09
   4   6   1    0.43    0.12
   4   6   1    0.16    0.18
   4   6   1    0.24    0.07
   4   6   1    0.34    0.10
   5   6   1    0.04    0.07
   5   6   1   -0.01    0.16
   5   6   1    0.12    0.11
   6   6   1    0.00    0.14
   6   6   1   -0.02    0.09
   7  -7  -1    0.32    0.04
   7  -7  -1    0.27    0.06
   6  -7  -1    0.19    0.08
   6  -7  -1    0.38    0.09
   6  -7  -1    0.34    0.08
   5  -7  -1    0.08    0.09
   5  -7  -1    0.03    0.07
   5  -7  -1    0.07    0.07
   5  -7  -1    0.09    0.09
   4  -7  -1    3.16    0.22
   4  -7  -1    2.96    0.19
   3  -7  -1    1.56    0.15
   3  -7  -1    1.74    0.20
   2  -7  -1    1.03    0.14
  -1   7   1    0.23    0.12
   0   7   1   -0.07    0.11
   1   7   1    0.88    0.13
   1   7   1    1.02    0.11
   2   7   1    0.12    0.14
   2   7   1    0.16    0.10
   2   7   1    0.10    0.08
   2   7   1   -0.04    0.09
   3   7   1    1.01    0.10
   3   7   1    1.09    0.11
   3   7   1    1.08    0.17
   4   7   1    0.85    0.17
   4   7   1    0.55    0.10
   5   7   1    0.03    0.06
   5   7   1    0.12    0.11
   5  -8  -1    0.03    0.07
   5  -8  -1   -0.15    0.07
   5  -8  -1   -0.06    0.05
   4  -8  -1   -0.03    0.07
   4  -8  -1    0.05    0.09
   3  -8  -1    0.19    0.08
   3  -8  -1    0.19    0.09
   2  -8  -1    0.18    0.11
   1  -8  -1    0.47    0.11
  -1   8   1    0.33    0.11
   0   8   1    0.22    0.10
   1   8   1    0.30    0.09
   1   8   1    0.44    0.10
   2   8   1    0.46    0.15
   2   8   1    0.19    0.08
   2   8   1    0.23    0.10
   3   8   1    1.34    0.19
   3   8   1    1.16    0.09
   3   8   1    0.76    0.10
   4   8   1    0.36    0.12
   4   8   1    0.08    0.06
   4  -9  -1    0.17    0.05
   3  -9  -1    0.03    0.06
   3  -9  -1    0.02    0.04
   3  -9  -1    0.12    0.07
   2  -9  -1   -0.06    0.08
  -2   9   1   -0.02    0.09
   1  -9  -1    0.08    0.08
  -1   9   1   -0.05    0.08
   0   9   1    0.26    0.12
   0   9   1    0.11    0.08
   0   9   1    0.09    0.06
   1   9   1    0.06    0.11
   1   9   1    0.10    0.06
   2   9   1   -0.01    0.04
   2   9   1    0.12    0.08
   3   9  -2    0.14    0.07
   3   9  -2    0.34    0.11
   2   9  -2    1.70    0.13
   2   9  -2    1.61    0.13
   1   9  -2    2.51    0.19
   1   9  -2    3.31    0.27
   0   9  -2    0.46    0.10
   0   9  -2    0.44    0.10
  -1   9  -2   -0.11    0.10
   1  -9   2   -0.07    0.11
  -2   9  -2    0.16    0.11
   2  -9   2    0.06    0.09
   3  -9   2    0.02    0.07
   3  -9   2    0.01    0.07
   4  -9   2    0.32    0.07
   5   8  -2    0.00    0.04
   5   8  -2    0.09    0.13
   4   8  -2   -0.01    0.09
   4   8  -2    0.13    0.07
   4   8  -2    0.22    0.16
   3   8  -2    0.39    0.09
   3   8  -2    0.66    0.12
   3   8  -2    0.86    0.17
   3   8  -2    0.21    0.07
   2   8  -2    0.02    0.10
   2   8  -2    0.19    0.16
   2   8  -2   -0.02    0.08
   1   8  -2    5.41    0.34
   1   8  -2    4.71    0.29
   0   8  -2    0.31    0.13
  -1   8  -2    0.08    0.12
   2  -8   2    1.20    0.14
   3  -8   2    0.10    0.10
   3  -8   2    0.13    0.09
   4  -8   2    0.22    0.09
   4  -8   2    0.15    0.07
   4  -8   2    0.28    0.08
   5  -8   2    0.02    0.07
   5  -8   2    0.07    0.08
   5  -8   2    0.02    0.06
   6  -8   2    0.06    0.07
   6   7  -2    0.10    0.10
   6   7  -2    0.23    0.12
   5   7  -2    0.27    0.12
   5   7  -2    0.36    0.16
   5   7  -2    0.28    0.07
   4   7  -2    0.10    0.08
   4   7  -2    0.07    0.16
   4   7  -2   -0.02    0.05
   4   7  -2    0.03    0.13
   3   7  -2    0.01    0.09
   3   7  -2    0.28    0.18
   3   7  -2    0.00    0.12
   3   7  -2   -0.03    0.08
   2   7  -2   -0.04    0.10
   2   7  -2   -0.14    0.10
   2   7  -2    0.08    0.09
   2   7  -2    0.02    0.09
   2   7  -2    0.14    0.24
   1   7  -2   -0.01    0.18
   1   7  -2    0.10    0.12
   1   7  -2    0.00    0.09
   1   7  -2   -0.13    0.18
   1   7  -2    0.02    0.11
   0   7  -2    0.94    0.13
   0   7  -2    0.81    0.24
  -1   7  -2    0.97    0.15
   2  -7   2    1.99    0.20
   2  -7   2    1.54    0.31
   3  -7   2    0.12    0.11
   3  -7   2    0.23    0.09
   3  -7   2    0.26    0.12
   4  -7   2    0.01    0.11
   4  -7   2   -0.07    0.09
   4  -7   2   -0.20    0.08
   5  -7   2   -0.04    0.11
   5  -7   2   -0.17    0.07
   5  -7   2   -0.15    0.08
   6  -7   2    1.33    0.09
   6  -7   2    1.14    0.11
   6  -7   2    1.43    0.16
   7  -7   2    0.48    0.09
   7   6  -2   -0.05    0.10
   7   6  -2    0.11    0.12
   6   6  -2    2.13    0.20
   6   6  -2    1.72    0.15
   6   6  -2    1.54    0.24
   5   6  -2   -0.11    0.11
   5   6  -2   -0.27    0.16
   5   6  -2   -0.10    0.08
   5   6  -2    0.16    0.14
   4   6  -2    4.44    0.41
   4   6  -2    5.05    0.26
   4   6  -2    5.17    0.35
   4   6  -2    5.09    0.25
   4   6  -2    3.98    0.28
   3   6  -2    0.67    0.14
   3   6  -2    0.36    0.17
   3   6  -2    0.58    0.19
   3   6  -2    0.70    0.27
   3   6  -2    0.49    0.08
   3   6  -2    0.63    0.10
   3   6  -2    0.21    0.21
   2   6  -2   -0.21    0.09
   2   6  -2    0.06    0.12
   2   6  -2    0.22    0.21
   2   6  -2   -0.07    0.23
   2   6  -2   -0.04    0.08
   2   6  -2   -0.15    0.22
   2   6  -2   -0.03    0.09
   1   6  -2   10.32    0.68
   1   6  -2   10.66    0.63
   1   6  -2    9.71    0.65
   1   6  -2   10.00    0.51
   1   6  -2    9.97    0.70
   1   6  -2   10.50    0.69
   0   6  -2   13.28    0.85
   0   6  -2   14.35    0.90
   0  -6   2   15.03    1.00
  -1   6  -2    4.05    0.35
   1  -6   2    3.98    0.39
   2  -6   2    1.57    0.19
   2  -6   2    1.98    0.31
   3  -6   2    1.52    0.27
   3  -6   2    1.22    0.12
   3  -6   2    1.18    0.21
   3  -6   2    1.29    0.25
   3  -6   2    1.42    0.16
   4  -6   2    1.81    0.15
   4  -6   2    1.56    0.15
   4  -6   2    1.57    0.18
   4  -6   2    1.87    0.18
   4  -6   2    1.59    0.33
   5  -6   2    0.06    0.10
   5  -6   2   -0.03    0.08
   5  -6   2   -0.04    0.09
   6  -6   2    0.79    0.10
   6  -6   2    0.98    0.09
   6  -6   2    0.65    0.14
   7  -6   2    0.46    0.07
   7  -6   2    0.39    0.11
   8  -6   2    0.27    0.07
   8   5  -2   -0.07    0.09
   8   5  -2    0.08    0.09
   7   5  -2   -0.24    0.14
   7   5  -2    0.00    0.08
   7   5  -2    0.15    0.13
   6   5  -2    0.99    0.19
   6   5  -2    1.17    0.15
   6   5  -2    1.01    0.12
   5   5  -2    2.39    0.21
   5   5  -2    2.48    0.15
   5   5  -2    2.49    0.22
   5   5  -2    2.32    0.28
   5   5  -2    1.58    0.34
   4   5  -2   10.13    0.74
   4   5  -2   10.90    0.79
   4   5  -2   10.20    0.67
   4   5  -2   10.55    0.59
   4   5  -2   10.86    0.51
   4   5  -2   10.81    0.52
   3   5  -2    2.22    0.30
   3   5  -2    2.23    0.21
   3   5  -2    2.22    0.15
   3   5  -2    2.14    0.24
   3   5  -2    1.40    0.23
   3   5  -2    1.88    0.24
   3   5  -2    1.80    0.16
   3   5  -2    2.05    0.14
   2   5  -2    0.14    0.07
   2   5  -2    0.02    0.07
   2   5  -2    0.00    0.16
   2   5  -2   -0.17    0.08
   2   5  -2    0.00    0.20
   2   5  -2    0.11    0.09
   2   5  -2   -0.19    0.17
   1   5  -2   13.95    0.84
   1   5  -2   13.38    0.87
   1   5  -2   13.83    0.87
   0   5  -2   13.88    0.86
   0   5  -2   13.74    0.89
   0   5  -2   15.07    0.89
   2  -5   2    0.93    0.18
   2  -5   2    0.96    0.24
   2  -5   2    0.96    0.18
   3  -5   2    3.00    0.25
   3  -5   2    3.95    0.33
   3  -5   2    3.78    0.32
   3  -5   2    4.12    0.39
   3  -5   2    3.20    0.20
   4  -5   2    5.46    0.40
   4  -5   2    5.48    0.34
   4  -5   2    5.12    0.28
   4  -5   2    5.39    0.29
   4  -5   2    5.92    0.37
   4  -5   2    5.30    0.42
   4  -5   2    5.12    0.51
   5  -5   2    0.06    0.08
   5  -5   2    0.14    0.10
   5  -5   2   -0.11    0.16
   5  -5   2    0.04    0.11
   5  -5   2    0.02    0.27
   5  -5   2    0.13    0.08
   6  -5   2    0.06    0.10
   6  -5   2    0.12    0.13
   6  -5   2   -0.01    0.06
   6  -5   2    0.04    0.08
   7  -5   2    1.09    0.12
   7  -5   2    1.21    0.10
   7  -5   2    0.94    0.15
   8  -5   2    0.34    0.09
   8  -5   2    0.35    0.07
   8   4  -2    0.05    0.11
   8   4  -2    0.05    0.12
   7   4  -2    0.12    0.12
   7   4  -2    0.01    0.11
   7   4  -2    0.13    0.16
   6   4  -2    1.41    0.18
   6   4  -2    1.27    0.12
   6   4  -2    1.21    0.15
   6   4  -2    1.28    0.20
   5   4  -2    2.53    0.24
   5   4  -2    2.55    0.20
   5   4  -2    1.61    0.32
   5   4  -2    2.48    0.17
   5   4  -2    2.30    0.28
   5   4  -2    2.45    0.14
   4   4  -2    5.23    0.37
   4   4  -2    5.06    0.33
   4   4  -2    5.07    0.27
   4   4  -2    5.32    0.45
   4   4  -2    5.52    0.27
   4   4  -2    5.69    0.27
   4   4  -2    5.81    0.32
   4   4  -2    5.00    0.43
   3   4  -2    2.47    0.23
   3   4  -2    2.35    0.23
   3   4  -2    2.75    0.29
   2   4  -2   11.21    0.67
   2   4  -2   11.34    0.69
   2   4  -2   10.79    0.71
   1   4  -2   12.16    0.74
   1   4  -2   14.26    0.85
   1   4  -2   14.50    0.85
   1   4  -2   14.06    0.82
   0   4  -2   12.63    0.77
   0   4  -2   15.80    0.88
   0   4  -2   13.38    0.76
   0   4  -2   15.09    0.85
   0  -4   2   14.37    0.77
  -1   4  -2    0.45    0.19
  -1   4  -2    0.37    0.14
  -1   4  -2    0.38    0.15
  -1   4  -2    0.24    0.15
   1  -4   2    0.42    0.14
   1  -4   2    0.56    0.15
   1  -4   2    0.44    0.15
   1  -4   2    0.43    0.15
   2  -4   2   38.44    2.19
   2  -4   2   39.52    2.12
   2  -4   2   34.23    1.85
   3  -4   2   20.24    1.23
   3  -4   2   22.35    1.28
   3  -4   2   21.36    1.46
   4  -4   2    3.04    0.18
   4  -4   2    3.27    0.22
   4  -4   2    4.03    0.40
   4  -4   2    3.49    0.32
   4  -4   2    3.05    0.23
   4  -4   2    3.23    0.19
   4  -4   2    3.21    0.27
   5  -4   2   -0.05    0.12
   5  -4   2    0.18    0.09
   5  -4   2   -0.06    0.07
   5  -4   2    0.14    0.18
   5  -4   2   -0.07    0.26
   5  -4   2   -0.02    0.14
   5  -4   2    0.08    0.13
   5  -4   2    0.18    0.08
   6  -4   2    2.70    0.25
   6  -4   2    2.47    0.20
   6  -4   2    2.53    0.25
   6  -4   2    2.32    0.14
   6  -4   2    2.63    0.16
   7  -4   2    0.04    0.13
   7  -4   2    0.39    0.07
   7  -4   2    0.33    0.12
   7  -4   2    0.61    0.14
   8  -4   2    0.45    0.12
   8  -4   2    0.28    0.10
   8  -4   2    0.26    0.10
   9  -4   2    0.42    0.06
   9   3  -2    0.12    0.07
   9   3  -2   -0.06    0.11
   8   3  -2    0.10    0.12
   8   3  -2    0.09    0.08
   8   3  -2    0.13    0.14
   7   3  -2    1.83    0.17
   7   3  -2    1.71    0.22
   7   3  -2    1.80    0.25
   7   3  -2    1.69    0.14
   6   3  -2    1.65    0.21
   6   3  -2    1.40    0.15
   6   3  -2    1.39    0.13
   6   3  -2    1.56    0.18
   6   3  -2    0.98    0.24
   5   3  -2    0.23    0.12
   5   3  -2    0.18    0.05
   5   3  -2    0.25    0.11
   5   3  -2    0.28    0.23
   5   3  -2    0.30    0.15
   5   3  -2    0.46    0.09
   5   3  -2    0.23    0.07
   4   3  -2    0.67    0.22
   3   3  -2    1.10    0.13
   3   3  -2    1.10    0.14
   3   3  -2    1.19    0.14
   3   3  -2    0.88    0.13
   3   3  -2    1.49    0.21
   2   3  -2   14.10    0.77
   2   3  -2   15.71    0.88
   2   3  -2   15.97    0.91
   2   3  -2   13.83    0.78
   2   3  -2   15.85    0.93
  -2  -3   2   15.51    0.78
  -2  -3   2   15.84    0.78
   1   3  -2   49.37    2.82
   1   3  -2   48.13    2.83
   1   3  -2   45.97    2.37
   1   3  -2   48.24    2.37
   1   3  -2   51.41    2.73
  -1  -3   2   49.74    2.37
  -1  -3   2   49.57    2.37
   0   3  -2   82.75    4.06
   0   3  -2   81.16    4.07
   0   3  -2   84.41    4.70
   0   3  -2   88.03    4.86
   0  -3   2   81.57    4.70
   0  -3   2   89.25    4.07
   0  -3   2   83.66    4.85
   0  -3   2   85.98    4.06
  -1   3  -2   45.95    2.23
  -1   3  -2   43.77    2.56
  -1   3  -2   43.90    2.24
  -1   3  -2   45.04    2.65
   1  -3   2   46.91    2.56
   1  -3   2   49.43    2.23
  -2   3  -2   57.05    2.97
  -2   3  -2   58.95    2.99
   2  -3   2   65.51    3.43
   2  -3   2   64.52    3.54
   2  -3   2   60.93    2.97
   2  -3   2   61.49    2.97
   3  -3   2    0.32    0.15
   3  -3   2    0.41    0.19
   3  -3   2    0.42    0.14
   4  -3   2   11.63    0.69
   4  -3   2   11.23    0.72
   4  -3   2   11.69    0.85
   5  -3   2    1.32    0.10
   5  -3   2    0.70    0.18
   5  -3   2    1.03    0.16
   5  -3   2    1.54    0.16
   5  -3   2    0.84    0.30
   5  -3   2    0.98    0.16
   5  -3   2    1.73    0.20
   5  -3   2    1.22    0.12
   5  -3   2    1.37    0.15
   6  -3   2    1.82    0.22
   6  -3   2    1.10    0.32
   6  -3   2    1.99    0.24
   6  -3   2    1.95    0.13
   6  -3   2    2.06    0.21
   7  -3   2    1.88    0.19
   7  -3   2    2.27    0.19
   7  -3   2    2.16    0.13
   7  -3   2    2.16    0.21
   8  -3   2    0.08    0.12
   8  -3   2    0.07    0.11
   8  -3   2   -0.07    0.08
   9  -3   2   -0.08    0.10
   9  -3   2   -0.11    0.08
   9   2  -2    0.80    0.13
   9   2  -2    0.55    0.11
   8   2  -2    1.14    0.19
   8   2  -2    1.61    0.19
   8   2  -2    1.60    0.14
   8   2  -2    1.56    0.17
   7   2  -2    0.54    0.11
   7   2  -2    0.55    0.14
   7   2  -2    0.65    0.17
   7   2  -2    0.54    0.09
   7   2  -2    0.61    0.15
   6   2  -2    0.15    0.09
   6   2  -2   -0.02    0.11
   6   2  -2    0.01    0.22
   6   2  -2    0.08    0.09
   6   2  -2    0.14    0.08
   6   2  -2   -0.03    0.15
   6   2  -2    0.03    0.13
   5   2  -2    9.70    0.76
   5   2  -2   10.37    0.60
   5   2  -2   10.57    0.70
   5   2  -2   10.64    0.66
   5   2  -2   10.99    0.50
   5   2  -2   10.64    0.57
   4   2  -2    1.40    0.22
   3   2  -2    2.78    0.25
   3   2  -2    2.90    0.17
   3   2  -2    2.71    0.17
   3   2  -2    2.47    0.15
   3   2  -2    2.66    0.17
   3   2  -2    2.57    0.15
   3   2  -2    2.67    0.17
  -3  -2   2    2.33    0.15
  -3  -2   2    2.24    0.15
   2   2  -2    8.43    0.50
   2   2  -2    7.99    0.50
   2   2  -2    8.41    0.42
   2   2  -2    8.21    0.43
   2   2  -2    8.84    0.48
   2   2  -2    8.36    0.52
   2   2  -2    7.31    0.48
  -2  -2   2    8.62    0.43
  -2  -2   2    8.41    0.43
   1   2  -2   11.16    0.58
   1   2  -2    9.95    0.66
   1   2  -2   11.94    0.64
   1   2  -2   11.51    0.57
   1   2  -2   11.21    0.67
   1   2  -2    9.65    0.64
   1   2  -2   11.49    0.67
  -1  -2   2   12.25    0.57
   0   2  -2    5.22    0.31
   0   2  -2    5.61    0.36
   0   2  -2    5.61    0.34
   0   2  -2    5.23    0.33
   0  -2   2    5.17    0.34
   0  -2   2    5.97    0.32
  -1   2  -2    9.29    0.49
  -1   2  -2    8.34    0.53
  -1   2  -2    8.54    0.55
  -1   2  -2    9.03    0.48
   1  -2   2    9.47    0.48
   1  -2   2    9.41    0.54
   1  -2   2    9.06    0.55
   1  -2   2    9.25    0.48
  -2   2  -2    0.43    0.16
  -2   2  -2    0.35    0.10
  -2   2  -2    0.36    0.11
  -2   2  -2    0.34    0.11
   2  -2   2    0.43    0.11
   2  -2   2    0.58    0.14
   2  -2   2    0.42    0.11
   2  -2   2    0.36    0.11
   3  -2   2  130.97    7.95
   3  -2   2  126.24    6.97
   3  -2   2  115.10    5.82
   3  -2   2  111.14    5.82
   3  -2   2  125.09    6.74
   4  -2   2   15.07    0.83
   4  -2   2   13.95    1.01
   4  -2   2   14.06    0.86
   5  -2   2    1.02    0.27
   5  -2   2    1.27    0.11
   5  -2   2    1.24    0.14
   5  -2   2    1.37    0.09
   5  -2   2    1.28    0.17
   5  -2   2    1.19    0.15
   5  -2   2    1.00    0.15
   5  -2   2    1.42    0.15
   6  -2   2    1.99    0.24
   6  -2   2    2.52    0.28
   6  -2   2    2.13    0.19
   6  -2   2    1.88    0.19
   6  -2   2    1.85    0.13
   7  -2   2   -0.03    0.11
   7  -2   2    0.10    0.18
   7  -2   2    0.07    0.12
   7  -2   2   -0.01    0.05
   7  -2   2    0.00    0.14
   8  -2   2    1.93    0.22
   8  -2   2    1.79    0.20
   9  -2   2    0.24    0.07
   9  -2   2    0.33    0.10
   9   1  -2    1.72    0.20
   9   1  -2    1.67    0.18
   8   1  -2    2.90    0.28
   8   1  -2    2.50    0.21
   8   1  -2    2.19    0.20
   8   1  -2    2.44    0.18
   8   1  -2    2.95    0.25
   7   1  -2    0.09    0.07
   7   1  -2    0.05    0.10
   7   1  -2    0.32    0.17
   7   1  -2    0.35    0.14
   7   1  -2    0.25    0.10
   7   1  -2    0.20    0.14
   7   1  -2    0.10    0.12
   6   1  -2    3.35    0.19
   6   1  -2    3.31    0.25
   6   1  -2    3.13    0.34
   6   1  -2    3.39    0.22
   6   1  -2    3.25    0.25
   6   1  -2    2.93    0.27
   6   1  -2    3.41    0.32
   6   1  -2    3.40    0.22
   6   1  -2    3.46    0.25
   5   1  -2   29.21    1.96
   5   1  -2   29.39    1.74
   4   1  -2   13.35    0.84
   4   1  -2   13.91    0.94
   3   1  -2   29.99    1.96
   3   1  -2   29.14    1.73
   2   1  -2    5.60    0.39
   2   1  -2    5.98    0.36
   2   1  -2    6.09    0.45
   2   1  -2    6.12    0.36
   2   1  -2    6.42    0.35
   2   1  -2    6.05    0.35
   2   1  -2    6.15    0.31
   2   1  -2    6.30    0.31
  -2  -1   2    6.37    0.31
  -2  -1   2    6.55    0.31
   1   1  -2  181.93    8.36
   1   1  -2  164.87   10.02
   1   1  -2  166.12    9.70
  -1  -1   2  181.31    8.35
  -1  -1   2  180.27    8.34
   0   1  -2  264.48   14.99
   0   1  -2  268.58   12.49
   0   1  -2  254.58   14.52
   0   1  -2  274.43   12.49
   0  -1   2  273.78   12.48
   0  -1   2  273.53   12.50
   0  -1   2  237.00   14.51
   0  -1   2  247.39   14.99
  -1   1  -2   17.56    1.07
  -1   1  -2   17.66    1.04
  -1   1  -2   19.29    0.91
  -1   1  -2   19.39    0.92
   1  -1   2   17.55    1.04
   1  -1   2   19.00    0.91
   1  -1   2   18.30    1.07
   1  -1   2   19.24    0.91
  -2   1  -2  166.65    7.63
   2  -1   2  162.11    7.62
   2  -1   2  152.46    9.14
   2  -1   2  172.04    8.86
   2  -1   2  164.58    9.15
   2  -1   2  160.31    7.62
   2  -1   2  142.32    8.85
  -3   1  -2   68.83    3.27
  -3   1  -2   61.94    3.26
   3  -1   2   73.38    3.90
   3  -1   2   69.29    3.90
   3  -1   2   74.78    3.78
   3  -1   2   65.95    3.78
   3  -1   2   64.83    3.26
   3  -1   2   66.22    3.26
   3  -1   2   67.02    4.45
   4  -1   2    9.12    0.53
   4  -1   2    8.71    0.66
   4  -1   2    9.30    0.55
   5  -1   2    2.50    0.20
   5  -1   2    2.48    0.25
   5  -1   2    2.70    0.28
   5  -1   2    2.91    0.23
   6  -1   2    1.63    0.19
   6  -1   2    1.31    0.11
   6  -1   2    1.48    0.18
   6  -1   2    1.78    0.26
   6  -1   2    1.70    0.18
   7  -1   2    0.87    0.17
   7  -1   2    0.79    0.15
   7  -1   2    1.27    0.21
   8  -1   2   -0.01    0.12
   8  -1   2    0.05    0.13
   8  -1   2    0.04    0.16
   9  -1   2   -0.12    0.08
   9  -1   2   -0.02    0.10
   9   0  -2    2.36    0.21
   9   0  -2    2.03    0.16
   8   0  -2    0.50    0.17
   8   0  -2    0.23    0.11
   8   0  -2    0.40    0.13
   8   0  -2    0.28    0.12
   8   0  -2    0.62    0.15
   7   0  -2    1.43    0.17
   7   0  -2    1.92    0.25
   7   0  -2    1.44    0.14
   7   0  -2    1.27    0.18
   7   0  -2    1.73    0.17
   7   0  -2    1.81    0.17
   6   0  -2   22.35    1.23
   6   0  -2   22.62    1.29
   6   0  -2   21.60    1.01
   6   0  -2   23.03    1.22
   6   0  -2   21.25    1.50
   6   0  -2   21.97    1.41
   6   0  -2   20.54    1.16
   6   0  -2   21.51    1.34
   6   0  -2   21.38    1.54
   5   0  -2    6.72    0.47
   5   0  -2    7.21    0.55
   4   0  -2    0.65    0.17
   4   0  -2    0.94    0.15
   3   0  -2   22.44    1.34
   3   0  -2   23.28    1.53
   2   0  -2  105.79    6.57
   2   0  -2  112.64    6.55
   2   0  -2  118.89    5.46
   2   0  -2  114.44    6.36
   2   0  -2  116.54    7.48
   2   0  -2  110.80    5.45
   2   0  -2  116.46    6.58
   2   0  -2  118.09    6.36
  -2   0   2  115.62    5.46
  -2   0   2  118.24    5.45
   1   0  -2  414.14   24.17
   1   0  -2  422.72   24.17
   1   0  -2  448.31   20.13
   1   0  -2  398.12   23.40
   1   0  -2  432.89   23.40
   1   0  -2  406.91   27.57
  -1   0   2  438.15   20.13
   0   0  -2    4.68    0.29
   0   0  -2    4.49    0.28
   0   0  -2    4.95    0.27
   0   0  -2    5.11    0.26
   0   0   2    5.01    0.26
   0   0   2    5.04    0.26
   0   0   2    4.64    0.29
   0   0   2    4.38    0.29
  -1   0  -2    0.05    0.08
  -1   0  -2    0.17    0.09
  -1   0  -2    0.21    0.08
  -1   0  -2    0.07    0.08
   1   0   2    0.31    0.11
   1   0   2    0.11    0.08
   1   0   2    0.28    0.09
   1   0   2    0.18    0.12
   1   0   2    0.13    0.08
   1   0   2    0.02    0.06
  -2   0  -2    9.25    0.46
  -2   0  -2    9.25    0.46
   2   0   2    9.43    0.56
   2   0   2    8.12    0.60
   2   0   2    8.52    0.53
   2   0   2    9.07    0.47
   2   0   2    8.86    0.54
   2   0   2    7.94    0.51
   2   0   2    9.17    0.52
   2   0   2    8.73    0.46
  -3   0  -2   88.08    4.33
  -3   0  -2   92.05    4.33
   3   0   2   88.93    4.33
   3   0   2   94.49    5.22
   3   0   2   94.93    5.02
   3   0   2   83.80    5.90
   3   0   2   87.79    5.18
   3   0   2  101.24    5.18
   3   0   2   87.58    4.33
   3   0   2   86.52    5.01
   4   0   2   14.47    0.84
   4   0   2   12.15    0.78
   4   0   2   13.31    0.75
   4   0   2   12.70    0.75
   4   0   2   13.81    0.78
   5   0   2    3.97    0.36
   5   0   2    4.49    0.31
   5   0   2    4.68    0.39
   5   0   2    5.09    0.33
   5   0   2    4.37    0.23
   5   0   2    5.12    0.28
   6   0   2    0.91    0.13
   6   0   2    1.06    0.16
   6   0   2    1.16    0.16
   6   0   2    0.80    0.17
   7   0   2    0.45    0.13
   7   0   2    0.73    0.19
   7   0   2    0.56    0.15
   7   0   2    0.41    0.14
   8   0   2    0.22    0.14
   8   0   2    0.05    0.11
   8   0   2    0.15    0.16
   9   0   2    0.98    0.15
   9   0   2    1.03    0.13
   9  -1  -2    4.44    0.28
   9  -1  -2    4.63    0.34
   8  -1  -2   13.35    0.73
   8  -1  -2   11.74    0.77
   8  -1  -2   13.41    0.93
   8  -1  -2   12.80    0.85
   7  -1  -2    0.08    0.14
   7  -1  -2    0.01    0.12
   7  -1  -2    0.26    0.17
   7  -1  -2    0.16    0.09
   7  -1  -2   -0.07    0.13
   6  -1  -2    2.10    0.19
   6  -1  -2    2.02    0.22
   6  -1  -2    1.44    0.32
   6  -1  -2    1.95    0.19
   6  -1  -2    1.94    0.24
   6  -1  -2    2.25    0.26
   6  -1  -2    2.04    0.17
   5  -1  -2   27.62    1.62
   5  -1  -2   31.29    1.99
   4  -1  -2    0.99    0.24
   4  -1  -2    0.81    0.06
   3  -1  -2    7.67    0.48
   3  -1  -2    7.63    0.41
   3  -1  -2    7.90    0.46
   3  -1  -2    8.08    0.47
   3  -1  -2    7.94    0.41
   3  -1  -2    8.44    0.48
   3  -1  -2    7.69    0.58
  -3   1   2    8.17    0.42
  -3   1   2    7.95    0.41
   2  -1  -2    3.65    0.21
   2  -1  -2    3.63    0.24
   2  -1  -2    3.41    0.25
   2  -1  -2    3.66    0.25
   2  -1  -2    3.40    0.22
   2  -1  -2    3.71    0.31
   2  -1  -2    3.46    0.23
  -2   1   2    3.68    0.23
  -2   1   2    3.62    0.22
   1  -1  -2    6.62    0.33
   1  -1  -2    5.97    0.44
   1  -1  -2    5.27    0.38
   1  -1  -2    5.91    0.38
   1  -1  -2    6.43    0.37
   1  -1  -2    6.76    0.34
  -1   1   2    6.47    0.34
  -1   1   2    6.70    0.35
  -1   1   2    5.89    0.37
  -1   1   2    5.49    0.38
   0  -1  -2    1.62    0.15
   0  -1  -2    1.57    0.15
   0  -1  -2    1.35    0.15
   0  -1  -2    1.39    0.14
   0  -1  -2    1.27    0.14
   0   1   2    1.19    0.14
   0   1   2    1.50    0.14
   0   1   2    1.53    0.16
   0   1   2    1.13    0.13
   0   1   2    1.42    0.14
  -1  -1  -2  832.13   53.48
  -1  -1  -2  895.12   51.79
  -1  -1  -2  956.54   44.55
  -1  -1  -2 1000.00   44.57
   1   1   2  979.10   51.83
   1   1   2  848.43   53.50
   1   1   2  990.49   44.56
   1   1   2  960.94   53.68
   1   1   2  927.60   53.52
   1   1   2  978.88   44.57
  -2  -1  -2  395.15   18.43
  -2  -1  -2  394.88   18.43
   2   1   2  385.24   18.44
   2   1   2  396.55   22.24
   2   1   2  339.96   21.42
   2   1   2  420.18   22.22
   2   1   2  374.40   22.13
   2   1   2  408.32   21.52
   2   1   2  377.53   18.43
   3   1   2    9.03    0.56
   3   1   2    8.88    0.50
   3   1   2    7.59    0.48
   3   1   2    7.67    0.50
   3   1   2    8.63    0.50
   3   1   2    7.19    0.43
   4   1   2    4.71    0.30
   4   1   2    4.92    0.39
   4   1   2    4.25    0.30
   5   1   2    1.12    0.10
   5   1   2    0.89    0.14
   5   1   2    1.20    0.13
   5   1   2    1.19    0.18
   5   1   2    1.13    0.13
   5   1   2    0.88    0.26
   5   1   2    0.95    0.11
   6   1   2    8.99    0.56
   6   1   2    9.01    0.60
   6   1   2    8.84    0.66
   6   1   2    8.20    0.40
   6   1   2    7.72    0.51
   7   1   2    1.74    0.21
   7   1   2    1.56    0.21
   7   1   2    1.86    0.26
   7   1   2    1.65    0.18
   8   1   2    0.97    0.16
   8   1   2    1.20    0.19
   9   1   2   -0.03    0.11
   9   1   2   -0.12    0.09
   9  -2  -2    0.62    0.10
   9  -2  -2    0.39    0.10
   8  -2  -2    8.23    0.56
   8  -2  -2    9.49    0.61
   8  -2  -2    8.89    0.53
   7  -2  -2   14.42    0.81
   7  -2  -2   15.17    0.94
   7  -2  -2   14.12    0.86
   7  -2  -2   13.14    0.81
   6  -2  -2    6.56    0.52
   6  -2  -2    6.27    0.40
   6  -2  -2    7.29    0.48
   6  -2  -2    6.55    0.43
   6  -2  -2    6.42    0.31
   6  -2  -2    6.70    0.40
   6  -2  -2    5.91    0.59
   5  -2  -2    3.75    0.35
   5  -2  -2    4.17    0.28
   5  -2  -2    3.89    0.26
   5  -2  -2    4.17    0.26
   5  -2  -2    3.96    0.20
   5  -2  -2    4.23    0.31
   5  -2  -2    4.16    0.44
   4  -2  -2    2.04    0.19
   4  -2  -2    2.06    0.30
   3  -2  -2    8.55    0.48
   3  -2  -2    9.33    0.55
   3  -2  -2    9.15    0.66
   3  -2  -2    9.44    0.54
   3  -2  -2    8.39    0.47
   2  -2  -2   21.88    1.46
   2  -2  -2   22.40    1.27
   2  -2  -2   23.34    1.23
   2  -2  -2   21.66    1.08
  -2   2   2   21.21    1.09
  -2   2   2   19.55    1.08
   1  -2  -2   18.06    1.01
   1  -2  -2   18.45    0.89
   1  -2  -2   18.53    1.18
   1  -2  -2   18.17    0.90
   1  -2  -2   18.52    1.04
  -1   2   2   16.50    1.01
  -1   2   2   17.13    0.89
  -1   2   2   17.29    1.04
  -1   2   2   17.78    0.90
  -1   2   2   16.05    1.02
   0  -2  -2   39.08    2.18
   0  -2  -2   41.30    1.90
   0  -2  -2   40.74    1.90
   0  -2  -2   37.40    2.55
   0  -2  -2   38.90    2.26
   0   2   2   39.31    2.19
   0   2   2   39.31    1.90
   0   2   2   36.85    2.25
   0   2   2   39.16    2.26
   0   2   2   38.82    1.90
  -1  -2  -2  108.92    6.61
  -1  -2  -2  119.39    5.53
  -1  -2  -2  115.12    5.53
  -1  -2  -2  101.88    6.40
   1   2   2  120.25    6.40
   1   2   2  118.71    6.63
   1   2   2  116.97    5.53
   1   2   2  115.29    5.53
   1   2   2  123.12    6.61
  -2  -2  -2  115.92    5.42
  -2  -2  -2  105.24    5.42
   2   2   2  108.19    5.42
   2   2   2  115.87    6.27
   2   2   2  119.35    6.48
   2   2   2  120.52    6.51
   2   2   2  106.47    5.41
   3   2   2   43.08    2.53
   3   2   2   42.80    2.49
   3   2   2   43.53    2.42
   4   2   2    3.57    0.22
   4   2   2    3.75    0.36
   4   2   2    3.06    0.27
   4   2   2    3.52    0.26
   4   2   2    3.21    0.26
   4   2   2    3.15    0.18
   4   2   2    3.34    0.31
   4   2   2    3.12    0.26
   4   2   2    3.43    0.18
   5   2   2    0.21    0.25
   5   2   2    0.31    0.07
   5   2   2    0.36    0.11
   5   2   2    0.32    0.15
   5   2   2    0.33    0.14
   5   2   2    0.32    0.12
   6   2   2    0.89    0.13
   6   2   2    0.62    0.27
   6   2   2    0.68    0.19
   6   2   2    0.65    0.07
   6   2   2    0.61    0.17
   7   2   2    3.78    0.36
   7   2   2    4.09    0.33
   7   2   2    3.37    0.28
   8   2   2    0.08    0.11
   8   2   2    0.11    0.15
   8   2   2   -0.04    0.10
   9  -3  -2    0.81    0.10
   9  -3  -2    0.56    0.10
   8  -3  -2    2.60    0.22
   8  -3  -2    2.51    0.19
   7  -3  -2    0.79    0.15
   7  -3  -2    0.74    0.11
   7  -3  -2    0.42    0.06
   7  -3  -2    0.39    0.15
   7  -3  -2    0.45    0.11
   6  -3  -2    4.06    0.28
   6  -3  -2    3.78    0.49
   6  -3  -2    4.56    0.32
   6  -3  -2    4.37    0.23
   6  -3  -2    4.07    0.29
   6  -3  -2    4.99    0.34
   5  -3  -2   11.20    0.68
   5  -3  -2   10.70    0.63
   5  -3  -2    9.56    0.62
   5  -3  -2   10.32    0.48
   5  -3  -2   10.06    0.60
   5  -3  -2    8.52    0.60
   5  -3  -2    9.93    0.58
   5  -3  -2   10.83    0.80
   5  -3  -2   10.11    0.50
   4  -3  -2   11.50    0.72
   4  -3  -2   11.63    0.85
   4  -3  -2   11.48    0.70
   3  -3  -2    0.61    0.15
   3  -3  -2    0.70    0.15
   3  -3  -2    0.49    0.22
   2  -3  -2    3.91    0.31
   2  -3  -2    4.43    0.38
   2  -3  -2    4.32    0.31
   2  -3  -2    4.32    0.32
  -2   3   2    3.75    0.30
   1  -3  -2    0.80    0.15
   1  -3  -2    0.77    0.17
   1  -3  -2    0.50    0.12
   1  -3  -2    0.74    0.15
   1  -3  -2    0.52    0.14
  -1   3   2    0.83    0.15
  -1   3   2    0.58    0.15
  -1   3   2    0.65    0.12
  -1   3   2    0.67    0.15
  -1   3   2    0.66    0.15
   0  -3  -2   41.01    2.02
   0  -3  -2   41.09    2.38
   0  -3  -2   41.13    2.69
   0  -3  -2   41.33    2.01
   0  -3  -2   41.12    2.31
   0   3   2   43.46    2.39
   0   3   2   40.75    2.38
   0   3   2   39.35    2.02
   0   3   2   41.71    2.31
   0   3   2   39.11    2.02
  -1  -3  -2   27.55    1.38
   1   3   2   27.84    1.62
   1   3   2   24.55    1.38
   1   3   2   29.07    1.57
   1   3   2   28.35    1.62
   2   3   2   12.33    0.78
   2   3   2   12.61    0.77
   2   3   2   12.19    0.74
   3   3   2    0.45    0.17
   3   3   2    0.51    0.22
   3   3   2    0.47    0.16
   4   3   2    0.57    0.09
   4   3   2    0.80    0.12
   4   3   2    0.83    0.12
   4   3   2    0.75    0.15
   4   3   2    0.68    0.16
   4   3   2    0.60    0.17
   4   3   2    0.59    0.24
   4   3   2    0.64    0.07
   4   3   2    0.92    0.17
   5   3   2    0.12    0.11
   5   3   2    0.08    0.15
   5   3   2    0.20    0.25
   5   3   2    0.32    0.12
   5   3   2   -0.18    0.16
   5   3   2    0.13    0.07
   6   3   2    1.15    0.10
   6   3   2    1.12    0.18
   6   3   2    0.94    0.18
   6   3   2    1.12    0.15
   7   3   2    0.14    0.14
   7   3   2    0.35    0.16
   7   3   2    0.34    0.13
   8   3   2    0.00    0.10
   8   3   2    0.06    0.11
   8   3   2   -0.05    0.10
   9  -4  -2    0.09    0.07
   9  -4  -2    0.04    0.07
   8  -4  -2    1.45    0.15
   8  -4  -2    1.51    0.18
   7  -4  -2    0.42    0.10
   7  -4  -2    0.60    0.11
   7  -4  -2    0.43    0.12
   7  -4  -2    0.55    0.07
   6  -4  -2    7.39    0.36
   6  -4  -2    6.13    0.64
   6  -4  -2    7.68    0.43
   6  -4  -2    7.83    0.48
   6  -4  -2    6.97    0.44
   5  -4  -2    4.93    0.25
   5  -4  -2    4.45    0.31
   5  -4  -2    4.16    0.35
   5  -4  -2    4.11    0.35
   5  -4  -2    4.64    0.46
   5  -4  -2    4.99    0.25
   5  -4  -2    4.85    0.32
   5  -4  -2    4.72    0.29
   4  -4  -2    0.06    0.09
   4  -4  -2    0.00    0.20
   4  -4  -2    0.05    0.17
   4  -4  -2   -0.02    0.07
   4  -4  -2   -0.03    0.08
   4  -4  -2   -0.06    0.08
   4  -4  -2    0.11    0.17
   3  -4  -2    2.29    0.31
   3  -4  -2    2.18    0.24
   3  -4  -2    1.91    0.18
   3  -4  -2    2.05    0.24
   2  -4  -2    2.23    0.26
   2  -4  -2    2.58    0.26
   2  -4  -2    2.61    0.29
   1  -4  -2   41.19    2.43
   1  -4  -2   41.21    2.75
   1  -4  -2   42.54    2.36
   0   4   2    6.38    0.44
   0   4   2    6.68    0.45
   0   4   2    6.77    0.48
   1   4   2    0.10    0.16
   1   4   2    0.13    0.15
   1   4   2    0.11    0.17
   2   4   2    3.25    0.29
   2   4   2    3.20    0.30
   2   4   2    2.71    0.21
   2   4   2    2.77    0.27
   2   4   2    2.58    0.17
   3   4   2    8.63    0.49
   3   4   2    9.05    0.43
   3   4   2    8.83    0.66
   3   4   2    9.40    0.53
   3   4   2    9.30    0.45
   3   4   2    8.97    0.57
   3   4   2    8.74    0.63
   3   4   2    9.01    0.60
   3   4   2    7.96    0.56
   4   4   2    1.69    0.20
   4   4   2    2.05    0.19
   4   4   2    1.92    0.20
   4   4   2    2.42    0.27
   4   4   2    2.02    0.15
   4   4   2    1.97    0.23
   4   4   2    1.49    0.31
   4   4   2    2.00    0.14
   4   4   2    1.24    0.22
   5   4   2    2.02    0.26
   5   4   2    2.67    0.16
   5   4   2    2.42    0.23
   5   4   2    1.43    0.34
   5   4   2    2.86    0.30
   6   4   2    0.84    0.14
   6   4   2    0.34    0.14
   6   4   2    0.66    0.07
   6   4   2    0.48    0.18
   7   4   2    0.16    0.15
   7   4   2    0.29    0.11
   8  -5  -2    0.06    0.09
   7  -5  -2    0.70    0.11
   7  -5  -2    0.57    0.07
   7  -5  -2    0.69    0.10
   7  -5  -2    0.79    0.09
   6  -5  -2    5.10    0.26
   6  -5  -2    5.23    0.33
   6  -5  -2    5.09    0.34
   6  -5  -2    4.96    0.26
   5  -5  -2    1.44    0.14
   5  -5  -2    1.32    0.16
   5  -5  -2    1.41    0.13
   5  -5  -2    1.52    0.16
   5  -5  -2    0.98    0.32
   4  -5  -2    0.11    0.11
   4  -5  -2    0.07    0.25
   4  -5  -2    0.09    0.08
   4  -5  -2    0.16    0.20
   4  -5  -2    0.19    0.08
   4  -5  -2    0.06    0.08
   3  -5  -2    4.53    0.37
   3  -5  -2    4.24    0.42
   3  -5  -2    4.74    0.36
   3  -5  -2    4.17    0.30
   3  -5  -2    3.90    0.24
   2  -5  -2    8.51    0.55
   2  -5  -2    9.30    0.68
   2  -5  -2    9.69    0.61
   2  -5  -2    8.76    0.62
   0   5   2    3.24    0.26
   1   5   2    0.60    0.20
   1   5   2    0.53    0.23
   1   5   2    0.57    0.08
   1   5   2    0.57    0.11
   1   5   2    0.49    0.18
   2   5   2    2.49    0.30
   2   5   2    2.27    0.33
   2   5   2    2.47    0.18
   2   5   2    2.43    0.28
   2   5   2    2.33    0.17
   2   5   2    2.73    0.22
   3   5   2    5.69    0.30
   3   5   2    5.05    0.43
   3   5   2    4.88    0.47
   3   5   2    5.70    0.34
   3   5   2    5.76    0.45
   3   5   2    5.95    0.30
   3   5   2    5.10    0.43
   4   5   2    1.15    0.11
   4   5   2    0.95    0.14
   4   5   2    1.01    0.11
   4   5   2    1.14    0.20
   5   5   2    0.12    0.12
   5   5   2   -0.23    0.17
   5   5   2   -0.02    0.08
   6   5   2    0.07    0.05
   6   5   2    0.11    0.10
   6   5   2    0.18    0.16
   7   5   2   -0.03    0.07
   7   5   2   -0.06    0.12
   7  -6  -2    0.87    0.08
   7  -6  -2    1.00    0.11
   7  -6  -2    1.04    0.10
   6  -6  -2    0.15    0.08
   6  -6  -2    0.15    0.10
   6  -6  -2    0.07    0.05
   6  -6  -2    0.08    0.07
   5  -6  -2    0.66    0.09
   5  -6  -2    0.35    0.12
   5  -6  -2    0.49    0.09
   5  -6  -2    0.64    0.10
   4  -6  -2    1.27    0.16
   4  -6  -2    1.54    0.14
   4  -6  -2    1.54    0.14
   3  -6  -2    2.04    0.17
   3  -6  -2    2.30    0.29
   3  -6  -2    2.23    0.21
   3  -6  -2    2.04    0.32
   2  -6  -2    1.82    0.22
   0   6   2    0.15    0.12
   1   6   2    0.03    0.09
   1   6   2   -0.11    0.22
   1   6   2    0.03    0.11
   2   6   2    1.79    0.16
   2   6   2    1.90    0.18
   2   6   2    2.01    0.19
   3   6   2    1.96    0.17
   3   6   2    1.71    0.16
   3   6   2    1.91    0.27
   4   6   2    1.05    0.20
   4   6   2    1.09    0.10
   4   6   2    0.78    0.11
   5   6   2    0.15    0.08
   5   6   2   -0.07    0.12
   6   6   2   -0.01    0.10
   7  -7  -2   -0.01    0.04
   6  -7  -2   -0.08    0.06
   6  -7  -2    0.09    0.08
   5  -7  -2    0.32    0.08
   5  -7  -2    0.15    0.07
   5  -7  -2    0.22    0.08
   4  -7  -2    0.13    0.08
   4  -7  -2    0.11    0.09
   4  -7  -2    0.03    0.06
   3  -7  -2    1.90    0.19
   3  -7  -2    2.00    0.16
   2  -7  -2   -0.03    0.12
   1  -7  -2   -0.15    0.13
  -1   7   2    0.10    0.12
   0   7   2   -0.01    0.10
   1   7   2   -0.08    0.09
   1   7   2   -0.03    0.11
   2   7   2    0.11    0.09
   2   7   2    0.13    0.07
   2   7   2    0.15    0.16
   2   7   2    0.13    0.10
   3   7   2    0.17    0.16
   3   7   2    0.22    0.10
   3   7   2    0.07    0.07
   4   7   2    0.12    0.15
   4   7   2    0.07    0.08
   5   7   2    0.16    0.12
   5   7   2    0.19    0.05
   5  -8  -2    0.69    0.07
   5  -8  -2    0.62    0.08
   5  -8  -2    0.42    0.07
   4  -8  -2   -0.03    0.09
   4  -8  -2    0.05    0.07
   3  -8  -2    0.00    0.08
   3  -8  -2   -0.05    0.08
   2  -8  -2    2.55    0.20
  -2   8   2    1.91    0.21
   1  -8  -2    0.27    0.11
  -1   8   2    0.13    0.11
   0   8   2    0.19    0.10
   1   8   2    0.02    0.07
   1   8   2    0.06    0.14
   1   8   2    0.02    0.09
   2   8   2   -0.05    0.06
   2   8   2    0.11    0.11
   3   8   2    0.33    0.13
   3   8   2    0.10    0.07
   3   8   2    0.14    0.05
   3  -9  -2   -0.02    0.05
   2  -9  -2    0.83    0.10
  -2   9   2    0.43    0.09
   1  -9  -2    0.23    0.08
  -1   9   2    0.11    0.07
   0   9   2    0.55    0.11
   0   9   2    0.32    0.07
   1   9   2    0.06    0.09
   1   9   2    0.00    0.06
  -1  10  -3    0.10    0.05
   1 -10   3    0.15    0.06
   2 -10   3    0.83    0.09
   3   9  -3    0.06    0.06
   3   9  -3    0.32    0.11
   2   9  -3    0.47    0.13
   2   9  -3    0.19    0.08
   2   9  -3    0.26    0.07
   1   9  -3   -0.13    0.07
   1   9  -3    0.09    0.13
   0   9  -3    0.42    0.09
   0   9  -3    0.34    0.09
  -1   9  -3    1.55    0.19
   1  -9   3    1.61    0.19
  -2   9  -3    0.10    0.11
   2  -9   3    0.18    0.10
   3  -9   3    0.16    0.07
   5   8  -3    0.25    0.13
   5   8  -3    0.21    0.08
   5   8  -3    0.17    0.04
   4   8  -3    0.35    0.12
   4   8  -3    0.35    0.16
   4   8  -3    0.25    0.07
   3   8  -3   -0.04    0.09
   3   8  -3    0.06    0.07
   3   8  -3    0.19    0.11
   3   8  -3    0.24    0.15
   2   8  -3   -0.07    0.09
   2   8  -3    0.09    0.09
   2   8  -3    0.21    0.16
   2   8  -3    0.17    0.11
   1   8  -3    1.31    0.14
   1   8  -3    1.72    0.19
   1   8  -3    1.47    0.17
   0   8  -3   14.65    0.97
   0   8  -3   16.77    0.94
  -1   8  -3   -0.12    0.13
   2  -8   3   -0.21    0.12
   3  -8   3    0.21    0.09
   3  -8   3    0.34    0.10
   3  -8   3    0.33    0.10
   4  -8   3    0.08    0.08
   4  -8   3    0.10    0.10
   5  -8   3    0.35    0.07
   5  -8   3    0.30    0.09
   5  -8   3    0.44    0.07
   6  -8   3    0.31    0.06
   6   7  -3    0.04    0.10
   6   7  -3    0.21    0.12
   5   7  -3    0.04    0.11
   5   7  -3    0.00    0.07
   5   7  -3    0.07    0.14
   4   7  -3    0.03    0.05
   4   7  -3    0.21    0.11
   4   7  -3    0.05    0.08
   4   7  -3    0.33    0.16
   3   7  -3    0.07    0.08
   3   7  -3    0.02    0.13
   3   7  -3    0.05    0.09
   3   7  -3   -0.12    0.17
   2   7  -3    0.05    0.09
   2   7  -3    0.14    0.10
   2   7  -3    0.05    0.13
   2   7  -3   -0.02    0.08
   2   7  -3   -0.04    0.24
   1   7  -3    1.47    0.28
   1   7  -3    1.92    0.30
   1   7  -3    1.65    0.18
   1   7  -3    1.62    0.20
   1   7  -3    1.77    0.16
   0   7  -3    2.57    0.32
   0   7  -3    2.48    0.26
  -1   7  -3    6.19    0.48
  -1   7  -3    6.00    0.42
   1  -7   3    6.47    0.54
   2  -7   3    2.12    0.33
   2  -7   3    2.22    0.22
   3  -7   3    0.43    0.11
   3  -7   3    0.28    0.10
   4  -7   3   -0.06    0.09
   4  -7   3   -0.03    0.08
   4  -7   3   -0.18    0.08
   5  -7   3    0.32    0.09
   5  -7   3    0.42    0.08
   5  -7   3    0.49    0.10
   6  -7   3    0.11    0.04
   6  -7   3    0.14    0.08
   6  -7   3    0.12    0.10
   7  -7   3    0.27    0.07
   7  -7   3    0.28    0.05
   7   6  -3    0.27    0.11
   7   6  -3    0.31    0.08
   7   6  -3    0.28    0.14
   6   6  -3    0.05    0.11
   6   6  -3    0.00    0.15
   6   6  -3   -0.03    0.08
   5   6  -3    1.84    0.17
   5   6  -3    2.22    0.23
   5   6  -3    2.05    0.26
   5   6  -3    1.96    0.14
   4   6  -3    0.24    0.08
   4   6  -3    0.36    0.27
   4   6  -3    0.16    0.14
   4   6  -3    0.08    0.16
   4   6  -3    0.19    0.09
   4   6  -3    0.07    0.06
   3   6  -3    5.97    0.50
   3   6  -3    5.89    0.31
   3   6  -3    6.26    0.32
   3   6  -3    5.74    0.48
   3   6  -3    4.93    0.46
   3   6  -3    6.55    0.42
   3   6  -3    5.79    0.43
   2   6  -3    3.26    0.32
   2   6  -3    3.22    0.37
   2   6  -3    3.61    0.21
   2   6  -3    3.56    0.37
   2   6  -3    3.63    0.22
   2   6  -3    3.43    0.28
   2   6  -3    3.60    0.26
   1   6  -3    0.24    0.20
   1   6  -3    0.13    0.22
   1   6  -3    0.23    0.08
   1   6  -3    0.46    0.23
   1   6  -3    0.00    0.11
   0   6  -3    0.44    0.23
   0   6  -3    0.25    0.21
   0   6  -3    0.16    0.10
  -1   6  -3    0.58    0.21
   2  -6   3    3.21    0.26
   2  -6   3    4.09    0.40
   3  -6   3    4.69    0.46
   3  -6   3    4.19    0.26
   3  -6   3    4.47    0.38
   3  -6   3    4.16    0.38
   3  -6   3    4.77    0.31
   4  -6   3    0.66    0.09
   4  -6   3    0.53    0.10
   4  -6   3    0.47    0.14
   4  -6   3    0.44    0.28
   4  -6   3    0.55    0.10
   5  -6   3    2.56    0.18
   5  -6   3    2.58    0.17
   5  -6   3    3.05    0.23
   6  -6   3    0.52    0.13
   6  -6   3    0.57    0.09
   6  -6   3    0.40    0.07
   7  -6   3    0.09    0.10
   7  -6   3    0.03    0.06
   8   5  -3    1.09    0.12
   7   5  -3   -0.14    0.13
   7   5  -3    0.05    0.09
   7   5  -3   -0.01    0.11
   6   5  -3   -0.05    0.16
   6   5  -3    0.02    0.15
   6   5  -3    0.03    0.12
   5   5  -3    2.14    0.18
   5   5  -3    2.35    0.24
   5   5  -3    2.19    0.26
   5   5  -3    1.72    0.13
   5   5  -3    1.76    0.16
   5   5  -3    1.34    0.32
   4   5  -3    0.67    0.09
   4   5  -3    0.32    0.15
   4   5  -3    0.62    0.14
   4   5  -3    1.03    0.13
   4   5  -3    0.85    0.16
   4   5  -3    0.93    0.08
   4   5  -3    0.82    0.12
   4   5  -3    0.40    0.26
   4   5  -3    0.63    0.07
   3   5  -3   18.35    1.41
   3   5  -3   19.91    0.93
   3   5  -3   21.45    0.97
   3   5  -3   21.12    1.25
   3   5  -3   20.23    0.93
   3   5  -3   20.24    1.23
   3   5  -3   18.56    1.06
   3   5  -3   20.12    1.17
   2   5  -3    2.08    0.20
   2   5  -3    2.36    0.25
   2   5  -3    2.02    0.23
   2   5  -3    2.28    0.29
   2   5  -3    1.94    0.18
   2   5  -3    1.80    0.14
   1   5  -3    0.44    0.15
   1   5  -3    0.50    0.20
   1   5  -3    0.67    0.21
   0   5  -3    0.47    0.21
   0   5  -3    0.43    0.15
   2  -5   3    4.96    0.39
   2  -5   3    4.83    0.40
   3  -5   3    1.86    0.18
   3  -5   3    2.35    0.25
   3  -5   3    2.07    0.26
   3  -5   3    2.53    0.34
   3  -5   3    1.82    0.15
   4  -5   3    4.20    0.38
   4  -5   3    4.28    0.37
   4  -5   3    4.42    0.47
   4  -5   3    4.66    0.25
   4  -5   3    4.65    0.30
   4  -5   3    4.54    0.24
   5  -5   3    1.97    0.15
   5  -5   3    1.74    0.18
   5  -5   3    1.54    0.35
   5  -5   3    2.22    0.15
   5  -5   3    2.01    0.23
   6  -5   3    1.25    0.10
   6  -5   3    1.16    0.10
   6  -5   3    1.01    0.13
   6  -5   3    1.06    0.16
   7  -5   3    0.62    0.08
   7  -5   3    0.65    0.09
   7  -5   3    0.57    0.11
   8  -5   3    0.28    0.08
   8  -5   3    0.19    0.07
   8   4  -3    0.17    0.08
   8   4  -3    0.22    0.12
   8   4  -3    0.21    0.12
   7   4  -3    1.57    0.20
   7   4  -3    1.55    0.16
   7   4  -3    1.49    0.18
   6   4  -3   -0.10    0.15
   6   4  -3    0.18    0.25
   6   4  -3    0.09    0.10
   6   4  -3    0.02    0.12
   6   4  -3    0.09    0.09
   5   4  -3    5.67    0.27
   5   4  -3    5.27    0.44
   5   4  -3    5.71    0.38
   5   4  -3    5.77    0.33
   5   4  -3    5.44    0.28
   5   4  -3    4.50    0.46
   4   4  -3    2.11    0.16
   4   4  -3    2.10    0.14
   4   4  -3    1.98    0.11
   4   4  -3    1.66    0.23
   4   4  -3    1.78    0.16
   4   4  -3    2.01    0.28
   4   4  -3    1.86    0.16
   4   4  -3    2.14    0.13
   4   4  -3    2.02    0.20
   3   4  -3    1.91    0.21
   3   4  -3    1.87    0.20
   3   4  -3    2.21    0.27
   2   4  -3    6.03    0.43
   2   4  -3    6.69    0.45
   2   4  -3    6.20    0.42
   1   4  -3    5.97    0.39
   1   4  -3    4.80    0.38
   1   4  -3    6.12    0.40
   1   4  -3    5.98    0.40
   0   4  -3   87.72    4.80
   0   4  -3   81.25    4.17
   0   4  -3   82.17    4.15
   0   4  -3   93.42    4.96
   0  -4   3   85.63    4.15
  -1   4  -3   53.05    3.01
  -1   4  -3   49.48    2.90
  -1   4  -3   48.85    2.55
   1  -4   3   54.58    3.00
   1  -4   3   52.21    2.53
   1  -4   3   53.58    2.90
   1  -4   3   50.21    2.53
   2  -4   3    1.37    0.21
   2  -4   3    1.27    0.18
   3  -4   3    9.37    0.59
   3  -4   3    8.92    0.61
   3  -4   3    9.75    0.71
   4  -4   3   16.04    0.94
   4  -4   3   15.37    0.75
   4  -4   3   14.61    0.90
   4  -4   3   18.01    1.16
   4  -4   3   16.24    1.00
   4  -4   3   16.10    0.78
   4  -4   3   16.88    0.95
   5  -4   3    3.16    0.18
   5  -4   3    2.79    0.23
   5  -4   3    3.07    0.17
   5  -4   3    2.90    0.25
   5  -4   3    3.28    0.26
   5  -4   3    2.83    0.35
   5  -4   3    2.34    0.28
   5  -4   3    2.52    0.27
   6  -4   3    1.86    0.14
   6  -4   3    1.95    0.17
   6  -4   3    1.94    0.21
   6  -4   3    1.80    0.11
   6  -4   3    1.30    0.18
   7  -4   3    0.28    0.07
   7  -4   3   -0.20    0.12
   7  -4   3    0.44    0.12
   7  -4   3    0.34    0.12
   8  -4   3    2.45    0.21
   8  -4   3    2.31    0.17
   9   3  -3    0.01    0.07
   8   3  -3   -0.01    0.13
   8   3  -3   -0.05    0.10
   8   3  -3    0.03    0.12
   7   3  -3    1.21    0.15
   7   3  -3    1.07    0.19
   7   3  -3    1.57    0.18
   7   3  -3    1.51    0.12
   6   3  -3    1.58    0.18
   6   3  -3    1.62    0.15
   6   3  -3    1.55    0.15
   6   3  -3    1.52    0.14
   6   3  -3    1.12    0.29
   6   3  -3    1.03    0.19
   5   3  -3    0.33    0.10
   5   3  -3    0.15    0.04
   5   3  -3    0.37    0.07
   5   3  -3    0.24    0.11
   5   3  -3    0.39    0.13
   5   3  -3    0.10    0.21
   5   3  -3    0.21    0.16
   4   3  -3   -0.01    0.18
   3   3  -3    8.83    0.57
   3   3  -3   10.85    0.58
   3   3  -3   10.64    0.64
   3   3  -3   10.25    0.59
   3   3  -3    9.01    0.59
   2   3  -3    4.96    0.31
   2   3  -3    4.11    0.29
   2   3  -3    4.92    0.35
   2   3  -3    4.79    0.33
   2   3  -3    4.18    0.28
  -2  -3   3    4.67    0.29
   1   3  -3   11.07    0.63
   1   3  -3   11.02    0.65
   1   3  -3    9.85    0.56
   1   3  -3   10.04    0.56
  -1  -3   3   10.52    0.56
  -1  -3   3   10.70    0.56
   0   3  -3  117.21    5.95
   0   3  -3  124.30    6.89
   0   3  -3  129.80    7.12
   0   3  -3  122.70    5.96
   0  -3   3  131.01    5.95
   0  -3   3  130.25    5.95
   0  -3   3  122.98    7.12
   0  -3   3  116.66    6.89
  -1   3  -3   41.99    2.45
  -1   3  -3   38.94    2.06
  -1   3  -3   39.65    2.36
  -1   3  -3   41.37    2.08
   1  -3   3   43.33    2.06
   1  -3   3   43.86    2.36
   1  -3   3   45.05    2.45
   1  -3   3   43.12    2.06
  -2   3  -3    4.32    0.34
   2  -3   3    4.92    0.33
   2  -3   3    4.73    0.31
   2  -3   3    4.67    0.32
   2  -3   3    5.31    0.35
   3  -3   3   35.95    2.30
   3  -3   3   34.33    2.02
   3  -3   3   33.14    1.94
   4  -3   3    1.39    0.11
   4  -3   3    1.41    0.19
   4  -3   3    1.47    0.28
   4  -3   3    1.30    0.21
   5  -3   3    0.45    0.08
   5  -3   3    0.60    0.14
   5  -3   3    0.14    0.15
   5  -3   3    0.24    0.25
   5  -3   3    0.31    0.06
   5  -3   3    0.23    0.13
   5  -3   3    0.31    0.13
   5  -3   3    0.48    0.13
   5  -3   3    0.55    0.13
   6  -3   3   -0.14    0.14
   6  -3   3    0.04    0.11
   6  -3   3   -0.05    0.07
   6  -3   3   -0.13    0.13
   7  -3   3    0.22    0.10
   7  -3   3    0.16    0.13
   7  -3   3    0.27    0.07
   7  -3   3    0.34    0.14
   8  -3   3    0.09    0.11
   8  -3   3    0.10    0.09
   9  -3   3    0.15    0.08
   9  -3   3    0.14    0.06
   9   2  -3    0.08    0.09
   9   2  -3   -0.03    0.12
   8   2  -3    0.93    0.16
   8   2  -3    0.85    0.14
   8   2  -3    1.18    0.09
   8   2  -3    1.18    0.17
   7   2  -3    3.19    0.22
   7   2  -3    2.74    0.27
   7   2  -3    3.15    0.31
   7   2  -3    3.15    0.18
   7   2  -3    3.37    0.22
   7   2  -3    3.11    0.25
   6   2  -3    0.17    0.11
   6   2  -3    0.03    0.20
   6   2  -3    0.09    0.08
   6   2  -3    0.04    0.08
   6   2  -3    0.08    0.12
   6   2  -3    0.14    0.09
   6   2  -3    0.10    0.08
   6   2  -3    0.18    0.15
   5   2  -3   28.84    1.55
   5   2  -3   28.25    1.66
   5   2  -3   26.89    1.70
   5   2  -3   29.53    1.47
   5   2  -3   23.49    1.94
   5   2  -3   29.42    1.29
   4   2  -3    0.55    0.17
   3   2  -3   36.33    1.78
   3   2  -3   37.30    2.13
   3   2  -3   40.07    2.06
   3   2  -3   38.69    2.06
   3   2  -3   37.93    2.17
   3   2  -3   38.53    2.13
   3   2  -3   35.51    1.78
  -3  -2   3   34.65    1.78
  -3  -2   3   35.58    1.78
   2   2  -3   46.01    2.29
   2   2  -3   49.38    2.73
   2   2  -3   48.51    2.29
   2   2  -3   44.88    2.73
   2   2  -3   51.57    2.65
   2   2  -3   43.56    2.65
   2   2  -3   48.42    2.75
  -2  -2   3   44.68    2.29
  -2  -2   3   51.65    2.29
   1   2  -3    2.04    0.19
   1   2  -3    2.46    0.19
   1   2  -3    2.53    0.19
   1   2  -3    2.67    0.21
   1   2  -3    2.27    0.19
  -1  -2   3    2.24    0.20
  -1  -2   3    2.92    0.21
  -1  -2   3    2.73    0.19
   0   2  -3   49.27    2.69
   0   2  -3   48.91    2.79
   0   2  -3   49.79    2.33
   0   2  -3   48.15    2.34
   0  -2   3   48.19    2.33
   0  -2   3   46.30    2.78
   0  -2   3   46.03    2.70
   0  -2   3   50.18    2.34
  -1   2  -3    3.74    0.26
  -1   2  -3    3.22    0.23
  -1   2  -3    2.99    0.23
  -1   2  -3    3.05    0.25
   1  -2   3    3.29    0.23
   1  -2   3    3.06    0.25
   1  -2   3    2.90    0.24
   1  -2   3    3.21    0.24
  -2   2  -3   69.20    3.45
  -2   2  -3   71.64    3.46
   2  -2   3   71.95    3.99
   2  -2   3   72.05    3.45
   2  -2   3   75.59    4.12
   2  -2   3   69.58    3.45
   3  -2   3   10.88    0.68
   3  -2   3   11.07    0.78
   3  -2   3   10.92    0.65
   4  -2   3    8.32    0.69
   4  -2   3    9.01    0.58
   4  -2   3   10.25    0.56
   5  -2   3    0.83    0.12
   5  -2   3    1.20    0.18
   5  -2   3    0.89    0.14
   5  -2   3    0.69    0.11
   5  -2   3    0.64    0.24
   5  -2   3    0.86    0.09
   5  -2   3    0.62    0.15
   5  -2   3    1.06    0.09
   5  -2   3    0.87    0.13
   6  -2   3    1.37    0.14
   6  -2   3    1.31    0.11
   6  -2   3    0.96    0.15
   6  -2   3    1.84    0.22
   6  -2   3    1.44    0.19
   7  -2   3    2.97    0.30
   7  -2   3    2.69    0.24
   7  -2   3    2.36    0.14
   7  -2   3    2.91    0.27
   8  -2   3    0.01    0.13
   8  -2   3   -0.03    0.11
   9  -2   3    0.01    0.09
   9  -2   3   -0.03    0.07
   9   1  -3   -0.08    0.10
   9   1  -3   -0.02    0.14
   8   1  -3    2.30    0.28
   8   1  -3    2.23    0.17
   8   1  -3    2.39    0.18
   8   1  -3    2.59    0.24
   8   1  -3    2.52    0.20
   8   1  -3    2.53    0.22
   7   1  -3    0.82    0.14
   7   1  -3    1.12    0.10
   7   1  -3    1.07    0.14
   7   1  -3    1.17    0.13
   7   1  -3    1.10    0.13
   7   1  -3    1.07    0.14
   7   1  -3    0.95    0.12
   7   1  -3    1.21    0.18
   6   1  -3    3.42    0.33
   6   1  -3    3.59    0.28
   6   1  -3    3.58    0.23
   6   1  -3    3.87    0.21
   6   1  -3    3.98    0.27
   6   1  -3    3.83    0.25
   6   1  -3    3.44    0.30
   6   1  -3    3.46    0.26
   5   1  -3    1.86    0.23
   5   1  -3    1.87    0.26
   4   1  -3   27.98    1.81
   4   1  -3   26.16    1.59
   3   1  -3   11.05    0.75
   3   1  -3   10.43    0.65
   2   1  -3   33.52    1.96
   2   1  -3   35.92    2.32
   2   1  -3   35.17    1.69
   2   1  -3   36.61    2.02
   2   1  -3   32.83    2.03
  -2  -1   3   35.91    1.70
  -2  -1   3   37.15    1.70
   1   1  -3   52.70    2.48
   1   1  -3   52.99    2.97
   1   1  -3   53.26    2.87
   1   1  -3   46.90    2.87
   1   1  -3   54.56    2.48
   1   1  -3   45.90    2.97
  -1  -1   3   53.29    2.48
  -1  -1   3   54.91    2.49
   0   1  -3    4.96    0.32
   0   1  -3    5.44    0.31
   0   1  -3    5.35    0.34
   0   1  -3    5.38    0.31
   0  -1   3    4.56    0.33
   0  -1   3    4.95    0.34
   0  -1   3    5.72    0.30
   0  -1   3    5.72    0.32
  -1   1  -3    1.40    0.15
  -1   1  -3    1.66    0.15
  -1   1  -3    1.44    0.16
  -1   1  -3    2.00    0.18
   1  -1   3    1.47    0.17
   1  -1   3    1.76    0.17
   1  -1   3    1.54    0.19
   1  -1   3    1.51    0.16
  -2   1  -3   11.32    0.63
  -2   1  -3   12.67    0.63
   2  -1   3   11.15    0.62
   2  -1   3   12.32    0.71
   2  -1   3   12.49    0.64
   2  -1   3   12.31    0.73
   3  -1   3    0.71    0.17
   3  -1   3    0.86    0.15
   3  -1   3    0.79    0.12
   3  -1   3    0.91    0.14
   3  -1   3    1.05    0.15
   4  -1   3   16.29    0.92
   4  -1   3   13.94    1.06
   4  -1   3   16.01    0.89
   5  -1   3    3.32    0.18
   5  -1   3    3.94    0.26
   5  -1   3    2.92    0.23
   5  -1   3    3.44    0.19
   5  -1   3    3.49    0.30
   5  -1   3    3.66    0.24
   5  -1   3    3.73    0.32
   5  -1   3    2.90    0.25
   6  -1   3   13.69    0.74
   6  -1   3   12.40    0.85
   6  -1   3   12.87    0.94
   6  -1   3   12.15    0.60
   7  -1   3    0.00    0.15
   7  -1   3    0.06    0.14
   7  -1   3    0.27    0.17
   8  -1   3    0.33    0.13
   8  -1   3    0.11    0.11
   8  -1   3    0.45    0.16
   9  -1   3    0.32    0.09
   9  -1   3    0.07    0.06
   9   0  -3    1.37    0.17
   9   0  -3    1.09    0.13
   9   0  -3    1.03    0.13
   8   0  -3    4.60    0.39
   8   0  -3    5.03    0.36
   8   0  -3    4.91    0.31
   8   0  -3    4.42    0.32
   8   0  -3    4.33    0.32
   7   0  -3    0.03    0.13
   7   0  -3    0.26    0.14
   7   0  -3    0.01    0.10
   7   0  -3    0.07    0.11
   7   0  -3    0.20    0.16
   7   0  -3   -0.01    0.10
   6   0  -3   10.14    0.69
   6   0  -3   10.54    0.78
   6   0  -3   10.89    0.64
   6   0  -3   10.65    0.59
   6   0  -3   10.61    0.49
   6   0  -3   10.77    0.60
   6   0  -3    9.39    0.76
   6   0  -3    9.47    0.65
   5   0  -3   40.91    2.73
   4   0  -3   14.66    0.97
   4   0  -3   13.23    0.83
   3   0  -3    7.75    0.42
   3   0  -3    7.56    0.42
   3   0  -3    7.14    0.36
   3   0  -3    7.85    0.43
   3   0  -3    7.79    0.55
   3   0  -3    7.36    0.43
   3   0  -3    7.07    0.37
   3   0  -3    7.02    0.45
  -3   0   3    7.42    0.37
  -3   0   3    7.06    0.37
   2   0  -3   75.93    4.32
   2   0  -3   77.26    4.46
   2   0  -3   78.19    4.48
   2   0  -3   78.21    3.72
   2   0  -3   80.94    4.34
   2   0  -3   69.96    4.47
   2   0  -3   80.34    3.72
   2   0  -3   78.97    5.10
  -2   0   3   79.19    3.72
  -2   0   3   80.83    3.72
   1   0  -3  249.81   14.12
   1   0  -3  252.93   13.66
   1   0  -3  233.35   16.07
   1   0  -3  251.60   11.74
  -1   0   3  224.97   14.06
  -1   0   3  251.44   11.75
  -1   0   3  257.82   11.75
   0   0  -3  112.38    6.52
   0   0  -3  110.29    6.31
   0   0  -3  121.93    5.45
   0   0  -3  115.74    5.44
   0   0   3  116.23    5.44
   0   0   3  108.19    6.32
   0   0   3  117.48    5.45
   0   0   3  110.75    6.52
  -1   0  -3   13.21    0.65
  -1   0  -3   12.05    0.72
  -1   0  -3   12.49    0.64
  -1   0  -3   11.13    0.74
   1   0   3   12.92    0.73
   1   0   3   12.54    0.75
   1   0   3   12.47    0.63
   1   0   3   13.06    0.65
   1   0   3   12.39    0.74
  -2   0  -3   20.30    0.98
  -2   0  -3   19.82    0.97
   2   0   3   21.05    1.14
   2   0   3   18.45    1.14
   2   0   3   18.85    0.96
   2   0   3   19.57    1.15
   2   0   3   20.56    1.11
   2   0   3   16.33    1.10
   2   0   3   20.25    0.98
   3   0   3    2.82    0.24
   3   0   3    2.84    0.24
   3   0   3    2.92    0.26
   4   0   3   13.57    0.79
   4   0   3   12.82    0.77
   5   0   3    5.09    0.34
   5   0   3    4.43    0.34
   5   0   3    4.63    0.23
   5   0   3    5.01    0.39
   5   0   3    4.25    0.29
   5   0   3    4.83    0.31
   5   0   3    4.50    0.22
   5   0   3    4.10    0.28
   6   0   3    0.44    0.14
   6   0   3    0.44    0.16
   6   0   3    0.50    0.07
   6   0   3    0.63    0.13
   6   0   3    0.48    0.18
   7   0   3    0.20    0.17
   7   0   3   -0.06    0.13
   7   0   3    0.08    0.12
   8   0   3    0.07    0.08
   8   0   3    0.01    0.15
   8   0   3   -0.08    0.13
   9   0   3    0.07    0.09
   9  -1  -3    0.09    0.08
   9  -1  -3    0.18    0.13
   9  -1  -3    0.04    0.10
   8  -1  -3   12.65    0.72
   8  -1  -3   12.50    0.77
   8  -1  -3   12.50    0.83
   7  -1  -3    0.12    0.16
   7  -1  -3   -0.15    0.14
   7  -1  -3   -0.06    0.15
   7  -1  -3    0.01    0.11
   7  -1  -3   -0.06    0.10
   7  -1  -3   -0.05    0.27
   6  -1  -3   17.89    1.03
   6  -1  -3   18.12    0.98
   6  -1  -3   15.87    1.23
   6  -1  -3   17.51    0.97
   6  -1  -3   15.39    1.22
   6  -1  -3   18.32    1.12
   5  -1  -3   22.85    1.26
   5  -1  -3   21.47    1.04
   5  -1  -3   22.15    1.33
   5  -1  -3   24.35    1.56
   5  -1  -3   22.45    1.45
   4  -1  -3    6.59    0.41
   4  -1  -3    7.00    0.56
   4  -1  -3    7.14    0.40
   3  -1  -3    3.92    0.37
   3  -1  -3    3.76    0.22
   3  -1  -3    4.08    0.26
   3  -1  -3    3.83    0.23
   3  -1  -3    3.74    0.25
   3  -1  -3    4.21    0.27
   3  -1  -3    3.82    0.26
  -3   1   3    3.78    0.24
  -3   1   3    3.59    0.23
   2  -1  -3   28.73    1.57
   2  -1  -3   27.76    1.52
   2  -1  -3   24.91    1.51
   2  -1  -3   27.62    1.32
   2  -1  -3   27.12    1.32
   2  -1  -3   27.58    1.80
   2  -1  -3   25.37    1.57
  -2   1   3   27.29    1.33
  -2   1   3   27.30    1.32
   1  -1  -3   12.13    0.73
   1  -1  -3   12.05    0.83
   1  -1  -3   12.71    0.63
   1  -1  -3   12.21    0.70
   1  -1  -3   12.64    0.64
  -1   1   3   11.04    0.73
  -1   1   3   13.24    0.64
  -1   1   3   11.15    0.71
  -1   1   3   12.67    0.63
   0  -1  -3  106.88    4.88
   0  -1  -3   99.47    5.83
   0  -1  -3   93.41    6.63
   0  -1  -3  103.48    4.88
   0  -1  -3  103.17    5.65
   0   1   3  109.00    4.88
   0   1   3  100.85    5.65
   0   1   3   97.12    5.84
   0   1   3  105.70    4.88
   0   1   3  100.91    5.83
  -1  -1  -3   52.96    3.32
  -1  -1  -3   58.20    2.78
  -1  -1  -3   59.51    2.79
  -1  -1  -3   54.18    3.21
   1   1   3   58.90    2.78
   1   1   3   57.57    3.32
   1   1   3   58.68    2.79
   1   1   3   58.74    3.33
   1   1   3   60.97    3.22
  -2  -1  -3   45.11    2.28
  -2  -1  -3   46.35    2.29
   2   1   3   44.54    2.28
   2   1   3   47.77    2.72
   2   1   3   49.41    2.74
   2   1   3   49.55    2.64
   2   1   3   46.85    2.29
   3   1   3   34.83    1.99
   3   1   3   33.65    2.01
   3   1   3   34.17    1.93
   4   1   3   35.74    2.12
   4   1   3   34.58    2.08
   4   1   3   37.08    2.01
   5   1   3    0.99    0.09
   5   1   3    0.80    0.13
   5   1   3    0.90    0.16
   5   1   3    1.09    0.16
   5   1   3    1.04    0.18
   6   1   3    0.71    0.08
   6   1   3    0.78    0.18
   6   1   3    0.89    0.16
   6   1   3    0.94    0.16
   6   1   3    0.80    0.13
   7   1   3    0.32    0.17
   7   1   3    0.17    0.16
   7   1   3    0.33    0.14
   8   1   3   -0.15    0.12
   8   1   3    0.15    0.14
   9  -2  -3    0.32    0.10
   9  -2  -3    0.41    0.10
   8  -2  -3    7.54    0.48
   8  -2  -3    8.18    0.53
   8  -2  -3    9.07    0.56
   8  -2  -3    8.18    0.49
   7  -2  -3   19.37    1.20
   7  -2  -3   18.45    1.10
   7  -2  -3   17.09    1.05
   7  -2  -3   18.68    1.03
   6  -2  -3    2.90    0.28
   6  -2  -3    2.66    0.22
   6  -2  -3    2.66    0.21
   6  -2  -3    2.22    0.38
   6  -2  -3    2.45    0.15
   6  -2  -3    2.62    0.23
   5  -2  -3   17.97    0.85
   5  -2  -3   16.72    1.02
   5  -2  -3   18.99    1.04
   5  -2  -3   19.85    1.29
   5  -2  -3   18.43    1.18
   5  -2  -3   17.70    1.02
   5  -2  -3   18.36    1.08
   4  -2  -3    8.16    0.65
   4  -2  -3    8.18    0.52
   4  -2  -3    8.48    0.51
   3  -2  -3   25.51    1.79
   3  -2  -3   27.24    1.55
   3  -2  -3   27.04    1.51
   2  -2  -3    1.06    0.21
   2  -2  -3    0.96    0.13
   2  -2  -3    0.98    0.16
   2  -2  -3    0.99    0.16
   2  -2  -3    0.97    0.16
  -2   2   3    0.91    0.16
  -2   2   3    0.97    0.17
   1  -2  -3   38.02    2.47
   1  -2  -3   39.50    2.10
   1  -2  -3   39.63    2.18
   1  -2  -3   38.92    1.84
   1  -2  -3   37.23    1.83
  -1   2   3   35.53    2.10
  -1   2   3   38.46    1.84
  -1   2   3   33.12    2.15
  -1   2   3   35.87    2.17
  -1   2   3   39.11    1.84
   0  -2  -3   42.74    2.93
   0  -2  -3   45.69    2.19
   0  -2  -3   44.39    2.59
   0  -2  -3   43.93    2.51
   0  -2  -3   44.08    2.18
   0   2   3   45.54    2.59
   0   2   3   45.64    2.19
   0   2   3   44.61    2.58
   0   2   3   45.30    2.19
   0   2   3   46.25    2.51
  -1  -2  -3    2.57    0.26
  -1  -2  -3    2.81    0.25
   1   2   3    2.58    0.25
   1   2   3    2.72    0.24
   1   2   3    2.53    0.25
   1   2   3    2.63    0.24
   1   2   3    2.53    0.26
   2   2   3    2.30    0.26
   2   2   3    2.14    0.22
   2   2   3    2.04    0.20
   4   2   3    0.99    0.16
   4   2   3    0.75    0.16
   4   2   3    1.02    0.11
   4   2   3    1.04    0.10
   4   2   3    1.05    0.14
   4   2   3    0.55    0.25
   4   2   3    0.75    0.09
   5   2   3    2.59    0.28
   5   2   3    2.62    0.24
   5   2   3    2.34    0.23
   5   2   3    2.13    0.15
   5   2   3    1.78    0.33
   6   2   3    1.80    0.22
   6   2   3    1.99    0.13
   6   2   3    2.14    0.27
   6   2   3    1.85    0.27
   7   2   3    0.20    0.11
   7   2   3    0.16    0.15
   7   2   3    0.16    0.15
   8   2   3    0.13    0.13
   8   2   3    0.03    0.11
   9  -3  -3   -0.14    0.08
   9  -3  -3   -0.02    0.07
   8  -3  -3    1.24    0.14
   8  -3  -3    1.08    0.15
   8  -3  -3    1.21    0.14
   7  -3  -3    0.13    0.11
   7  -3  -3   -0.02    0.12
   7  -3  -3   -0.07    0.12
   7  -3  -3    0.08    0.05
   6  -3  -3    6.36    0.39
   6  -3  -3    6.63    0.32
   6  -3  -3    7.02    0.48
   6  -3  -3    6.83    0.42
   6  -3  -3    5.16    0.60
   6  -3  -3    5.95    0.40
   5  -3  -3    8.15    0.54
   5  -3  -3    7.55    0.38
   5  -3  -3    7.68    0.37
   5  -3  -3    6.77    0.48
   5  -3  -3    7.82    0.48
   5  -3  -3    7.74    0.45
   5  -3  -3    8.07    0.66
   5  -3  -3    7.80    0.47
   4  -3  -3    6.17    0.40
   4  -3  -3    5.67    0.29
   4  -3  -3    6.49    0.49
   4  -3  -3    5.80    0.36
   4  -3  -3    6.10    0.39
   4  -3  -3    4.89    0.34
   4  -3  -3    5.13    0.37
   4  -3  -3    5.77    0.28
   3  -3  -3    6.07    0.40
   3  -3  -3    5.68    0.50
   3  -3  -3    6.20    0.41
   2  -3  -3   24.35    1.44
   2  -3  -3   23.58    1.64
   2  -3  -3   25.38    1.40
   1  -3  -3    8.64    0.52
   1  -3  -3    9.43    0.67
   1  -3  -3   10.18    0.58
   1  -3  -3    9.38    0.54
   1  -3  -3    9.83    0.60
  -1   3   3    8.90    0.54
   0  -3  -3    2.08    0.21
   0  -3  -3    1.73    0.19
   0  -3  -3    1.96    0.21
   0   3   3    1.92    0.22
   0   3   3    2.01    0.20
   0   3   3    2.04    0.22
   0   3   3    1.91    0.22
   0   3   3    1.95    0.20
   1   3   3    7.67    0.50
   1   3   3    7.41    0.51
   1   3   3    7.67    0.50
   2   3   3    4.78    0.36
   2   3   3    4.48    0.37
   2   3   3    4.64    0.35
   3   3   3    1.10    0.21
   3   3   3    1.31    0.26
   3   3   3    1.28    0.15
   3   3   3    1.27    0.11
   3   3   3    1.40    0.15
   3   3   3    1.28    0.10
   3   3   3    1.08    0.11
   3   3   3    1.30    0.21
   4   3   3    0.73    0.09
   4   3   3    0.95    0.10
   4   3   3    0.84    0.17
   4   3   3    1.02    0.18
   4   3   3    0.63    0.18
   4   3   3    1.17    0.14
   4   3   3    0.83    0.27
   5   3   3    1.35    0.21
   5   3   3    0.89    0.19
   5   3   3    1.18    0.11
   5   3   3    1.26    0.16
   5   3   3    1.15    0.29
   6   3   3    0.26    0.14
   6   3   3    0.33    0.07
   6   3   3    0.18    0.15
   6   3   3    0.40    0.18
   7   3   3    0.32    0.10
   7   3   3    0.26    0.15
   7   3   3    0.25    0.11
   8   3   3    0.13    0.11
   8   3   3    0.11    0.09
   9  -4  -3    0.48    0.08
   8  -4  -3    2.65    0.19
   8  -4  -3    3.30    0.20
   8  -4  -3    2.97    0.22
   7  -4  -3    3.71    0.26
   7  -4  -3    4.02    0.20
   7  -4  -3    3.52    0.26
   7  -4  -3    3.86    0.27
   6  -4  -3    0.53    0.10
   6  -4  -3    0.51    0.09
   6  -4  -3    0.42    0.14
   6  -4  -3    0.37    0.11
   5  -4  -3   11.46    0.65
   5  -4  -3   11.45    0.53
   5  -4  -3   11.26    0.67
   5  -4  -3    9.68    0.69
   5  -4  -3   12.27    0.55
   5  -4  -3   11.07    0.63
   5  -4  -3   10.82    0.87
   5  -4  -3    9.63    0.68
   4  -4  -3    6.08    0.38
   4  -4  -3    6.29    0.44
   4  -4  -3    5.61    0.39
   4  -4  -3    6.03    0.52
   4  -4  -3    6.02    0.30
   4  -4  -3    6.28    0.44
   4  -4  -3    6.11    0.32
   3  -4  -3    8.63    0.55
   3  -4  -3    7.60    0.42
   3  -4  -3    8.77    0.65
   3  -4  -3    8.80    0.56
   3  -4  -3    8.11    0.51
   2  -4  -3    8.70    0.54
   2  -4  -3    8.16    0.63
   2  -4  -3    8.35    0.56
   1  -4  -3    0.31    0.19
   1  -4  -3    0.27    0.15
   1  -4  -3    0.31    0.15
   0   4   3   10.41    0.65
   0   4   3   10.11    0.68
   1   4   3    0.21    0.16
   1   4   3    0.29    0.17
   1   4   3    0.17    0.19
   2   4   3    0.03    0.18
   2   4   3    0.09    0.18
   2   4   3    0.05    0.08
   2   4   3    0.14    0.08
   2   4   3    0.10    0.07
   2   4   3    0.17    0.20
   3   4   3    0.07    0.19
   3   4   3    0.08    0.08
   3   4   3   -0.04    0.08
   3   4   3    0.02    0.22
   3   4   3    0.05    0.16
   3   4   3    0.14    0.07
   3   4   3    0.06    0.15
   4   4   3    1.87    0.20
   4   4   3    1.78    0.23
   4   4   3    1.83    0.32
   4   4   3    2.30    0.15
   4   4   3    1.95    0.16
   4   4   3    2.12    0.27
   4   4   3    1.61    0.24
   5   4   3    0.12    0.13
   5   4   3    0.26    0.14
   5   4   3    0.25    0.09
   5   4   3    0.26    0.16
   6   4   3   -0.01    0.16
   6   4   3    0.02    0.06
   6   4   3    0.09    0.12
   6   4   3    0.07    0.14
   7   4   3    0.18    0.12
   7   4   3    0.19    0.13
   7   4   3    0.16    0.09
   8  -5  -3    2.38    0.18
   7  -5  -3    0.47    0.07
   7  -5  -3    0.55    0.10
   7  -5  -3    0.54    0.10
   6  -5  -3    6.00    0.40
   6  -5  -3    6.16    0.30
   6  -5  -3    6.01    0.31
   6  -5  -3    6.32    0.39
   5  -5  -3    4.98    0.34
   5  -5  -3    5.29    0.28
   5  -5  -3    5.02    0.28
   5  -5  -3    5.69    0.34
   4  -5  -3    0.08    0.09
   4  -5  -3    0.06    0.10
   4  -5  -3    0.12    0.19
   4  -5  -3    0.03    0.17
   4  -5  -3    0.05    0.09
   4  -5  -3    0.06    0.09
   4  -5  -3    0.07    0.25
   3  -5  -3    1.26    0.23
   3  -5  -3    0.95    0.26
   3  -5  -3    0.95    0.10
   3  -5  -3    0.85    0.12
   3  -5  -3    0.70    0.21
   2  -5  -3    0.43    0.21
   2  -5  -3    0.26    0.17
   2  -5  -3    0.20    0.10
   0   5   3   15.08    0.90
   1   5   3    1.79    0.28
   1   5   3    1.79    0.20
   1   5   3    1.99    0.28
   1   5   3    1.84    0.16
   2   5   3    0.01    0.24
   2   5   3    0.02    0.10
   2   5   3    0.07    0.08
   2   5   3    0.11    0.20
   2   5   3    0.11    0.09
   2   5   3    0.01    0.20
   3   5   3    0.07    0.09
   3   5   3   -0.12    0.22
   3   5   3    0.06    0.09
   3   5   3    0.09    0.16
   3   5   3    0.01    0.15
   3   5   3    0.00    0.07
   4   5   3    0.84    0.11
   4   5   3    1.15    0.20
   4   5   3    0.86    0.17
   4   5   3    0.81    0.10
   5   5   3    0.41    0.17
   5   5   3    0.52    0.16
   5   5   3    0.32    0.09
   6   5   3    0.42    0.15
   6   5   3    0.25    0.05
   7  -6  -3    0.28    0.08
   7  -6  -3    0.23    0.08
   7  -6  -3    0.27    0.05
   6  -6  -3    2.21    0.18
   6  -6  -3    2.04    0.11
   6  -6  -3    2.00    0.16
   6  -6  -3    2.20    0.14
   5  -6  -3    4.06    0.27
   5  -6  -3    3.74    0.22
   5  -6  -3    3.67    0.23
   4  -6  -3    1.25    0.11
   4  -6  -3    0.90    0.11
   4  -6  -3    0.74    0.10
   3  -6  -3    0.70    0.12
   3  -6  -3    0.90    0.11
   2  -6  -3    6.68    0.43
   1  -6  -3    4.88    0.35
   0   6   3    2.55    0.24
   1   6   3    0.31    0.10
   1   6   3    0.29    0.11
   2   6   3   -0.05    0.09
   2   6   3    0.01    0.16
   2   6   3    0.04    0.09
   2   6   3    0.08    0.09
   3   6   3    0.49    0.11
   3   6   3    0.50    0.09
   3   6   3    0.56    0.17
   4   6   3    1.64    0.15
   4   6   3    2.05    0.25
   4   6   3    1.61    0.12
   5   6   3    0.08    0.06
   5   6   3    0.07    0.14
   6   6   3    0.06    0.11
   6  -7  -3    0.03    0.07
   6  -7  -3    0.05    0.06
   5  -7  -3    0.73    0.10
   5  -7  -3    0.72    0.09
   5  -7  -3    0.67    0.08
   4  -7  -3    0.04    0.05
   4  -7  -3    0.04    0.11
   4  -7  -3    0.10    0.09
   3  -7  -3    0.64    0.11
   3  -7  -3    0.52    0.10
   2  -7  -3    0.27    0.10
   1  -7  -3    0.90    0.12
  -1   7   3    0.69    0.13
   0   7   3    0.20    0.12
   1   7   3    0.07    0.09
   1   7   3    0.03    0.09
   2   7   3    0.34    0.10
   2   7   3    0.36    0.07
   2   7   3    0.69    0.16
   3   7   3    1.03    0.11
   3   7   3    1.43    0.21
   3   7   3    1.35    0.12
   4   7   3    0.09    0.07
   4   7   3    0.32    0.13
   5  -8  -3    0.10    0.03
   5  -8  -3    0.15    0.05
   4  -8  -3    0.27    0.07
   4  -8  -3    0.36    0.09
   3  -8  -3   -0.05    0.07
   3  -8  -3   -0.02    0.06
   3  -8  -3    0.11    0.09
   2  -8  -3    0.62    0.10
  -2   8   3    0.28    0.10
   1  -8  -3    0.11    0.10
  -1   8   3    0.13    0.11
   0   8   3   -0.05    0.08
   1   8   3   -0.14    0.06
   1   8   3    0.07    0.09
   1   8   3    0.13    0.13
   2   8   3    0.06    0.11
   2   8   3   -0.11    0.07
   3   8   3    0.01    0.06
   3   8   3    0.05    0.09
   1  -9  -3    0.52    0.07
   1  10  -4    0.02    0.05
   0  10  -4    0.36    0.07
   4   9  -4   -0.02    0.05
   3   9  -4    0.13    0.08
   3   9  -4    0.01    0.07
   3   9  -4    0.13    0.12
   2   9  -4    0.49    0.08
   2   9  -4    0.56    0.08
   2   9  -4    0.77    0.11
   2   9  -4    0.79    0.13
   1   9  -4    1.59    0.21
   1   9  -4    1.16    0.12
   0   9  -4   -0.06    0.08
  -1   9  -4    0.07    0.10
   1  -9   4    0.07    0.10
  -2   9  -4    1.00    0.14
   2  -9   4    1.08    0.12
   3  -9   4    0.81    0.09
   4  -9   4    0.04    0.06
   5   8  -4   -0.01    0.10
   5   8  -4    0.03    0.05
   4   8  -4    0.03    0.08
   4   8  -4    0.12    0.12
   4   8  -4    0.25    0.13
   3   8  -4   -0.03    0.07
   3   8  -4    0.05    0.10
   3   8  -4    0.03    0.15
   3   8  -4    0.12    0.09
   2   8  -4    1.36    0.16
   2   8  -4    1.10    0.12
   2   8  -4    1.71    0.22
   2   8  -4    1.04    0.11
   1   8  -4    1.25    0.12
   1   8  -4    1.58    0.17
   1   8  -4    0.95    0.14
   0   8  -4    2.76    0.24
   0   8  -4    3.10    0.26
  -1   8  -4    1.94    0.22
   2  -8   4    1.32    0.14
   3  -8   4   -0.01    0.10
   3  -8   4   -0.01    0.10
   3  -8   4   -0.09    0.09
   4  -8   4   -0.05    0.08
   4  -8   4    0.01    0.08
   5  -8   4    0.39    0.07
   5  -8   4    0.37    0.08
   5  -8   4    0.33    0.07
   6  -8   4    0.39    0.06
   6  -8   4    0.35    0.06
   6   7  -4    0.10    0.06
   6   7  -4    0.27    0.12
   5   7  -4    0.23    0.07
   5   7  -4    0.38    0.14
   5   7  -4    0.25    0.09
   5   7  -4    0.22    0.16
   4   7  -4    0.10    0.08
   4   7  -4    0.07    0.04
   4   7  -4    0.19    0.12
   4   7  -4    0.17    0.18
   3   7  -4    0.15    0.16
   3   7  -4   -0.02    0.08
   3   7  -4    0.02    0.14
   3   7  -4    0.11    0.09
   2   7  -4    1.39    0.16
   2   7  -4    1.66    0.20
   2   7  -4    1.28    0.12
   2   7  -4    1.71    0.31
   2   7  -4    1.77    0.15
   1   7  -4    0.35    0.09
   1   7  -4    0.16    0.10
   1   7  -4    0.18    0.24
   1   7  -4    0.05    0.21
   1   7  -4   -0.05    0.11
   0   7  -4    0.29    0.23
   0   7  -4    0.19    0.11
  -1   7  -4   15.62    0.91
  -1   7  -4   13.85    0.96
   1  -7   4   15.42    1.09
  -2   7  -4    3.86    0.40
   2  -7   4    4.91    0.33
   2  -7   4    4.57    0.44
   3  -7   4    0.03    0.09
   3  -7   4    0.16    0.11
   4  -7   4    0.11    0.09
   4  -7   4    0.24    0.09
   4  -7   4    0.24    0.12
   5  -7   4    0.63    0.09
   5  -7   4    0.53    0.11
   5  -7   4    0.67    0.09
   6  -7   4    0.37    0.05
   6  -7   4    0.37    0.10
   6  -7   4    0.50    0.08
   7  -7   4    0.10    0.05
   7  -7   4    0.06    0.07
   7   6  -4    0.05    0.09
   7   6  -4   -0.03    0.07
   6   6  -4    0.77    0.16
   6   6  -4    1.01    0.16
   6   6  -4    0.75    0.10
   5   6  -4    0.04    0.15
   5   6  -4    0.02    0.12
   5   6  -4    0.21    0.09
   5   6  -4    0.00    0.07
   4   6  -4    0.87    0.14
   4   6  -4    0.65    0.10
   4   6  -4    0.64    0.16
   4   6  -4    0.49    0.07
   4   6  -4    0.66    0.10
   4   6  -4    0.84    0.29
   3   6  -4    2.64    0.28
   3   6  -4    2.24    0.27
   3   6  -4    2.95    0.36
   3   6  -4    2.59    0.19
   3   6  -4    3.08    0.25
   3   6  -4    2.26    0.29
   3   6  -4    2.62    0.17
   3   6  -4    2.87    0.18
   2   6  -4    2.03    0.27
   2   6  -4    1.81    0.18
   2   6  -4    1.99    0.15
   2   6  -4    2.03    0.15
   2   6  -4    2.06    0.25
   2   6  -4    2.21    0.32
   2   6  -4    1.88    0.22
   1   6  -4    1.89    0.25
   1   6  -4    1.60    0.15
   1   6  -4    1.94    0.20
   1   6  -4    1.74    0.26
   1   6  -4    2.34    0.30
   0   6  -4    1.74    0.19
   0   6  -4    1.65    0.24
   0   6  -4    1.80    0.26
   0   6  -4    1.94    0.25
   2  -6   4    2.73    0.25
   2  -6   4    4.00    0.39
   3  -6   4    1.41    0.12
   3  -6   4    1.61    0.28
   3  -6   4    1.32    0.25
   3  -6   4    1.34    0.23
   3  -6   4    1.21    0.14
   4  -6   4    0.21    0.22
   4  -6   4    0.05    0.09
   4  -6   4    0.10    0.09
   4  -6   4    0.14    0.10
   5  -6   4    0.01    0.10
   5  -6   4    0.03    0.10
   5  -6   4    0.06    0.08
   6  -6   4    0.13    0.06
   6  -6   4    0.04    0.09
   6  -6   4    0.13    0.08
   7  -6   4    0.11    0.09
   7  -6   4    0.00    0.06
   8   5  -4    0.13    0.08
   8   5  -4    0.09    0.07
   7   5  -4    3.09    0.26
   7   5  -4    2.76    0.28
   7   5  -4    3.20    0.23
   6   5  -4    3.18    0.23
   6   5  -4    3.41    0.27
   6   5  -4    3.12    0.20
   6   5  -4    2.98    0.31
   5   5  -4    1.02    0.12
   5   5  -4    0.87    0.09
   5   5  -4    0.98    0.09
   5   5  -4    0.75    0.28
   5   5  -4    1.26    0.15
   5   5  -4    1.05    0.17
   4   5  -4    5.87    0.38
   4   5  -4    4.77    0.42
   4   5  -4    4.83    0.34
   4   5  -4    5.81    0.27
   4   5  -4    5.37    0.46
   4   5  -4    5.17    0.28
   4   5  -4    4.06    0.35
   4   5  -4    5.41    0.31
   4   5  -4    5.32    0.26
   3   5  -4    0.49    0.08
   3   5  -4    0.55    0.13
   3   5  -4    0.41    0.06
   3   5  -4    0.36    0.18
   3   5  -4    0.36    0.08
   3   5  -4    0.18    0.15
   3   5  -4    0.40    0.08
   3   5  -4    0.36    0.13
   3   5  -4    0.42    0.23
   2   5  -4    9.79    0.51
   2   5  -4   10.99    0.67
   2   5  -4   11.48    0.70
   2   5  -4   12.11    0.72
   2   5  -4   10.42    0.64
   2   5  -4   10.48    0.53
   1   5  -4    0.24    0.19
   1   5  -4    0.17    0.17
   1   5  -4    0.26    0.16
   0   5  -4    3.22    0.31
   0   5  -4    3.61    0.33
   2  -5   4   15.88    0.98
   2  -5   4   16.66    1.01
   3  -5   4   25.30    1.33
   3  -5   4   30.85    1.89
   3  -5   4   25.07    1.60
   3  -5   4   28.55    1.66
   3  -5   4   29.11    1.60
   4  -5   4   -0.03    0.08
   4  -5   4   -0.05    0.07
   4  -5   4   -0.05    0.08
   4  -5   4    0.17    0.26
   4  -5   4    0.09    0.17
   4  -5   4   -0.10    0.21
   5  -5   4    2.75    0.40
   5  -5   4    3.15    0.20
   5  -5   4    3.11    0.22
   5  -5   4    3.42    0.25
   5  -5   4    3.17    0.19
   6  -5   4    3.07    0.24
   6  -5   4    3.06    0.23
   6  -5   4    3.14    0.18
   6  -5   4    3.32    0.19
   7  -5   4    0.02    0.09
   7  -5   4    0.09    0.09
   7  -5   4    0.05    0.07
   8  -5   4    1.10    0.11
   8  -5   4    0.89    0.10
   8   4  -4    0.20    0.12
   8   4  -4    0.06    0.08
   7   4  -4    0.81    0.12
   7   4  -4    0.81    0.18
   7   4  -4    0.85    0.10
   7   4  -4    1.06    0.16
   6   4  -4    0.10    0.24
   6   4  -4    0.63    0.14
   6   4  -4    0.45    0.08
   6   4  -4    0.50    0.13
   6   4  -4    0.47    0.16
   5   4  -4    0.16    0.07
   5   4  -4    0.05    0.14
   5   4  -4    0.07    0.16
   5   4  -4    0.10    0.05
   5   4  -4   -0.04    0.10
   5   4  -4    0.29    0.24
   4   4  -4    1.85    0.13
   4   4  -4    1.64    0.26
   4   4  -4    1.53    0.09
   4   4  -4    1.86    0.16
   4   4  -4    1.28    0.19
   4   4  -4    1.42    0.14
   4   4  -4    1.51    0.14
   4   4  -4    1.65    0.15
   4   4  -4    1.64    0.11
   4   4  -4    1.71    0.17
   3   4  -4   -0.14    0.13
   3   4  -4   -0.16    0.18
   3   4  -4   -0.02    0.12
   2   4  -4   44.01    2.57
   2   4  -4   42.52    2.48
   2   4  -4   46.32    2.59
   1   4  -4    4.25    0.32
   1   4  -4    4.32    0.34
   0   4  -4    2.21    0.26
   0   4  -4    2.16    0.23
   0   4  -4    2.04    0.23
   0  -4   4    1.90    0.20
  -1   4  -4    9.21    0.60
  -1   4  -4   10.01    0.64
  -1   4  -4    9.89    0.66
   1  -4   4   11.49    0.66
   1  -4   4   10.53    0.64
   2  -4   4   28.77    1.67
   2  -4   4   27.46    1.61
   3  -4   4    6.87    0.48
   3  -4   4    6.45    0.45
   4  -4   4    0.85    0.20
   4  -4   4    0.67    0.27
   4  -4   4    0.62    0.08
   4  -4   4    0.70    0.12
   4  -4   4    0.39    0.09
   4  -4   4    0.87    0.18
   4  -4   4    0.68    0.09
   5  -4   4    1.19    0.12
   5  -4   4    0.93    0.18
   5  -4   4    0.70    0.19
   5  -4   4    1.06    0.26
   5  -4   4    1.27    0.11
   5  -4   4    0.91    0.13
   5  -4   4    1.14    0.10
   6  -4   4    0.82    0.09
   6  -4   4    0.83    0.12
   6  -4   4    0.46    0.14
   6  -4   4    0.58    0.07
   6  -4   4    0.87    0.13
   7  -4   4   -0.07    0.11
   7  -4   4    0.13    0.07
   7  -4   4   -0.07    0.11
   7  -4   4    0.05    0.11
   8  -4   4    1.24    0.13
   8  -4   4    1.40    0.16
   9   3  -4    0.09    0.08
   8   3  -4    0.28    0.10
   8   3  -4    0.27    0.07
   8   3  -4    0.13    0.15
   8   3  -4    0.24    0.09
   7   3  -4    0.19    0.14
   7   3  -4    0.10    0.12
   7   3  -4    0.15    0.14
   7   3  -4    0.26    0.08
   7   3  -4    0.22    0.09
   6   3  -4    0.21    0.12
   6   3  -4    0.14    0.08
   6   3  -4    0.34    0.11
   6   3  -4    0.27    0.09
   6   3  -4    0.17    0.12
   6   3  -4    0.05    0.21
   6   3  -4    0.03    0.14
   5   3  -4    5.90    0.53
   5   3  -4    6.79    0.33
   5   3  -4    6.76    0.47
   5   3  -4    6.74    0.51
   5   3  -4    7.81    0.42
   5   3  -4    7.10    0.35
   5   3  -4    7.34    0.44
   5   3  -4    7.59    0.40
   4   3  -4    6.16    0.45
   4   3  -4    6.26    0.35
   4   3  -4    6.15    0.31
   3   3  -4   16.61    1.01
   3   3  -4   17.02    0.95
   3   3  -4   16.18    0.98
   2   3  -4    1.55    0.17
   2   3  -4    1.93    0.19
   2   3  -4    2.10    0.22
   2   3  -4    1.83    0.18
   2   3  -4    1.97    0.19
   1   3  -4   37.47    1.99
   1   3  -4   32.21    1.73
   1   3  -4   37.56    2.06
   1   3  -4   33.30    1.74
  -1  -3   4   35.46    1.73
  -1  -3   4   36.21    1.74
   0   3  -4    7.56    0.47
   0   3  -4    7.53    0.45
   0   3  -4    7.14    0.44
   0   3  -4    8.43    0.50
   0  -3   4    7.17    0.48
   0  -3   4    8.04    0.50
   0  -3   4    7.59    0.44
   0  -3   4    8.15    0.44
  -1   3  -4   46.72    2.35
  -1   3  -4   46.59    2.79
  -1   3  -4   46.56    2.37
  -1   3  -4   47.45    2.70
   1  -3   4   48.23    2.35
   1  -3   4   48.82    2.36
   1  -3   4   50.93    2.80
   1  -3   4   50.52    2.70
  -2   3  -4    1.38    0.21
   2  -3   4    1.74    0.20
   2  -3   4    1.92    0.21
   2  -3   4    1.81    0.20
   3  -3   4    0.68    0.18
   3  -3   4    0.59    0.16
   4  -3   4    3.17    0.34
   4  -3   4    2.67    0.19
   4  -3   4    2.60    0.20
   4  -3   4    2.38    0.27
   4  -3   4    2.84    0.28
   4  -3   4    2.79    0.16
   4  -3   4    2.80    0.17
   4  -3   4    3.11    0.25
   5  -3   4    6.62    0.44
   5  -3   4    7.58    0.34
   5  -3   4    6.83    0.51
   5  -3   4    6.25    0.45
   5  -3   4    5.78    0.56
   5  -3   4    6.22    0.42
   5  -3   4    6.79    0.33
   5  -3   4    5.73    0.46
   5  -3   4    7.15    0.41
   6  -3   4    0.42    0.11
   6  -3   4    0.69    0.14
   6  -3   4    0.55    0.12
   6  -3   4    0.50    0.05
   6  -3   4    0.55    0.09
   7  -3   4    0.07    0.06
   7  -3   4    0.01    0.12
   7  -3   4    0.02    0.10
   7  -3   4    0.10    0.13
   8  -3   4    0.72    0.10
   8  -3   4    0.63    0.12
   9   2  -4    0.50    0.09
   8   2  -4    0.44    0.09
   8   2  -4    0.41    0.07
   8   2  -4    0.50    0.11
   8   2  -4    0.16    0.15
   8   2  -4    0.42    0.10
   7   2  -4    1.59    0.22
   7   2  -4    2.17    0.17
   7   2  -4    1.85    0.21
   7   2  -4    1.98    0.18
   7   2  -4    1.96    0.17
   7   2  -4    1.67    0.23
   7   2  -4    1.95    0.15
   6   2  -4   11.51    0.53
   6   2  -4   11.93    0.67
   6   2  -4   11.82    0.61
   6   2  -4    9.64    0.81
   6   2  -4   12.13    0.64
   6   2  -4   10.45    0.71
   6   2  -4   10.12    0.63
   5   2  -4   -0.01    0.09
   5   2  -4   -0.08    0.10
   5   2  -4    0.00    0.17
   5   2  -4    0.13    0.08
   5   2  -4    0.15    0.07
   5   2  -4    0.08    0.08
   4   2  -4    3.27    0.28
   3   2  -4    6.17    0.33
   3   2  -4    5.38    0.30
   3   2  -4    5.62    0.34
   3   2  -4    5.62    0.34
   3   2  -4    5.45    0.30
   3   2  -4    5.73    0.35
   3   2  -4    5.62    0.38
  -3  -2   4    5.24    0.30
   2   2  -4   -0.02    0.14
   2   2  -4    0.04    0.09
   2   2  -4   -0.02    0.10
   2   2  -4    0.16    0.11
   2   2  -4    0.24    0.10
   2   2  -4    0.09    0.11
   2   2  -4    0.09    0.10
  -2  -2   4    0.12    0.09
  -2  -2   4   -0.02    0.09
   1   2  -4   96.70    4.50
   1   2  -4  105.87    5.39
   1   2  -4   81.30    5.38
   1   2  -4  101.72    5.21
  -1  -2   4   85.27    5.38
  -1  -2   4   98.59    4.51
  -1  -2   4   98.42    4.50
  -1  -2   4   84.14    5.21
   0   2  -4    2.51    0.24
   0   2  -4    2.64    0.25
   0  -2   4    2.34    0.24
   0  -2   4    2.48    0.22
   0  -2   4    2.56    0.23
   0  -2   4    2.61    0.22
  -1   2  -4   17.17    1.02
  -1   2  -4   16.42    0.88
   1  -2   4   17.42    0.99
   1  -2   4   17.08    0.87
   1  -2   4   17.14    1.02
   1  -2   4   17.35    0.88
  -2   2  -4    3.28    0.24
  -2   2  -4    3.34    0.26
   2  -2   4    3.29    0.25
   2  -2   4    3.32    0.28
   2  -2   4    3.27    0.26
   2  -2   4    3.01    0.23
   3  -2   4    7.31    0.49
   3  -2   4    7.45    0.47
   4  -2   4    9.25    0.55
   4  -2   4   10.99    0.60
   4  -2   4    8.15    0.71
   4  -2   4   10.34    0.63
   5  -2   4   -0.01    0.15
   5  -2   4    0.03    0.13
   5  -2   4    0.04    0.11
   5  -2   4    0.11    0.15
   5  -2   4    0.03    0.06
   5  -2   4   -0.02    0.10
   5  -2   4    0.03    0.12
   6  -2   4    0.12    0.17
   6  -2   4   -0.11    0.14
   6  -2   4   -0.22    0.08
   6  -2   4   -0.10    0.11
   7  -2   4    0.18    0.06
   7  -2   4    0.22    0.13
   7  -2   4    0.17    0.17
   7  -2   4    0.20    0.14
   8  -2   4   -0.14    0.10
   8  -2   4   -0.06    0.11
   9  -2   4    0.02    0.05
   9   1  -4    1.50    0.14
   9   1  -4    1.59    0.17
   8   1  -4    0.23    0.14
   8   1  -4    0.32    0.09
   8   1  -4    0.41    0.09
   8   1  -4    0.32    0.11
   8   1  -4    0.27    0.09
   8   1  -4    0.26    0.07
   8   1  -4    0.21    0.12
   8   1  -4    0.36    0.10
   7   1  -4    7.26    0.50
   7   1  -4    7.01    0.47
   7   1  -4    6.34    0.55
   7   1  -4    7.60    0.43
   7   1  -4    7.00    0.42
   7   1  -4    7.45    0.36
   7   1  -4    7.92    0.46
   7   1  -4    6.63    0.41
   6   1  -4   12.61    0.73
   6   1  -4   13.50    0.74
   6   1  -4   12.24    0.80
   6   1  -4   12.60    0.93
   6   1  -4   13.52    0.77
   6   1  -4   12.16    0.84
   6   1  -4   13.34    0.69
   6   1  -4   13.91    0.61
   6   1  -4   11.70    0.92
   5   1  -4    0.81    0.12
   5   1  -4    1.14    0.11
   5   1  -4    0.82    0.09
   5   1  -4    0.90    0.23
   4   1  -4    6.98    0.47
   4   1  -4    7.53    0.55
   3   1  -4   93.22    5.04
   3   1  -4  100.27    5.95
   3   1  -4   86.50    5.22
   3   1  -4   96.28    5.20
   3   1  -4   83.11    5.19
   3   1  -4   92.59    5.03
   3   1  -4   90.82    4.33
   3   1  -4   86.92    4.33
  -3  -1   4   85.89    4.33
  -3  -1   4   94.07    4.33
   2   1  -4  114.69    6.56
   2   1  -4  117.52    5.44
   2   1  -4  110.01    6.31
   2   1  -4  107.50    6.53
   2   1  -4  118.58    7.44
   2   1  -4  109.07    6.51
   2   1  -4  111.86    5.43
   2   1  -4  113.50    6.35
  -2  -1   4  116.21    5.44
  -2  -1   4  121.34    5.44
   1   1  -4    4.75    0.31
   1   1  -4    4.62    0.29
   1   1  -4    4.69    0.27
  -1  -1   4    4.56    0.28
  -1  -1   4    4.34    0.31
  -1  -1   4    3.96    0.29
  -1  -1   4    4.99    0.29
   0   1  -4   52.71    2.98
   0   1  -4   56.50    2.58
   0   1  -4   52.96    3.08
   0   1  -4   54.05    2.59
   0  -1   4   53.49    2.59
   0  -1   4   55.49    2.58
   0  -1   4   52.60    3.08
   0  -1   4   50.34    2.98
  -1   1  -4    1.60    0.19
  -1   1  -4    1.52    0.16
  -1   1  -4    1.48    0.19
  -1   1  -4    1.56    0.18
   1  -1   4    1.73    0.21
   1  -1   4    1.55    0.19
   1  -1   4    1.59    0.18
   1  -1   4    1.84    0.18
  -2   1  -4   20.01    1.06
  -2   1  -4   21.08    1.06
   2  -1   4   22.07    1.25
   2  -1   4   19.91    1.05
   2  -1   4   21.19    1.07
   2  -1   4   22.01    1.21
   3  -1   4   34.45    2.53
   3  -1   4   40.14    2.23
   3  -1   4   40.78    2.17
   4  -1   4   10.44    0.64
   4  -1   4   10.02    0.62
   5  -1   4   11.78    0.84
   5  -1   4   12.54    0.66
   5  -1   4   10.09    0.70
   5  -1   4   11.23    0.56
   5  -1   4   12.17    0.72
   5  -1   4   11.56    0.54
   5  -1   4   10.48    0.75
   6  -1   4    1.26    0.17
   6  -1   4    1.74    0.25
   6  -1   4    1.06    0.18
   7  -1   4    0.22    0.17
   7  -1   4    0.12    0.13
   7  -1   4    0.10    0.05
   7  -1   4    0.28    0.15
   8  -1   4    0.08    0.14
   8  -1   4   -0.07    0.08
   8  -1   4    0.08    0.12
   9  -1   4   -0.02    0.08
   9   0  -4    0.02    0.10
   9   0  -4    0.01    0.09
   8   0  -4    0.04    0.14
   8   0  -4   -0.11    0.13
   8   0  -4    0.19    0.09
   8   0  -4    0.23    0.13
   8   0  -4    0.27    0.12
   7   0  -4    3.66    0.38
   7   0  -4    4.22    0.23
   7   0  -4    4.31    0.34
   7   0  -4    4.70    0.31
   7   0  -4    4.34    0.29
   7   0  -4    4.55    0.29
   6   0  -4    3.25    0.23
   6   0  -4    3.15    0.26
   6   0  -4    3.37    0.23
   6   0  -4    2.67    0.29
   6   0  -4    3.16    0.38
   6   0  -4    3.01    0.25
   6   0  -4    3.32    0.19
   5   0  -4    0.50    0.09
   5   0  -4    0.38    0.08
   5   0  -4    0.36    0.24
   5   0  -4    0.46    0.10
   4   0  -4   16.82    1.16
   3   0  -4  121.32    6.74
   3   0  -4  117.63    5.81
   3   0  -4  114.43    6.98
   3   0  -4  119.22    5.81
   3   0  -4  128.12    7.97
   3   0  -4  124.29    6.97
   3   0  -4  126.45    6.75
   3   0  -4  129.20    6.99
  -3   0   4  114.08    5.81
  -3   0   4  125.06    5.81
   2   0  -4   24.39    1.18
   2   0  -4   23.96    1.18
   2   0  -4   24.41    1.60
   2   0  -4   21.50    1.35
   2   0  -4   25.07    1.35
   2   0  -4   24.95    1.40
   2   0  -4   22.57    1.40
  -2   0   4   25.01    1.18
  -2   0   4   24.59    1.18
   1   0  -4   15.10    1.00
   1   0  -4   14.80    0.75
   1   0  -4   15.29    0.75
   1   0  -4   15.00    0.85
   1   0  -4   15.40    0.88
  -1   0   4   14.20    0.88
  -1   0   4   12.74    0.85
  -1   0   4   15.06    0.75
  -1   0   4   15.84    0.75
   0   0  -4    0.20    0.11
   0   0  -4    0.14    0.12
   0   0  -4    0.10    0.12
   0   0  -4    0.16    0.12
   0   0   4    0.30    0.12
   0   0   4    0.21    0.12
   0   0   4    0.14    0.12
   0   0   4    0.12    0.13
  -1   0  -4   37.65    1.86
  -1   0  -4   34.52    2.20
  -1   0  -4   37.17    2.13
  -1   0  -4   41.16    1.87
   1   0   4   38.76    1.87
   1   0   4   38.64    2.20
   1   0   4   37.01    1.86
   1   0   4   40.00    2.14
  -2   0  -4    5.67    0.35
  -2   0  -4    5.45    0.36
   2   0   4    5.49    0.36
   2   0   4    6.13    0.38
   2   0   4    6.06    0.40
   3   0   4   66.87    3.93
   3   0   4   69.85    3.81
   4   0   4    3.13    0.25
   4   0   4    2.06    0.22
   4   0   4    2.68    0.23
   4   0   4    2.24    0.14
   5   0   4    6.59    0.48
   5   0   4    6.69    0.41
   5   0   4    6.90    0.54
   5   0   4    6.52    0.44
   5   0   4    7.14    0.34
   5   0   4    7.50    0.47
   5   0   4    6.74    0.34
   6   0   4    0.08    0.11
   6   0   4   -0.02    0.16
   6   0   4    0.12    0.12
   6   0   4    0.15    0.07
   6   0   4    0.23    0.14
   7   0   4    1.75    0.22
   7   0   4    1.82    0.24
   8   0   4    0.93    0.15
   8   0   4    0.60    0.10
   8   0   4    0.59    0.14
   9  -1  -4    2.39    0.17
   9  -1  -4    2.12    0.19
   8  -1  -4    0.16    0.10
   8  -1  -4    0.03    0.13
   8  -1  -4    0.34    0.15
   8  -1  -4    0.20    0.10
   7  -1  -4    3.52    0.30
   7  -1  -4    2.92    0.26
   7  -1  -4    2.05    0.36
   7  -1  -4    3.41    0.23
   7  -1  -4    3.33    0.26
   6  -1  -4    0.12    0.14
   6  -1  -4    0.30    0.28
   6  -1  -4    0.31    0.12
   6  -1  -4    0.11    0.12
   6  -1  -4    0.33    0.10
   6  -1  -4    0.15    0.06
   6  -1  -4    0.13    0.15
   5  -1  -4    1.67    0.18
   5  -1  -4    1.98    0.29
   5  -1  -4    1.94    0.16
   5  -1  -4    1.75    0.11
   5  -1  -4    1.56    0.22
   5  -1  -4    1.79    0.17
   4  -1  -4   24.67    1.36
   4  -1  -4   24.99    1.65
   4  -1  -4   24.01    1.36
   4  -1  -4   24.92    1.41
   4  -1  -4   23.06    1.41
   3  -1  -4    1.14    0.14
   3  -1  -4    1.00    0.12
   3  -1  -4    1.08    0.14
   3  -1  -4    0.99    0.11
   3  -1  -4    1.21    0.21
   2  -1  -4   13.76    0.79
   2  -1  -4   13.66    0.92
   2  -1  -4   13.71    0.77
   2  -1  -4   12.58    0.69
   2  -1  -4   12.95    0.68
  -2   1   4   13.03    0.69
  -2   1   4   12.85    0.68
   1  -1  -4    5.53    0.37
   1  -1  -4    5.27    0.33
   1  -1  -4    5.69    0.35
   1  -1  -4    5.22    0.41
   1  -1  -4    5.38    0.33
  -1   1   4    5.39    0.35
  -1   1   4    5.00    0.33
  -1   1   4    4.79    0.37
  -1   1   4    4.77    0.35
   0  -1  -4   45.82    2.70
   0  -1  -4   42.54    3.05
   0  -1  -4   47.22    2.28
   0  -1  -4   48.90    2.27
   0  -1  -4   47.16    2.62
   0   1   4   46.76    2.62
   0   1   4   47.25    2.69
   0   1   4   49.52    2.28
   0   1   4   46.98    2.28
   0   1   4   46.08    2.70
  -1  -1  -4   84.52    3.99
  -1  -1  -4   77.24    4.76
  -1  -1  -4   76.27    4.61
  -1  -1  -4   80.32    3.99
   1   1   4   80.01    3.99
   1   1   4   83.53    4.00
   1   1   4   85.69    4.76
   1   1   4   89.06    4.61
   1   1   4   89.56    4.77
   2   1   4    1.76    0.21
   2   1   4    1.95    0.23
   2   1   4    1.86    0.23
   2   1   4    1.73    0.20
   3   1   4    3.76    0.32
   3   1   4    3.71    0.30
   3   1   4    3.53    0.31
   4   1   4    3.25    0.26
   4   1   4    2.95    0.30
   4   1   4    3.40    0.19
   4   1   4    3.83    0.29
   4   1   4    3.18    0.19
   4   1   4    3.71    0.28
   4   1   4    3.46    0.36
   4   1   4    2.57    0.29
   5   1   4   14.77    0.93
   5   1   4   12.32    0.79
   5   1   4   14.41    0.66
   5   1   4   14.12    1.01
   5   1   4   14.15    0.87
   6   1   4    3.78    0.29
   6   1   4    3.77    0.35
   6   1   4    3.83    0.36
   6   1   4    3.72    0.21
   7   1   4   -0.10    0.15
   7   1   4   -0.12    0.15
   8   1   4   -0.01    0.12
   8   1   4   -0.16    0.11
   9  -2  -4    0.51    0.10
   9  -2  -4    0.48    0.11
   8  -2  -4   -0.07    0.10
   8  -2  -4   -0.09    0.09
   8  -2  -4   -0.10    0.09
   7  -2  -4   20.31    1.23
   7  -2  -4   21.86    1.34
   7  -2  -4   20.17    1.16
   7  -2  -4   20.36    1.18
   6  -2  -4   11.70    0.65
   6  -2  -4   11.14    0.66
   6  -2  -4    9.44    0.86
   6  -2  -4   11.33    0.69
   6  -2  -4   10.87    0.53
   6  -2  -4   12.57    0.76
   5  -2  -4   23.06    1.37
   5  -2  -4   19.58    1.19
   5  -2  -4   21.72    1.49
   5  -2  -4   21.22    0.99
   5  -2  -4   21.09    1.20
   5  -2  -4   21.03    1.25
   5  -2  -4   20.45    1.02
   5  -2  -4   21.93    1.19
   4  -2  -4    0.22    0.24
   4  -2  -4    0.10    0.12
   4  -2  -4    0.11    0.12
   3  -2  -4    0.10    0.15
   3  -2  -4    0.11    0.21
   3  -2  -4   -0.09    0.13
   2  -2  -4    3.02    0.26
   2  -2  -4    3.15    0.31
   2  -2  -4    2.66    0.26
   2  -2  -4    3.29    0.27
   1  -2  -4    8.01    0.56
   1  -2  -4    7.60    0.45
   1  -2  -4    7.95    0.46
   1  -2  -4    8.28    0.49
   1  -2  -4    8.05    0.51
  -1   2   4    7.49    0.46
  -1   2   4    7.22    0.49
  -1   2   4    8.28    0.47
  -1   2   4    7.32    0.51
   0  -2  -4   21.51    1.51
   0  -2  -4   23.07    1.32
   0  -2  -4   22.45    1.17
   0  -2  -4   23.01    1.36
   0  -2  -4   23.28    1.16
   0   2   4   23.37    1.16
   0   2   4   23.27    1.34
   0   2   4   23.13    1.32
   0   2   4   22.83    1.17
   0   2   4   23.88    1.36
  -1  -2  -4   64.08    3.27
   1   2   4   72.92    3.78
   1   2   4   67.65    3.90
   1   2   4   64.32    3.28
   1   2   4   68.69    3.90
   2   2   4   54.84    3.10
   2   2   4   52.95    3.11
   2   2   4   52.74    3.00
   3   2   4   68.93    4.51
   3   2   4   84.39    4.50
   3   2   4   81.36    4.36
   4   2   4   13.85    0.95
   4   2   4   14.17    0.88
   4   2   4   14.98    0.92
   4   2   4   14.44    0.92
   4   2   4   15.08    0.73
   4   2   4   15.46    0.70
   4   2   4   15.63    0.97
   4   2   4   14.77    1.07
   5   2   4    5.84    0.30
   5   2   4    6.10    0.30
   5   2   4    5.88    0.46
   5   2   4    5.90    0.49
   5   2   4    5.92    0.41
   6   2   4    0.34    0.17
   6   2   4    0.30    0.11
   6   2   4    0.46    0.08
   6   2   4    0.43    0.17
   7   2   4    0.11    0.14
   7   2   4    0.21    0.12
   7   2   4    0.06    0.14
   8   2   4   -0.05    0.10
   8   2   4   -0.05    0.11
   9  -3  -4    0.02    0.08
   9  -3  -4    0.03    0.09
   8  -3  -4    1.24    0.14
   8  -3  -4    1.32    0.16
   8  -3  -4    1.13    0.13
   7  -3  -4   -0.08    0.11
   7  -3  -4    0.03    0.06
   7  -3  -4   -0.05    0.12
   7  -3  -4    0.08    0.12
   6  -3  -4   41.43    2.54
   6  -3  -4   45.38    2.50
   6  -3  -4   47.80    2.09
   6  -3  -4   46.52    2.64
   5  -3  -4    2.10    0.36
   5  -3  -4    2.11    0.14
   5  -3  -4    2.00    0.21
   5  -3  -4    2.22    0.15
   5  -3  -4    2.14    0.19
   5  -3  -4    2.04    0.18
   5  -3  -4    2.09    0.22
   4  -3  -4   16.37    0.80
   4  -3  -4   14.22    0.95
   4  -3  -4   15.47    0.97
   4  -3  -4   18.19    1.18
   4  -3  -4   17.07    0.77
   4  -3  -4   16.01    0.94
   4  -3  -4   15.79    0.91
   4  -3  -4   17.69    0.97
   4  -3  -4   17.61    1.00
   3  -3  -4    9.84    0.72
   3  -3  -4    9.16    0.61
   3  -3  -4   10.14    0.62
   2  -3  -4   11.52    0.82
   2  -3  -4   12.06    0.71
   2  -3  -4   11.29    0.73
   1  -3  -4    9.55    0.66
   1  -3  -4    9.17    0.61
   1  -3  -4   10.00    0.59
  -1   3   4    8.01    0.55
   0   3   4    7.57    0.52
   0   3   4    7.39    0.49
   1   3   4    1.05    0.21
   1   3   4    1.25    0.19
   1   3   4    1.33    0.21
   2   3   4    5.05    0.35
   2   3   4    6.04    0.42
   2   3   4    5.71    0.41
   2   3   4    5.53    0.42
   3   3   4   -0.04    0.22
   3   3   4    0.02    0.18
   3   3   4    0.06    0.08
   3   3   4    0.04    0.07
   3   3   4    0.03    0.14
   3   3   4    0.15    0.17
   3   3   4    0.07    0.08
   4   3   4   15.21    0.99
   4   3   4   17.29    0.75
   4   3   4   13.51    0.94
   4   3   4   17.09    1.05
   4   3   4   15.66    0.98
   4   3   4   13.60    1.02
   4   3   4   16.70    1.14
   4   3   4   16.73    0.78
   5   3   4    5.66    0.46
   5   3   4    5.61    0.41
   5   3   4    6.03    0.30
   5   3   4    6.18    0.49
   5   3   4    6.14    0.30
   6   3   4   -0.10    0.12
   6   3   4   -0.04    0.10
   6   3   4   -0.02    0.07
   6   3   4   -0.01    0.16
   7   3   4    0.17    0.10
   7   3   4    0.17    0.13
   8  -4  -4    0.07    0.07
   8  -4  -4    0.10    0.08
   8  -4  -4    0.10    0.07
   7  -4  -4    1.77    0.16
   7  -4  -4    2.00    0.13
   7  -4  -4    1.91    0.20
   7  -4  -4    1.89    0.18
   6  -4  -4    0.75    0.10
   6  -4  -4    0.85    0.14
   6  -4  -4    0.62    0.14
   6  -4  -4    0.83    0.12
   5  -4  -4    0.91    0.15
   5  -4  -4    0.56    0.17
   5  -4  -4    0.69    0.10
   5  -4  -4    0.66    0.12
   5  -4  -4    0.46    0.28
   5  -4  -4    0.70    0.09
   5  -4  -4    0.93    0.13
   4  -4  -4    1.54    0.22
   4  -4  -4    1.55    0.16
   4  -4  -4    1.62    0.12
   4  -4  -4    1.25    0.15
   4  -4  -4    1.19    0.22
   4  -4  -4    1.42    0.30
   4  -4  -4    1.47    0.15
   4  -4  -4    1.52    0.15
   3  -4  -4    2.36    0.18
   3  -4  -4    2.88    0.29
   3  -4  -4    2.68    0.17
   3  -4  -4    2.89    0.23
   3  -4  -4    2.67    0.28
   3  -4  -4    2.86    0.34
   2  -4  -4    8.34    0.53
   2  -4  -4    8.07    0.54
   2  -4  -4    7.95    0.59
   2  -4  -4    7.02    0.48
   1   4   4    2.15    0.20
   1   4   4    2.40    0.26
   1   4   4    2.17    0.26
   2   4   4    0.57    0.24
   2   4   4    0.37    0.10
   2   4   4    0.56    0.21
   2   4   4    0.52    0.14
   2   4   4    0.45    0.09
   2   4   4    0.47    0.07
   2   4   4    0.34    0.17
   3   4   4    2.57    0.17
   3   4   4    2.55    0.27
   3   4   4    1.59    0.31
   3   4   4    2.65    0.20
   3   4   4    2.65    0.19
   3   4   4    1.90    0.27
   3   4   4    2.48    0.28
   4   4   4    0.00    0.16
   4   4   4   -0.04    0.16
   4   4   4   -0.12    0.07
   4   4   4   -0.10    0.09
   4   4   4   -0.05    0.25
   5   4   4    0.30    0.16
   5   4   4   -0.02    0.16
   5   4   4    0.11    0.08
   6   4   4   -0.25    0.15
   6   4   4   -0.05    0.05
   6   4   4    0.06    0.13
   6   4   4   -0.09    0.09
   7   4   4    0.09    0.08
   7   4   4   -0.06    0.10
   8  -5  -4    0.97    0.09
   8  -5  -4    1.09    0.12
   7  -5  -4    1.28    0.15
   7  -5  -4    1.50    0.14
   7  -5  -4    1.46    0.10
   6  -5  -4    0.09    0.10
   6  -5  -4    0.03    0.08
   6  -5  -4    0.06    0.10
   5  -5  -4    4.10    0.26
   5  -5  -4    3.17    0.26
   5  -5  -4    4.05    0.22
   5  -5  -4    3.74    0.22
   4  -5  -4    3.67    0.22
   4  -5  -4    3.70    0.22
   4  -5  -4    3.94    0.27
   4  -5  -4    2.88    0.40
   4  -5  -4    3.57    0.25
   3  -5  -4    4.05    0.23
   3  -5  -4    3.37    0.39
   3  -5  -4    3.33    0.35
   3  -5  -4    3.36    0.35
   3  -5  -4    3.97    0.28
   2  -5  -4    2.45    0.24
   0   5   4    0.09    0.11
   1   5   4    9.30    0.50
   1   5   4   10.44    0.61
   2   5   4    0.03    0.10
   2   5   4   -0.06    0.15
   2   5   4   -0.02    0.09
   2   5   4    0.02    0.09
   2   5   4    0.08    0.21
   3   5   4    1.52    0.14
   3   5   4    1.66    0.22
   3   5   4    2.03    0.25
   3   5   4    2.07    0.16
   3   5   4    1.90    0.17
   4   5   4    0.23    0.10
   4   5   4    0.39    0.16
   4   5   4    0.37    0.08
   4   5   4    0.37    0.17
   5   5   4    0.28    0.13
   5   5   4    0.29    0.15
   5   5   4    0.26    0.07
   6   5   4    0.10    0.12
   6   5   4   -0.04    0.04
   7  -6  -4    0.31    0.07
   7  -6  -4    0.53    0.07
   7  -6  -4    0.35    0.05
   6  -6  -4   -0.03    0.10
   6  -6  -4   -0.07    0.08
   5  -6  -4    1.56    0.13
   5  -6  -4    1.49    0.13
   5  -6  -4    1.49    0.18
   4  -6  -4    2.91    0.21
   4  -6  -4    3.04    0.19
   4  -6  -4    2.96    0.20
   4  -6  -4    3.07    0.24
   3  -6  -4    0.62    0.11
   3  -6  -4    0.66    0.10
   2  -6  -4    0.33    0.12
   1  -6  -4    0.08    0.11
   0   6   4    1.02    0.13
   1   6   4    2.10    0.18
   1   6   4    2.43    0.23
   2   6   4    0.30    0.09
   2   6   4    0.21    0.09
   2   6   4    0.29    0.16
   3   6   4    0.28    0.09
   3   6   4    0.31    0.09
   3   6   4    0.46    0.17
   4   6   4   -0.07    0.06
   4   6   4    0.09    0.14
   4   6   4    0.03    0.09
   5   6   4    0.24    0.12
   5   6   4    0.14    0.06
   6  -7  -4    0.18    0.05
   6  -7  -4    0.25    0.07
   5  -7  -4    3.72    0.24
   5  -7  -4    3.56    0.20
   5  -7  -4    3.94    0.21
   4  -7  -4    0.72    0.09
   4  -7  -4    0.58    0.11
   3  -7  -4    0.81    0.10
   3  -7  -4    0.72    0.10
   2  -7  -4    1.34    0.14
   1  -7  -4    0.24    0.11
  -1   7   4    0.05    0.11
   0   7   4    0.20    0.11
   1   7   4   -0.01    0.09
   1   7   4    0.01    0.09
   1   7   4    0.16    0.14
   2   7   4    0.59    0.15
   2   7   4    0.39    0.08
   3   7   4    0.05    0.07
   3   7   4   -0.09    0.06
   3   7   4    0.07    0.13
   4   7   4    0.05    0.10
   4   7   4    0.10    0.06
   4  -8  -4   -0.02    0.05
   4  -8  -4   -0.05    0.07
   3  -8  -4    0.65    0.10
   3  -8  -4    0.65    0.08
   3  -8  -4    0.64    0.07
   2  -8  -4    0.14    0.08
  -2   8   4    0.14    0.10
   1  -8  -4    0.27    0.09
  -1   8   4    0.21    0.10
   0  -8  -4    0.29    0.09
   0   8   4    0.11    0.08
   0   8   4    0.19    0.11
   1   8   4   -0.02    0.10
   1   8   4    0.00    0.07
   2   8   4    0.03    0.10
   2   8   4   -0.02    0.05
   4   9  -5    0.22    0.07
   3   9  -5    0.14    0.07
   3   9  -5    0.26    0.08
   2   9  -5    0.21    0.09
   2   9  -5    0.19    0.10
   1   9  -5    0.13    0.05
   1   9  -5    0.19    0.09
   1   9  -5    0.29    0.10
   1   9  -5    0.14    0.11
   0   9  -5    0.76    0.10
   0   9  -5    0.80    0.11
  -1   9  -5    0.53    0.10
  -1   9  -5    0.59    0.12
   1  -9   5    0.86    0.11
  -2   9  -5   -0.01    0.11
   2  -9   5    0.08    0.10
   2  -9   5    0.00    0.06
   3  -9   5    0.13    0.07
   3  -9   5    0.22    0.08
   4  -9   5    0.43    0.06
   4  -9   5    0.42    0.08
   5   8  -5    0.01    0.09
   5   8  -5   -0.03    0.05
   4   8  -5    0.33    0.11
   4   8  -5    0.18    0.07
   3   8  -5   -0.10    0.08
   3   8  -5   -0.04    0.07
   3   8  -5    0.14    0.13
   2   8  -5    0.32    0.13
   2   8  -5    0.18    0.14
   2   8  -5    0.12    0.09
   2   8  -5    0.27    0.09
   1   8  -5    2.29    0.18
   1   8  -5    2.80    0.22
   1   8  -5    2.80    0.24
   0   8  -5   -0.14    0.12
   0   8  -5    0.05    0.09
  -1   8  -5   -0.08    0.11
   2  -8   5    0.17    0.10
   3  -8   5    2.91    0.22
   3  -8   5    2.68    0.19
   4  -8   5    0.27    0.11
   4  -8   5    0.12    0.07
   4  -8   5    0.15    0.07
   5  -8   5    0.19    0.06
   5  -8   5    0.13    0.08
   5  -8   5    0.08    0.07
   6  -8   5    0.12    0.07
   6   7  -5    0.13    0.08
   6   7  -5    0.22    0.12
   5   7  -5    0.16    0.09
   5   7  -5    0.07    0.11
   5   7  -5    0.00    0.07
   4   7  -5    0.30    0.15
   4   7  -5    0.27    0.09
   3   7  -5    0.39    0.14
   3   7  -5    0.15    0.14
   3   7  -5   -0.01    0.09
   3   7  -5    0.03    0.07
   2   7  -5   -0.01    0.08
   2   7  -5   -0.04    0.20
   2   7  -5    0.03    0.09
   2   7  -5    0.19    0.11
   2   7  -5    0.08    0.10
   1   7  -5   -0.06    0.12
   1   7  -5    0.03    0.20
   1   7  -5   -0.24    0.23
   1   7  -5    0.17    0.09
   0   7  -5    2.27    0.33
   0   7  -5    2.30    0.25
  -1   7  -5    5.70    0.41
  -1   7  -5    5.69    0.47
   2  -7   5   13.56    0.79
   2  -7   5   12.23    0.97
   3  -7   5    1.37    0.12
   3  -7   5    1.76    0.17
   4  -7   5    0.59    0.13
   4  -7   5    0.58    0.09
   4  -7   5    0.56    0.10
   5  -7   5    0.67    0.11
   5  -7   5    0.62    0.09
   5  -7   5    0.69    0.08
   6  -7   5    0.66    0.06
   6  -7   5    0.73    0.08
   6  -7   5    0.50    0.09
   7  -7   5    0.02    0.04
   7   6  -5    3.85    0.25
   7   6  -5    4.63    0.30
   6   6  -5    0.01    0.12
   6   6  -5   -0.06    0.11
   5   6  -5    3.15    0.24
   5   6  -5    3.81    0.30
   5   6  -5    3.27    0.19
   4   6  -5    2.51    0.17
   4   6  -5    1.72    0.34
   4   6  -5    2.54    0.19
   4   6  -5    2.54    0.17
   4   6  -5    2.73    0.26
   4   6  -5    2.60    0.15
   3   6  -5    4.36    0.25
   3   6  -5    4.68    0.33
   3   6  -5    4.98    0.24
   3   6  -5    4.20    0.39
   3   6  -5    4.79    0.41
   3   6  -5    4.50    0.25
   3   6  -5    4.00    0.36
   3   6  -5    4.38    0.28
   2   6  -5    2.04    0.29
   2   6  -5    2.40    0.16
   2   6  -5    2.34    0.21
   2   6  -5    2.36    0.16
   2   6  -5    2.09    0.20
   2   6  -5    2.66    0.34
   2   6  -5    2.38    0.27
   1   6  -5    3.14    0.34
   1   6  -5    2.76    0.24
   1   6  -5    2.85    0.19
   1   6  -5    2.97    0.33
   1   6  -5    2.82    0.30
   0   6  -5    0.57    0.23
   0   6  -5    0.45    0.10
   2  -6   5   11.00    0.67
   3  -6   5    5.22    0.50
   3  -6   5    5.05    0.34
   3  -6   5    4.69    0.28
   4  -6   5    0.72    0.24
   4  -6   5    0.51    0.10
   4  -6   5    0.42    0.09
   4  -6   5    0.59    0.09
   5  -6   5    0.00    0.08
   5  -6   5    0.06    0.10
   5  -6   5    0.10    0.08
   6  -6   5    0.07    0.08
   6  -6   5    0.11    0.11
   6  -6   5    0.11    0.06
   7  -6   5    0.09    0.08
   7  -6   5    0.02    0.06
   8   5  -5    0.05    0.08
   8   5  -5    0.04    0.07
   7   5  -5   -0.04    0.11
   7   5  -5   -0.11    0.11
   6   5  -5    0.47    0.11
   6   5  -5    0.49    0.13
   6   5  -5    0.41    0.09
   5   5  -5    6.80    0.36
   5   5  -5    7.37    0.43
   5   5  -5    7.42    0.35
   5   5  -5    6.01    0.56
   5   5  -5    8.07    0.50
   4   5  -5    7.71    0.37
   4   5  -5    7.20    0.44
   4   5  -5    7.39    0.56
   4   5  -5    7.66    0.38
   4   5  -5    8.03    0.38
   4   5  -5    7.97    0.50
   4   5  -5    6.98    0.46
   3   5  -5    0.31    0.07
   3   5  -5    0.25    0.15
   3   5  -5    0.36    0.10
   3   5  -5    0.44    0.13
   3   5  -5    0.34    0.07
   3   5  -5    0.19    0.19
   3   5  -5    0.24    0.16
   3   5  -5    0.31    0.06
   2   5  -5    1.06    0.21
   2   5  -5    1.07    0.22
   2   5  -5    0.79    0.17
   2   5  -5    0.94    0.08
   2   5  -5    0.86    0.08
   2   5  -5    0.62    0.10
   1   5  -5    3.23    0.31
   1   5  -5    3.21    0.27
   1   5  -5    3.04    0.32
   0   5  -5    5.68    0.42
   0   5  -5    5.81    0.45
   2  -5   5    0.90    0.12
   2  -5   5    1.11    0.24
   2  -5   5    1.18    0.20
   3  -5   5   19.17    1.09
   3  -5   5   17.64    1.12
   3  -5   5   19.88    1.29
   3  -5   5   17.23    0.88
   3  -5   5   17.24    1.07
   4  -5   5    1.81    0.17
   4  -5   5    1.78    0.16
   4  -5   5    1.90    0.17
   4  -5   5    1.81    0.16
   4  -5   5    1.67    0.26
   4  -5   5    1.72    0.26
   4  -5   5    1.68    0.33
   5  -5   5    0.33    0.10
   5  -5   5    0.27    0.09
   5  -5   5    0.01    0.25
   5  -5   5    0.25    0.09
   5  -5   5    0.33    0.13
   6  -5   5    0.32    0.08
   6  -5   5    0.38    0.10
   6  -5   5    0.32    0.09
   6  -5   5    0.33    0.06
   7  -5   5    0.26    0.09
   7  -5   5    0.27    0.06
   7  -5   5    0.28    0.08
   8  -5   5    0.48    0.07
   8   4  -5    1.07    0.13
   8   4  -5    1.26    0.14
   7   4  -5    1.08    0.12
   7   4  -5    0.88    0.14
   7   4  -5    0.86    0.10
   6   4  -5   12.57    0.78
   6   4  -5   12.40    0.67
   6   4  -5   11.85    0.59
   5   4  -5    0.81    0.15
   5   4  -5    0.59    0.26
   5   4  -5    0.68    0.12
   5   4  -5    0.67    0.06
   5   4  -5    0.71    0.09
   5   4  -5    0.63    0.13
   4   4  -5    2.91    0.15
   4   4  -5    2.98    0.16
   4   4  -5    3.28    0.20
   4   4  -5    2.82    0.20
   4   4  -5    2.99    0.17
   4   4  -5    3.37    0.32
   4   4  -5    3.01    0.20
   4   4  -5    2.56    0.20
   4   4  -5    3.01    0.25
   3   4  -5    9.85    0.58
   3   4  -5    9.85    0.55
   3   4  -5    9.52    0.47
   3   4  -5    9.44    0.60
   3   4  -5    8.51    0.45
   3   4  -5    9.08    0.60
   3   4  -5   10.53    0.64
   2   4  -5   -0.02    0.12
   2   4  -5    0.29    0.18
   2   4  -5   -0.01    0.15
   1   4  -5   69.99    3.95
   1   4  -5   71.49    4.08
   0   4  -5    0.54    0.15
   0   4  -5    0.59    0.16
   0   4  -5    0.73    0.17
   0  -4   5    0.52    0.14
  -1   4  -5    0.34    0.16
   1  -4   5    0.30    0.17
   1  -4   5    0.40    0.16
   2  -4   5    6.94    0.50
   2  -4   5    6.88    0.46
   3  -4   5   28.55    1.45
   3  -4   5   27.79    1.66
   3  -4   5   34.68    1.73
   3  -4   5   29.69    1.75
   4  -4   5   18.77    1.12
   4  -4   5   18.98    1.06
   4  -4   5   18.22    1.17
   4  -4   5   18.69    0.89
   4  -4   5   19.54    1.34
   4  -4   5   19.31    1.11
   4  -4   5   19.02    0.92
   5  -4   5    0.14    0.13
   5  -4   5    0.17    0.24
   5  -4   5    0.53    0.17
   5  -4   5    0.40    0.07
   5  -4   5    0.48    0.12
   5  -4   5    0.58    0.10
   6  -4   5    1.37    0.10
   6  -4   5    1.19    0.15
   6  -4   5    1.18    0.15
   6  -4   5    1.43    0.13
   7  -4   5    4.10    0.20
   7  -4   5    4.09    0.26
   7  -4   5    3.37    0.26
   8  -4   5   -0.05    0.09
   9   3  -5    0.50    0.08
   9   3  -5    0.36    0.09
   8   3  -5    0.10    0.08
   8   3  -5    0.10    0.07
   8   3  -5    0.08    0.11
   7   3  -5    2.69    0.18
   7   3  -5    2.36    0.22
   7   3  -5    2.53    0.22
   7   3  -5    2.73    0.20
   6   3  -5    3.18    0.24
   6   3  -5    3.24    0.23
   6   3  -5    2.93    0.24
   6   3  -5    3.02    0.20
   6   3  -5    3.18    0.27
   5   3  -5    1.57    0.19
   5   3  -5    1.30    0.15
   5   3  -5    1.55    0.17
   5   3  -5    1.56    0.24
   5   3  -5    1.43    0.09
   5   3  -5    1.67    0.16
   5   3  -5    1.45    0.13
   4   3  -5    0.16    0.17
   4   3  -5    0.03    0.06
   4   3  -5    0.09    0.04
   4   3  -5    0.09    0.09
   4   3  -5    0.10    0.08
   3   3  -5   21.77    1.28
   3   3  -5   20.35    1.25
   3   3  -5   22.07    1.21
   2   3  -5   24.11    1.48
   2   3  -5   26.90    1.50
   2   3  -5   25.15    1.43
   1   3  -5   75.63    4.06
   1   3  -5   81.74    4.20
   1   3  -5   68.53    3.53
   1   3  -5   67.68    3.52
  -1  -3   5   70.91    3.52
   0   3  -5   16.32    0.94
   0   3  -5   16.39    0.91
   0   3  -5   14.32    0.83
   0   3  -5   15.45    0.81
   0  -3   5   15.62    0.82
   0  -3   5   15.33    0.82
   0  -3   5   14.49    0.91
   0  -3   5   15.50    0.94
  -1   3  -5   19.92    1.23
  -1   3  -5   21.10    1.18
  -1   3  -5   19.89    1.07
  -1   3  -5   20.70    1.05
   1  -3   5   20.13    1.05
   1  -3   5   20.44    1.06
   1  -3   5   20.75    1.19
   1  -3   5   21.14    1.23
   2  -3   5    0.09    0.16
   2  -3   5    0.12    0.17
   2  -3   5   -0.01    0.17
   3  -3   5   31.44    1.87
   3  -3   5   31.87    1.80
   4  -3   5    7.84    0.47
   4  -3   5    8.70    0.52
   4  -3   5    7.93    0.54
   4  -3   5    8.01    0.47
   4  -3   5    7.92    0.40
   4  -3   5    6.96    0.58
   4  -3   5    7.63    0.62
   5  -3   5   -0.13    0.17
   5  -3   5    0.39    0.09
   5  -3   5    0.15    0.10
   5  -3   5    0.22    0.11
   5  -3   5    0.30    0.16
   5  -3   5    0.22    0.14
   5  -3   5    0.21    0.07
   5  -3   5    0.36    0.13
   6  -3   5    2.16    0.12
   6  -3   5    2.36    0.23
   6  -3   5    1.73    0.20
   6  -3   5    2.43    0.15
   6  -3   5    2.42    0.23
   7  -3   5   -0.01    0.06
   7  -3   5    0.08    0.12
   7  -3   5    0.04    0.12
   8  -3   5    0.09    0.10
   8  -3   5    0.07    0.10
   8   2  -5    1.59    0.18
   8   2  -5    2.22    0.18
   8   2  -5    2.25    0.16
   8   2  -5    2.02    0.16
   8   2  -5    1.87    0.14
   7   2  -5    0.31    0.12
   7   2  -5    0.52    0.08
   7   2  -5    0.43    0.10
   7   2  -5    0.55    0.13
   7   2  -5    0.53    0.11
   7   2  -5    0.41    0.12
   6   2  -5    1.27    0.12
   6   2  -5    1.42    0.14
   6   2  -5    1.54    0.14
   6   2  -5    1.26    0.14
   6   2  -5    1.12    0.15
   6   2  -5    1.47    0.16
   5   2  -5    0.64    0.09
   5   2  -5    0.57    0.12
   5   2  -5    0.64    0.09
   5   2  -5    0.54    0.09
   5   2  -5    0.77    0.09
   5   2  -5    0.83    0.11
   4   2  -5    8.63    0.55
   3   2  -5    0.03    0.08
   3   2  -5    0.07    0.12
   3   2  -5    0.10    0.09
   3   2  -5    0.04    0.10
   3   2  -5    0.08    0.09
   3   2  -5    0.09    0.09
   2   2  -5    4.54    0.28
   2   2  -5    4.96    0.32
   2   2  -5    4.09    0.31
   2   2  -5    4.44    0.29
   2   2  -5    5.11    0.33
   2   2  -5    4.90    0.31
  -2  -2   5    4.40    0.29
  -2  -2   5    4.48    0.30
   1   2  -5    2.65    0.20
   1   2  -5    2.45    0.23
   1   2  -5    2.48    0.23
   1   2  -5    2.40    0.20
  -1  -2   5    2.39    0.22
  -1  -2   5    2.49    0.23
   0   2  -5    0.39    0.13
   0   2  -5    0.38    0.14
   0   2  -5    0.46    0.14
   0   2  -5    0.39    0.12
   0  -2   5    0.47    0.14
   0  -2   5    0.45    0.16
   0  -2   5    0.37    0.14
   0  -2   5    0.30    0.14
  -1   2  -5    0.09    0.12
  -1   2  -5    0.04    0.14
  -1   2  -5    0.33    0.13
  -1   2  -5    0.01    0.13
   1  -2   5    0.12    0.14
   1  -2   5    0.11    0.12
   1  -2   5    0.16    0.14
   1  -2   5    0.13    0.14
  -2   2  -5    0.30    0.18
   2  -2   5    0.48    0.18
   2  -2   5    0.45    0.15
   2  -2   5    0.38    0.15
   3  -2   5    0.21    0.16
   3  -2   5    0.06    0.15
   4  -2   5    0.15    0.07
   4  -2   5    0.24    0.07
   4  -2   5    0.26    0.12
   4  -2   5    0.07    0.12
   4  -2   5    0.20    0.16
   4  -2   5    0.12    0.17
   4  -2   5    0.14    0.07
   5  -2   5    8.80    0.64
   5  -2   5    9.86    0.47
   5  -2   5    8.24    0.61
   5  -2   5   10.08    0.46
   5  -2   5    9.31    0.71
   5  -2   5   10.45    0.57
   6  -2   5    2.08    0.22
   6  -2   5    1.77    0.24
   6  -2   5    2.00    0.14
   6  -2   5    1.74    0.26
   7  -2   5    0.45    0.16
   7  -2   5    0.24    0.06
   7  -2   5    0.25    0.13
   7  -2   5    0.38    0.13
   8  -2   5    0.15    0.09
   8  -2   5    0.08    0.08
   9   1  -5    0.85    0.11
   8   1  -5    0.55    0.07
   8   1  -5    0.28    0.15
   8   1  -5    0.68    0.11
   8   1  -5    0.59    0.13
   8   1  -5    0.70    0.11
   7   1  -5    0.13    0.07
   7   1  -5    0.03    0.10
   7   1  -5   -0.02    0.12
   7   1  -5    0.12    0.12
   7   1  -5    0.25    0.13
   7   1  -5    0.21    0.11
   6   1  -5    6.82    0.43
   6   1  -5    6.87    0.40
   6   1  -5    6.31    0.55
   6   1  -5    6.87    0.33
   6   1  -5    6.01    0.46
   6   1  -5    6.56    0.38
   6   1  -5    6.31    0.39
   5   1  -5    7.94    0.48
   5   1  -5    8.06    0.46
   5   1  -5    8.69    0.62
   5   1  -5    7.51    0.38
   5   1  -5    7.39    0.46
   5   1  -5    7.41    0.43
   4   1  -5   17.03    1.18
   3   1  -5    5.10    0.37
   3   1  -5    4.00    0.25
   3   1  -5    4.48    0.29
   3   1  -5    3.90    0.28
   3   1  -5    4.57    0.27
   3   1  -5    4.18    0.27
   3   1  -5    4.06    0.28
  -3  -1   5    4.24    0.26
   2   1  -5    0.29    0.10
   2   1  -5    0.43    0.20
   2   1  -5    0.34    0.11
   2   1  -5    0.29    0.10
   2   1  -5    0.20    0.11
   2   1  -5    0.28    0.13
   2   1  -5    0.32    0.10
   2   1  -5    0.37    0.09
  -2  -1   5    0.14    0.12
  -2  -1   5    0.25    0.11
   1   1  -5    7.08    0.42
   1   1  -5    6.71    0.39
   1   1  -5    7.37    0.44
   1   1  -5    6.73    0.39
  -1  -1   5    6.59    0.41
  -1  -1   5    5.69    0.43
  -1  -1   5    6.36    0.44
  -1  -1   5    7.15    0.40
   0   1  -5   46.38    2.20
   0   1  -5   43.96    2.21
   0   1  -5   46.60    2.53
   0   1  -5   46.95    2.62
   0  -1   5   43.50    2.54
   0  -1   5   45.05    2.21
   0  -1   5   45.37    2.20
   0  -1   5   44.64    2.62
  -1   1  -5   32.54    1.88
  -1   1  -5   33.16    1.59
  -1   1  -5   31.08    1.81
  -1   1  -5   31.16    1.59
   1  -1   5   31.12    1.60
   1  -1   5   34.12    1.88
   1  -1   5   31.67    1.59
   1  -1   5   32.60    1.82
  -2   1  -5    8.03    0.49
   2  -1   5    7.50    0.48
   2  -1   5    8.89    0.54
   2  -1   5    7.96    0.51
   3  -1   5    0.43    0.18
   3  -1   5    0.75    0.17
   4  -1   5    8.18    0.49
   4  -1   5    7.95    0.42
   4  -1   5    9.33    0.56
   4  -1   5    9.52    0.54
   4  -1   5    8.76    0.50
   4  -1   5    7.34    0.57
   4  -1   5    8.07    0.40
   5  -1   5    7.16    0.54
   5  -1   5    8.25    0.58
   5  -1   5    8.03    0.63
   5  -1   5    9.00    0.50
   5  -1   5    8.51    0.41
   5  -1   5    8.95    0.41
   5  -1   5    8.12    0.52
   6  -1   5   -0.09    0.14
   6  -1   5    0.08    0.17
   6  -1   5    0.23    0.15
   7  -1   5   -0.13    0.12
   7  -1   5    0.02    0.15
   7  -1   5    0.00    0.06
   7  -1   5   -0.06    0.11
   8  -1   5   -0.07    0.09
   8  -1   5   -0.10    0.11
   9   0  -5   -0.08    0.11
   9   0  -5   -0.08    0.08
   9   0  -5    0.03    0.06
   8   0  -5    1.60    0.15
   8   0  -5    1.63    0.20
   8   0  -5    1.65    0.16
   8   0  -5    1.44    0.20
   7   0  -5    3.94    0.22
   7   0  -5    4.04    0.32
   7   0  -5    3.61    0.28
   7   0  -5    4.19    0.28
   7   0  -5    2.99    0.42
   7   0  -5    4.01    0.27
   6   0  -5   32.78    1.90
   6   0  -5   33.93    1.83
   6   0  -5   32.26    2.21
   6   0  -5   32.67    1.80
   6   0  -5   30.50    2.08
   6   0  -5   33.00    1.51
   5   0  -5   29.91    1.42
   5   0  -5   34.49    2.09
   5   0  -5   29.61    1.79
   5   0  -5   31.79    1.72
   5   0  -5   27.53    1.95
   5   0  -5   30.10    1.70
   5   0  -5   31.52    1.41
   4   0  -5    0.09    0.06
   4   0  -5    0.17    0.07
   4   0  -5    0.17    0.06
   4   0  -5    0.21    0.22
   4   0  -5    0.15    0.07
   3   0  -5    0.21    0.21
   3   0  -5    0.10    0.10
   3   0  -5    0.23    0.11
   3   0  -5    0.07    0.08
   3   0  -5    0.27    0.12
   3   0  -5    0.18    0.09
   2   0  -5  376.25   20.72
   2   0  -5  392.70   21.40
   2   0  -5  355.26   17.73
   2   0  -5  365.26   17.73
   2   0  -5  379.88   24.42
  -2   0   5  379.71   17.73
  -2   0   5  362.20   17.73
   1   0  -5   49.82    2.46
   1   0  -5   52.50    3.33
   1   0  -5   52.99    2.83
   1   0  -5   49.73    2.46
   1   0  -5   54.15    2.93
  -1   0   5   50.08    2.93
  -1   0   5   52.50    2.46
  -1   0   5   44.76    2.83
  -1   0   5   50.37    2.47
   0   0  -5   30.07    1.64
   0   0  -5   28.27    1.69
   0   0  -5   29.12    1.44
   0   0  -5   29.39    1.44
   0   0   5   29.43    1.45
   0   0   5   29.65    1.44
   0   0   5   29.06    1.65
   0   0   5   27.78    1.70
  -1   0  -5    0.58    0.17
  -1   0  -5    0.35    0.15
  -1   0  -5    0.27    0.16
  -1   0  -5    0.49    0.16
   1   0   5    0.38    0.17
   1   0   5    0.48    0.15
   1   0   5    0.43    0.15
   1   0   5    0.62    0.17
   2   0   5    2.38    0.25
   2   0   5    2.51    0.26
   2   0   5    2.60    0.25
   3   0   5    8.09    0.51
   3   0   5    7.61    0.51
   4   0   5    2.94    0.26
   4   0   5    2.74    0.23
   4   0   5    2.74    0.27
   4   0   5    2.89    0.20
   4   0   5    2.58    0.17
   4   0   5    2.19    0.26
   4   0   5    2.46    0.28
   4   0   5    2.50    0.17
   5   0   5    0.29    0.13
   5   0   5    0.21    0.11
   5   0   5    0.27    0.07
   5   0   5    0.12    0.13
   5   0   5    0.21    0.16
   5   0   5    0.07    0.15
   5   0   5    0.32    0.12
   5   0   5    0.29    0.09
   6   0   5    5.25    0.27
   6   0   5    4.63    0.34
   6   0   5    5.07    0.39
   6   0   5    5.26    0.43
   7   0   5    0.76    0.13
   7   0   5    1.07    0.18
   7   0   5    0.93    0.15
   7   0   5    1.19    0.08
   8   0   5    1.30    0.17
   8   0   5    1.50    0.18
   9  -1  -5    0.06    0.09
   9  -1  -5   -0.02    0.06
   9  -1  -5    0.00    0.10
   8  -1  -5    0.75    0.13
   8  -1  -5    0.73    0.14
   8  -1  -5    0.68    0.12
   7  -1  -5    0.59    0.13
   7  -1  -5    0.68    0.14
   7  -1  -5    0.59    0.14
   7  -1  -5    0.43    0.15
   6  -1  -5   34.38    1.61
   6  -1  -5   35.33    2.23
   6  -1  -5   33.86    2.04
   6  -1  -5   34.71    1.93
   6  -1  -5   32.30    2.38
   6  -1  -5   38.00    1.96
   6  -1  -5   35.26    1.62
   5  -1  -5   22.48    1.49
   5  -1  -5   21.63    1.21
   5  -1  -5   21.46    1.19
   5  -1  -5   20.63    1.26
   5  -1  -5   21.72    1.38
   5  -1  -5   20.68    1.00
   5  -1  -5   21.60    0.99
   4  -1  -5    2.70    0.21
   4  -1  -5    2.65    0.21
   4  -1  -5    2.68    0.31
   3  -1  -5    8.68    0.54
   3  -1  -5    8.96    0.56
   3  -1  -5    9.08    0.67
   2  -1  -5   92.39    5.02
   2  -1  -5   90.63    5.91
   2  -1  -5   84.05    4.34
   2  -1  -5   93.85    5.18
   1  -1  -5   17.47    1.14
   1  -1  -5   16.39    0.86
   1  -1  -5   16.70    0.87
   1  -1  -5   17.76    1.01
   1  -1  -5   17.95    0.98
  -1   1   5   16.43    1.01
  -1   1   5   16.32    0.87
  -1   1   5   15.49    0.98
  -1   1   5   16.77    0.87
   0  -1  -5   11.54    0.68
   0  -1  -5   11.09    0.69
   0  -1  -5   10.96    0.62
   0  -1  -5   11.01    0.60
   0   1   5   10.95    0.69
   0   1   5   10.97    0.63
   0   1   5   11.02    0.68
   0   1   5   11.31    0.61
  -1  -1  -5    7.86    0.49
   1   1   5    8.82    0.54
   1   1   5    7.47    0.48
   1   1   5    8.56    0.53
   1   1   5    7.79    0.51
   1   1   5    8.04    0.52
   2   1   5    5.08    0.37
   2   1   5    4.97    0.38
   2   1   5    4.78    0.36
   3   1   5   19.59    1.15
   3   1   5   18.56    1.13
   4   1   5    5.63    0.40
   4   1   5    6.17    0.31
   4   1   5    6.41    0.48
   4   1   5    5.98    0.32
   4   1   5    5.14    0.37
   4   1   5    6.24    0.44
   4   1   5    6.75    0.44
   4   1   5    6.69    0.43
   5   1   5    3.71    0.31
   5   1   5    2.83    0.28
   5   1   5    3.79    0.21
   5   1   5    3.79    0.27
   5   1   5    3.23    0.24
   5   1   5    3.82    0.20
   5   1   5    3.72    0.34
   6   1   5    2.71    0.17
   6   1   5    2.53    0.25
   6   1   5    2.71    0.30
   6   1   5    2.71    0.28
   7   1   5    0.77    0.16
   7   1   5    0.98    0.17
   8   1   5    0.33    0.11
   8   1   5    0.21    0.11
   9  -2  -5    0.72    0.09
   9  -2  -5    0.48    0.07
   9  -2  -5    0.77    0.09
   8  -2  -5    0.01    0.12
   8  -2  -5   -0.04    0.08
   8  -2  -5    0.00    0.12
   7  -2  -5    2.83    0.23
   7  -2  -5    2.73    0.24
   7  -2  -5    2.78    0.24
   6  -2  -5    6.94    0.33
   6  -2  -5    6.85    0.45
   6  -2  -5    6.79    0.42
   6  -2  -5    5.80    0.61
   6  -2  -5    6.94    0.42
   5  -2  -5    0.00    0.23
   5  -2  -5    0.19    0.10
   5  -2  -5    0.12    0.09
   5  -2  -5    0.13    0.05
   5  -2  -5   -0.01    0.07
   5  -2  -5    0.03    0.06
   5  -2  -5    0.04    0.13
   5  -2  -5   -0.04    0.12
   4  -2  -5    9.29    0.56
   4  -2  -5    8.99    0.46
   4  -2  -5    9.24    0.48
   4  -2  -5   10.67    0.60
   4  -2  -5   10.08    0.75
   4  -2  -5    9.30    0.55
   4  -2  -5   10.56    0.61
   3  -2  -5    5.47    0.38
   3  -2  -5    5.40    0.38
   3  -2  -5    5.45    0.45
   2  -2  -5    0.09    0.15
   2  -2  -5   -0.02    0.16
   2  -2  -5    0.13    0.12
   1  -2  -5   23.01    1.53
   1  -2  -5   24.25    1.37
   1  -2  -5   21.59    1.17
   1  -2  -5   24.75    1.32
  -1   2   5   20.68    1.17
   0  -2  -5   31.05    1.69
   0  -2  -5   28.82    1.49
   0  -2  -5   29.17    1.74
   0   2   5   27.27    1.49
   0   2   5   31.23    1.69
   0   2   5   29.56    1.74
   1   2   5   19.84    1.23
   1   2   5   21.42    1.21
   1   2   5   20.72    1.23
   2   2   5   32.55    1.97
   2   2   5   34.22    1.96
   2   2   5   33.47    1.91
   3   2   5    2.61    0.17
   3   2   5    2.93    0.21
   3   2   5    2.95    0.29
   3   2   5    3.02    0.32
   3   2   5    2.35    0.26
   3   2   5    2.71    0.18
   3   2   5    3.15    0.28
   4   2   5    7.74    0.54
   4   2   5    7.60    0.51
   4   2   5    6.81    0.58
   4   2   5    7.88    0.53
   4   2   5    7.64    0.60
   4   2   5    8.21    0.40
   4   2   5    7.88    0.39
   4   2   5    8.62    0.57
   5   2   5   -0.05    0.13
   5   2   5   -0.04    0.06
   5   2   5   -0.13    0.17
   5   2   5    0.10    0.09
   5   2   5   -0.14    0.17
   6   2   5    5.52    0.42
   6   2   5    5.28    0.43
   6   2   5    5.47    0.27
   6   2   5    4.80    0.36
   7   2   5    0.08    0.13
   7   2   5   -0.08    0.13
   8   2   5   -0.01    0.07
   9  -3  -5    0.03    0.08
   8  -3  -5    1.29    0.14
   8  -3  -5    0.80    0.11
   8  -3  -5    1.18    0.13
   7  -3  -5    0.69    0.07
   7  -3  -5    0.62    0.13
   7  -3  -5    0.81    0.14
   7  -3  -5    0.82    0.13
   6  -3  -5   11.04    0.52
   6  -3  -5    9.17    0.86
   6  -3  -5   10.66    0.65
   6  -3  -5   11.66    0.64
   6  -3  -5   11.48    0.68
   5  -3  -5   40.18    2.87
   5  -3  -5   40.20    2.48
   5  -3  -5   42.94    2.06
   5  -3  -5   42.30    2.39
   5  -3  -5   42.28    2.49
   5  -3  -5   45.37    2.36
   5  -3  -5   45.21    1.97
   4  -3  -5    1.13    0.13
   4  -3  -5    1.08    0.19
   4  -3  -5    1.02    0.09
   4  -3  -5    0.98    0.11
   4  -3  -5    0.96    0.20
   4  -3  -5    1.13    0.29
   4  -3  -5    1.28    0.10
   4  -3  -5    1.24    0.10
   4  -3  -5    1.49    0.12
   4  -3  -5    1.13    0.15
   3  -3  -5    0.74    0.09
   3  -3  -5    0.72    0.19
   3  -3  -5    0.71    0.11
   3  -3  -5    0.78    0.21
   3  -3  -5    0.78    0.18
   2  -3  -5    9.84    0.65
   2  -3  -5    9.96    0.73
   2  -3  -5   10.20    0.64
   1  -3  -5    0.01    0.17
   1  -3  -5    0.28    0.16
   1   3   5    3.75    0.32
   1   3   5    3.62    0.34
   2   3   5    1.55    0.25
   2   3   5    1.82    0.15
   2   3   5    1.86    0.18
   2   3   5    1.89    0.26
   2   3   5    1.45    0.20
   2   3   5    1.63    0.15
   2   3   5    1.83    0.25
   3   3   5    0.82    0.10
   3   3   5    0.68    0.11
   3   3   5    0.95    0.24
   3   3   5    0.84    0.16
   3   3   5    0.84    0.11
   3   3   5    0.70    0.24
   3   3   5    0.94    0.23
   4   3   5   26.30    1.30
   4   3   5   27.03    1.90
   4   3   5   26.19    1.26
   4   3   5   28.26    1.74
   5   3   5   10.58    0.52
   5   3   5   10.82    0.51
   5   3   5   11.68    0.79
   5   3   5    9.06    0.67
   5   3   5   11.14    0.73
   6   3   5   -0.05    0.12
   6   3   5   -0.06    0.14
   6   3   5    0.09    0.07
   6   3   5   -0.05    0.10
   7   3   5   -0.07    0.11
   7   3   5    0.04    0.11
   8  -4  -5    0.08    0.09
   8  -4  -5    0.08    0.08
   7  -4  -5    0.09    0.11
   7  -4  -5   -0.02    0.08
   7  -4  -5   -0.04    0.11
   7  -4  -5   -0.01    0.06
   6  -4  -5    5.05    0.35
   6  -4  -5    5.51    0.32
   6  -4  -5    5.35    0.28
   6  -4  -5    5.47    0.36
   5  -4  -5   12.51    0.81
   5  -4  -5   15.18    0.79
   5  -4  -5   11.14    0.99
   5  -4  -5   14.41    0.67
   5  -4  -5   13.74    0.64
   4  -4  -5    4.91    0.41
   4  -4  -5    4.69    0.50
   4  -4  -5    5.21    0.28
   4  -4  -5    5.55    0.36
   4  -4  -5    5.57    0.34
   4  -4  -5    5.57    0.29
   4  -4  -5    5.14    0.41
   3  -4  -5    4.33    0.30
   3  -4  -5    4.01    0.24
   3  -4  -5    4.73    0.35
   3  -4  -5    4.36    0.37
   3  -4  -5    4.46    0.42
   3  -4  -5    4.25    0.25
   2  -4  -5    8.49    0.55
   2  -4  -5    7.98    0.50
   2  -4  -5    7.28    0.41
   2  -4  -5    8.57    0.56
   1  -4  -5    0.40    0.11
   0   4   5    1.28    0.13
   1   4   5    0.93    0.24
   1   4   5    0.84    0.24
   1   4   5    0.92    0.13
   2   4   5    1.23    0.25
   2   4   5    1.22    0.12
   2   4   5    1.55    0.18
   2   4   5    1.27    0.12
   2   4   5    1.32    0.18
   2   4   5    1.07    0.24
   3   4   5    0.04    0.15
   3   4   5    0.05    0.10
   3   4   5    0.07    0.09
   3   4   5   -0.07    0.08
   4   4   5    0.44    0.18
   4   4   5    0.35    0.10
   4   4   5    0.28    0.09
   4   4   5    0.19    0.16
   5   4   5    0.27    0.15
   5   4   5    0.41    0.16
   5   4   5    0.20    0.08
   6   4   5    0.21    0.06
   6   4   5    0.28    0.13
   6   4   5    0.20    0.12
   8  -5  -5   -0.05    0.06
   7  -5  -5    0.33    0.09
   7  -5  -5    0.44    0.09
   7  -5  -5    0.16    0.05
   6  -5  -5    1.52    0.16
   6  -5  -5    1.82    0.16
   6  -5  -5    1.59    0.14
   5  -5  -5    1.85    0.16
   5  -5  -5    1.93    0.19
   5  -5  -5    1.83    0.14
   4  -5  -5    1.06    0.11
   4  -5  -5    1.05    0.15
   4  -5  -5    1.15    0.11
   4  -5  -5    0.66    0.10
   3  -5  -5    2.93    0.25
   3  -5  -5    2.73    0.32
   3  -5  -5    2.61    0.19
   2  -5  -5   10.91    0.66
   1  -5  -5   13.10    0.79
   0   5   5    2.32    0.23
   1   5   5    0.04    0.08
   1   5   5    0.01    0.12
   2   5   5    0.42    0.16
   2   5   5    0.34    0.10
   2   5   5    0.28    0.11
   3   5   5    0.93    0.17
   3   5   5    0.70    0.11
   3   5   5    0.73    0.11
   3   5   5    0.79    0.18
   4   5   5    0.34    0.15
   4   5   5    0.35    0.15
   4   5   5    0.32    0.09
   4   5   5    0.16    0.08
   5   5   5   -0.07    0.07
   5   5   5    0.04    0.11
   5   5   5   -0.07    0.12
   7  -6  -5   -0.02    0.03
   7  -6  -5   -0.02    0.06
   6  -6  -5    0.82    0.11
   6  -6  -5    0.77    0.08
   5  -6  -5    0.84    0.12
   5  -6  -5    0.77    0.09
   5  -6  -5    0.77    0.10
   4  -6  -5    2.53    0.18
   4  -6  -5    2.80    0.22
   4  -6  -5    2.77    0.18
   4  -6  -5    2.46    0.17
   3  -6  -5    5.92    0.33
   3  -6  -5    6.26    0.40
   2  -6  -5    3.14    0.25
   1  -6  -5    0.16    0.11
   0   6   5    0.33    0.13
   1   6   5   -0.06    0.10
   1   6   5    0.09    0.14
   1   6   5    0.08    0.10
   2   6   5    2.11    0.16
   2   6   5    2.35    0.25
   2   6   5    1.96    0.19
   3   6   5   -0.10    0.09
   3   6   5    0.01    0.13
   3   6   5    0.00    0.12
   3   6   5   -0.09    0.08
   4   6   5    0.02    0.12
   4   6   5    0.03    0.07
   5   6   5    0.07    0.05
   6  -7  -5    1.18    0.08
   6  -7  -5    1.11    0.10
   5  -7  -5    0.06    0.04
   5  -7  -5    0.02    0.06
   5  -7  -5    0.04    0.08
   4  -7  -5    0.65    0.11
   4  -7  -5    1.02    0.10
   3  -7  -5    0.02    0.08
   3  -7  -5    0.25    0.10
   3  -7  -5    0.20    0.08
   2  -7  -5    0.16    0.10
   1  -7  -5    0.51    0.12
  -1   7   5    0.54    0.12
   0   7   5    0.07    0.13
   0   7   5    0.00    0.09
   1   7   5    0.64    0.14
   1   7   5    0.61    0.09
   1   7   5    0.41    0.09
   2   7   5    0.36    0.12
   2   7   5    0.29    0.09
   3   7   5   -0.04    0.05
   3   7   5    0.13    0.10
   3   7   5   -0.09    0.07
   4  -8  -5    0.02    0.06
   3  -8  -5    0.08    0.07
   3  -8  -5    0.06    0.06
   2  -8  -5    0.13    0.07
   2  -8  -5    0.11    0.06
  -2   8   5    0.03    0.08
   1  -8  -5    0.14    0.06
   1  -8  -5   -0.02    0.06
  -1   8   5   -0.01    0.08
  -1   8   5   -0.06    0.10
   0  -8  -5    0.01    0.07
   0   8   5    0.07    0.07
   0   8   5   -0.05    0.08
   0   8   5    0.09    0.09
   1   8   5    0.14    0.06
   0  10  -6    0.01    0.06
  -1  10  -6    0.03    0.05
   4   9  -6    1.15    0.13
   3   9  -6    0.58    0.11
   3   9  -6    0.24    0.07
   2   9  -6    0.09    0.09
   2   9  -6    0.02    0.08
   1   9  -6    0.51    0.11
   1   9  -6    0.36    0.09
   0   9  -6    0.48    0.09
   0   9  -6    0.48    0.09
  -1   9  -6   -0.02    0.10
  -1   9  -6    0.16    0.09
   1  -9   6    0.06    0.11
  -2   9  -6    0.93    0.12
   2  -9   6    1.08    0.12
   2  -9   6    1.33    0.13
   3  -9   6    0.09    0.07
   3  -9   6    0.07    0.08
   3  -9   6    0.03    0.07
   4  -9   6    0.53    0.07
   4  -9   6    0.47    0.08
   5   8  -6    0.23    0.09
   5   8  -6    0.06    0.04
   4   8  -6    0.21    0.08
   4   8  -6    0.43    0.14
   3   8  -6   -0.12    0.11
   3   8  -6   -0.01    0.07
   3   8  -6   -0.16    0.09
   2   8  -6    1.10    0.12
   2   8  -6    1.52    0.19
   2   8  -6    1.03    0.11
   1   8  -6    0.30    0.10
   1   8  -6    0.17    0.10
   1   8  -6    0.49    0.14
   0   8  -6    0.50    0.10
   0   8  -6    0.37    0.12
  -1   8  -6    3.09    0.28
  -2   8  -6    0.22    0.12
   2  -8   6    0.32    0.12
   3  -8   6    0.16    0.10
   4  -8   6    1.40    0.13
   4  -8   6    1.58    0.15
   4  -8   6    1.43    0.12
   5  -8   6    0.77    0.11
   5  -8   6    1.04    0.08
   5  -8   6    0.88    0.09
   6   7  -6    0.30    0.08
   6   7  -6    0.55    0.13
   5   7  -6   -0.14    0.14
   5   7  -6    0.03    0.09
   5   7  -6   -0.10    0.06
   4   7  -6    0.03    0.08
   4   7  -6    0.05    0.09
   4   7  -6    0.00    0.15
   3   7  -6    0.01    0.15
   3   7  -6   -0.02    0.09
   3   7  -6   -0.02    0.08
   2   7  -6    1.61    0.32
   2   7  -6    2.01    0.15
   2   7  -6    2.07    0.20
   2   7  -6    1.55    0.17
   2   7  -6    1.65    0.15
   1   7  -6    0.47    0.26
   1   7  -6    0.44    0.09
   1   7  -6    0.29    0.12
   0   7  -6    6.37    0.52
   0   7  -6    6.53    0.44
  -1   7  -6    4.93    0.44
  -1   7  -6    5.25    0.37
   2  -7   6    0.18    0.23
   2  -7   6    0.17    0.11
   3  -7   6    1.09    0.11
   3  -7   6    1.20    0.13
   4  -7   6    3.38    0.21
   4  -7   6    3.29    0.23
   5  -7   6    0.07    0.11
   5  -7   6   -0.09    0.09
   5  -7   6    0.01    0.07
   6  -7   6    0.48    0.07
   6  -7   6    0.38    0.08
   7   6  -6    6.35    0.40
   7   6  -6    5.39    0.33
   6   6  -6    0.42    0.12
   6   6  -6    0.84    0.16
   5   6  -6    1.37    0.11
   5   6  -6    1.30    0.18
   5   6  -6    0.87    0.09
   5   6  -6    1.03    0.12
   4   6  -6    1.59    0.18
   4   6  -6    1.13    0.10
   4   6  -6    1.21    0.13
   4   6  -6    1.07    0.09
   4   6  -6    0.97    0.10
   4   6  -6    1.04    0.29
   3   6  -6    7.76    0.58
   3   6  -6    9.55    0.45
   3   6  -6    8.02    0.60
   3   6  -6    8.97    0.50
   3   6  -6    8.53    0.66
   3   6  -6    9.46    0.43
   3   6  -6    9.60    0.44
   3   6  -6    8.77    0.58
   2   6  -6    1.90    0.16
   2   6  -6    2.20    0.27
   2   6  -6    2.18    0.32
   2   6  -6    2.07    0.27
   2   6  -6    1.93    0.16
   2   6  -6    1.51    0.19
   1   6  -6    1.79    0.23
   1   6  -6    1.43    0.27
   1   6  -6    1.66    0.14
   1   6  -6    1.86    0.30
   1   6  -6    1.49    0.14
   0   6  -6   -0.12    0.11
   2  -6   6    0.85    0.13
   3  -6   6   23.50    1.71
   3  -6   6   25.20    1.44
   3  -6   6   24.61    1.19
   4  -6   6    0.13    0.09
   4  -6   6    0.12    0.10
   5  -6   6    0.22    0.08
   5  -6   6    0.30    0.10
   5  -6   6    0.41    0.10
   6  -6   6    0.80    0.13
   6  -6   6    1.20    0.11
   6  -6   6    1.01    0.08
   7  -6   6    0.03    0.05
   7  -6   6    0.10    0.07
   8   5  -6    1.45    0.15
   8   5  -6    1.32    0.12
   7   5  -6    2.81    0.16
   7   5  -6    2.37    0.20
   7   5  -6    2.64    0.23
   6   5  -6    1.81    0.15
   6   5  -6    1.78    0.18
   6   5  -6    2.45    0.24
   5   5  -6    0.13    0.13
   5   5  -6    0.13    0.07
   5   5  -6   -0.03    0.06
   5   5  -6   -0.04    0.23
   5   5  -6    0.28    0.12
   4   5  -6    9.02    0.43
   4   5  -6    7.20    0.54
   4   5  -6    9.47    0.43
   4   5  -6    8.15    0.53
   4   5  -6    9.24    0.57
   4   5  -6    9.31    0.43
   4   5  -6    8.91    0.62
   4   5  -6    9.06    0.49
   3   5  -6    2.94    0.19
   3   5  -6    3.23    0.19
   3   5  -6    3.53    0.19
   3   5  -6    3.03    0.29
   3   5  -6    3.77    0.35
   3   5  -6    3.31    0.27
   3   5  -6    3.04    0.21
   2   5  -6    1.13    0.11
   2   5  -6    1.39    0.23
   2   5  -6    1.22    0.11
   2   5  -6    1.11    0.25
   2   5  -6    1.32    0.11
   2   5  -6    0.85    0.11
   2   5  -6    1.48    0.22
   1   5  -6   10.76    0.68
   1   5  -6   10.65    0.64
   1   5  -6    9.36    0.61
   0   5  -6    0.65    0.17
   0   5  -6    0.57    0.22
   2  -5   6    2.00    0.20
   3  -5   6    1.04    0.23
   3  -5   6    0.73    0.12
   3  -5   6    0.67    0.09
   3  -5   6    0.73    0.24
   4  -5   6    5.65    0.55
   4  -5   6    5.37    0.44
   4  -5   6    5.68    0.37
   4  -5   6    6.08    0.31
   4  -5   6    6.26    0.38
   4  -5   6    6.37    0.32
   5  -5   6   -0.02    0.07
   5  -5   6    0.10    0.13
   5  -5   6    0.04    0.11
   5  -5   6   -0.03    0.09
   6  -5   6    0.31    0.11
   6  -5   6    0.26    0.05
   6  -5   6    0.26    0.11
   6  -5   6    0.19    0.08
   7  -5   6    0.31    0.09
   7  -5   6    0.30    0.07
   7  -5   6    0.44    0.07
   8   4  -6    0.77    0.10
   8   4  -6    0.95    0.09
   8   4  -6    0.74    0.12
   7   4  -6    2.39    0.18
   7   4  -6    2.76    0.20
   7   4  -6    2.66    0.24
   6   4  -6    0.63    0.09
   6   4  -6    0.69    0.12
   6   4  -6    0.59    0.15
   6   4  -6    0.97    0.11
   5   4  -6    4.72    0.26
   5   4  -6    5.13    0.31
   5   4  -6    4.68    0.32
   5   4  -6    4.65    0.34
   5   4  -6    4.73    0.41
   5   4  -6    4.83    0.24
   4   4  -6    5.20    0.29
   4   4  -6    4.63    0.24
   4   4  -6    4.67    0.23
   4   4  -6    4.20    0.30
   4   4  -6    4.47    0.32
   4   4  -6    4.97    0.25
   4   4  -6    4.58    0.29
   4   4  -6    4.58    0.30
   4   4  -6    4.94    0.39
   3   4  -6    8.72    0.55
   3   4  -6   11.79    0.68
   3   4  -6    9.91    0.48
   3   4  -6   10.82    0.62
   3   4  -6   10.13    0.50
   3   4  -6    9.65    0.48
   3   4  -6   10.91    0.59
   3   4  -6   10.10    0.65
   2   4  -6    8.10    0.54
   2   4  -6    7.99    0.52
   2   4  -6    8.80    0.57
   1   4  -6   13.82    0.82
   1   4  -6   13.48    0.85
   0   4  -6   47.25    2.75
   0   4  -6   46.91    2.65
   2  -4   6    0.96    0.23
   2  -4   6    1.05    0.19
   3  -4   6    0.63    0.11
   3  -4   6    0.66    0.08
   3  -4   6    0.64    0.12
   3  -4   6    0.69    0.19
   3  -4   6    1.02    0.18
   4  -4   6    4.67    0.26
   4  -4   6    5.04    0.40
   4  -4   6    4.54    0.46
   4  -4   6    4.92    0.32
   4  -4   6    5.32    0.27
   4  -4   6    4.80    0.38
   4  -4   6    4.69    0.31
   5  -4   6    3.43    0.19
   5  -4   6    3.09    0.24
   5  -4   6    3.48    0.20
   5  -4   6    3.03    0.26
   6  -4   6    0.16    0.05
   6  -4   6    0.09    0.09
   6  -4   6    0.29    0.08
   6  -4   6    0.33    0.13
   7  -4   6    0.02    0.06
   7  -4   6   -0.16    0.10
   8  -4   6    1.50    0.12
   9   3  -6    0.36    0.07
   8   3  -6    0.40    0.10
   8   3  -6    0.39    0.08
   8   3  -6    0.31    0.10
   7   3  -6   -0.04    0.09
   7   3  -6    0.01    0.10
   7   3  -6    0.13    0.10
   7   3  -6    0.09    0.09
   6   3  -6    8.98    0.53
   6   3  -6    7.86    0.56
   6   3  -6    9.07    0.51
   6   3  -6    8.85    0.50
   6   3  -6    8.53    0.43
   5   3  -6    7.92    0.43
   5   3  -6    7.79    0.47
   5   3  -6    6.85    0.49
   5   3  -6    7.52    0.37
   5   3  -6    7.66    0.45
   5   3  -6    7.56    0.36
   4   3  -6    1.61    0.14
   4   3  -6    1.90    0.22
   4   3  -6    1.35    0.15
   4   3  -6    1.67    0.12
   4   3  -6    1.98    0.18
   4   3  -6    1.56    0.11
   4   3  -6    1.53    0.14
   3   3  -6    0.24    0.13
   3   3  -6    0.24    0.11
   3   3  -6    0.27    0.15
   2   3  -6    1.76    0.20
   2   3  -6    1.87    0.22
   2   3  -6    2.03    0.19
   1   3  -6    0.67    0.15
   1   3  -6    0.80    0.15
   1   3  -6    0.40    0.15
   0   3  -6   78.94    4.07
   0   3  -6   93.93    4.87
   0   3  -6   86.25    4.70
   0  -3   6   78.32    4.08
  -1   3  -6    0.21    0.13
  -1   3  -6    0.15    0.18
  -1   3  -6    0.10    0.15
   1  -3   6    0.19    0.19
   1  -3   6    0.23    0.15
   2  -3   6    1.07    0.21
   2  -3   6    1.02    0.22
   3  -3   6    1.46    0.18
   3  -3   6    1.96    0.23
   3  -3   6    1.90    0.22
   4  -3   6   21.92    1.06
   4  -3   6   20.05    1.50
   4  -3   6   23.08    1.28
   4  -3   6   20.12    1.32
   4  -3   6   22.51    1.27
   4  -3   6   22.74    1.22
   5  -3   6    1.81    0.13
   5  -3   6    1.76    0.20
   5  -3   6    1.77    0.15
   5  -3   6    1.59    0.18
   5  -3   6    1.39    0.21
   5  -3   6    1.90    0.18
   6  -3   6    4.55    0.36
   6  -3   6    4.91    0.32
   6  -3   6    4.82    0.24
   6  -3   6    5.07    0.25
   7  -3   6    1.51    0.11
   7  -3   6    1.43    0.18
   7  -3   6    1.89    0.16
   8  -3   6    0.23    0.08
   8  -3   6    0.45    0.09
   9   2  -6    0.35    0.05
   8   2  -6    0.40    0.10
   8   2  -6    0.41    0.08
   8   2  -6    0.33    0.10
   8   2  -6    0.14    0.09
   7   2  -6    0.21    0.11
   7   2  -6    0.34    0.13
   7   2  -6    0.19    0.11
   7   2  -6    0.10    0.07
   7   2  -6    0.16    0.10
   6   2  -6    8.84    0.65
   6   2  -6   10.93    0.58
   6   2  -6   10.88    0.63
   6   2  -6   10.31    0.51
   6   2  -6   11.63    0.61
   6   2  -6    9.61    0.60
   5   2  -6   15.09    0.78
   5   2  -6   13.38    0.81
   5   2  -6   15.29    0.69
   5   2  -6   15.57    0.83
   5   2  -6   12.07    0.89
   5   2  -6   15.05    0.86
   5   2  -6   14.65    0.67
   3   2  -6   10.35    0.66
   3   2  -6   11.60    0.66
   3   2  -6   10.61    0.63
   2   2  -6    9.55    0.61
   2   2  -6    9.99    0.60
   1   2  -6   33.76    1.71
   1   2  -6   33.27    1.72
   1   2  -6   36.63    1.96
   1   2  -6   36.53    2.03
  -1  -2   6   35.59    1.72
  -1  -2   6   33.06    1.72
   0   2  -6   25.45    1.25
   0   2  -6   24.04    1.25
   0   2  -6   26.51    1.41
   0   2  -6   26.87    1.46
   0  -2   6   24.00    1.25
   0  -2   6   24.24    1.47
   0  -2   6   22.40    1.41
   0  -2   6   24.09    1.25
  -1   2  -6   31.60    1.60
  -1   2  -6   32.46    1.60
  -1   2  -6   32.12    1.87
  -1   2  -6   32.46    1.81
   1  -2   6   31.44    1.82
   1  -2   6   32.81    1.87
   1  -2   6   30.80    1.61
   1  -2   6   31.30    1.59
   2  -2   6    2.16    0.26
   2  -2   6    2.15    0.26
   3  -2   6    8.92    0.55
   3  -2   6    8.32    0.58
   4  -2   6   15.47    0.88
   4  -2   6   16.32    0.83
   4  -2   6   14.48    0.71
   4  -2   6   12.76    0.95
   4  -2   6   13.86    0.69
   4  -2   6   14.79    0.85
   4  -2   6   14.09    0.91
   5  -2   6    1.12    0.11
   5  -2   6    0.64    0.16
   5  -2   6    0.82    0.15
   5  -2   6    0.80    0.17
   5  -2   6    0.42    0.17
   5  -2   6    0.91    0.09
   5  -2   6    0.80    0.15
   6  -2   6    1.81    0.13
   6  -2   6    1.61    0.24
   6  -2   6    1.77    0.22
   6  -2   6    1.79    0.19
   7  -2   6    1.07    0.09
   7  -2   6    0.74    0.12
   7  -2   6    0.90    0.14
   8  -2   6    0.08    0.09
   8  -2   6    0.07    0.07
   9   1  -6    0.11    0.10
   9   1  -6    0.11    0.07
   8   1  -6    0.09    0.10
   8   1  -6    0.34    0.13
   8   1  -6    0.15    0.06
   8   1  -6    0.19    0.10
   7   1  -6    0.34    0.11
   7   1  -6    0.37    0.13
   7   1  -6    0.23    0.08
   7   1  -6    0.31    0.10
   7   1  -6    0.29    0.09
   7   1  -6    0.03    0.13
   6   1  -6    1.36    0.16
   6   1  -6    1.59    0.13
   6   1  -6    1.51    0.16
   6   1  -6    1.47    0.18
   6   1  -6    1.40    0.15
   6   1  -6    1.70    0.17
   5   1  -6    4.38    0.21
   5   1  -6    4.77    0.44
   5   1  -6    4.48    0.28
   5   1  -6    4.33    0.27
   5   1  -6    4.51    0.24
   5   1  -6    4.29    0.30
   5   1  -6    4.40    0.29
   4   1  -6   19.62    1.06
   4   1  -6   16.73    1.09
   4   1  -6   19.02    1.06
   4   1  -6   20.85    1.31
   3   1  -6   25.08    1.67
   3   1  -6   25.00    1.40
   3   1  -6   24.46    1.45
   2   1  -6   13.05    0.80
   2   1  -6   14.66    0.82
   2   1  -6   13.12    0.71
   2   1  -6   14.13    0.79
   2   1  -6   13.37    0.71
   1   1  -6   19.98    1.05
   1   1  -6   20.97    1.05
   1   1  -6   20.95    1.19
   1   1  -6   22.38    1.23
  -1  -1   6   19.52    1.05
  -1  -1   6   20.53    1.06
   0   1  -6   67.66    3.79
   0   1  -6   67.16    3.18
   0   1  -6   65.61    3.19
   0   1  -6   67.53    3.66
   0  -1   6   66.25    3.79
   0  -1   6   64.56    3.18
   0  -1   6   63.21    3.19
   0  -1   6   63.27    3.67
  -1   1  -6    0.06    0.12
  -1   1  -6    0.13    0.17
  -1   1  -6    0.21    0.17
  -1   1  -6    0.30    0.14
   1  -1   6   -0.01    0.15
   1  -1   6    0.20    0.15
   1  -1   6    0.24    0.18
   1  -1   6    0.11    0.15
   2  -1   6    0.10    0.17
   2  -1   6    0.07    0.18
   3  -1   6    0.62    0.18
   3  -1   6    0.60    0.19
   4  -1   6    2.62    0.28
   4  -1   6    2.44    0.17
   4  -1   6    2.37    0.17
   4  -1   6    2.43    0.27
   4  -1   6    2.44    0.25
   4  -1   6    2.42    0.18
   5  -1   6    0.89    0.17
   5  -1   6    0.45    0.18
   5  -1   6    0.54    0.15
   5  -1   6    0.73    0.16
   5  -1   6    0.78    0.08
   5  -1   6    0.60    0.17
   5  -1   6    0.81    0.10
   6  -1   6    1.24    0.19
   6  -1   6    1.56    0.22
   6  -1   6    1.18    0.15
   6  -1   6    1.70    0.13
   7  -1   6   -0.02    0.16
   7  -1   6    0.07    0.11
   7  -1   6    0.02    0.06
   7  -1   6   -0.23    0.11
   8  -1   6    0.22    0.08
   8  -1   6    0.21    0.10
   9   0  -6    1.34    0.13
   9   0  -6    1.47    0.12
   8   0  -6    0.73    0.14
   8   0  -6    0.47    0.07
   8   0  -6    0.73    0.12
   8   0  -6    0.69    0.14
   7   0  -6    0.46    0.11
   7   0  -6    0.48    0.07
   7   0  -6    0.59    0.12
   7   0  -6    0.36    0.12
   6   0  -6    0.36    0.12
   6   0  -6    0.12    0.07
   6   0  -6    0.29    0.10
   6   0  -6    0.38    0.11
   6   0  -6    0.27    0.14
   6   0  -6    0.02    0.27
   5   0  -6    8.43    0.43
   5   0  -6    8.96    0.51
   5   0  -6    9.61    0.71
   5   0  -6    9.06    0.42
   5   0  -6    9.01    0.52
   5   0  -6    8.05    0.59
   5   0  -6    8.78    0.55
   4   0  -6   34.44    1.94
   4   0  -6   35.73    2.33
   4   0  -6   34.29    2.00
   3   0  -6    5.55    0.38
   3   0  -6    6.05    0.39
   3   0  -6    6.37    0.50
   2   0  -6   14.86    0.82
   2   0  -6   13.76    0.85
   2   0  -6   12.65    0.74
   2   0  -6   14.83    0.98
   1   0  -6   18.30    1.04
   1   0  -6   16.79    0.89
   1   0  -6   15.95    0.89
   1   0  -6   17.98    1.00
  -1   0   6   17.05    0.90
  -1   0   6   16.93    0.89
   0   0  -6   10.48    0.58
   0   0  -6    9.85    0.58
   0   0  -6   10.23    0.66
   0   0  -6   10.70    0.63
   0   0   6   10.11    0.59
   0   0   6    9.96    0.58
   0   0   6   10.58    0.66
   0   0   6   10.63    0.64
  -1   0  -6   21.12    1.14
   1   0   6   23.65    1.33
   1   0   6   22.69    1.29
   1   0   6   21.00    1.15
   2   0   6    0.31    0.18
   2   0   6    0.25    0.14
   3   0   6    2.13    0.25
   3   0   6    1.57    0.17
   3   0   6    1.84    0.18
   3   0   6    2.06    0.23
   4   0   6    3.25    0.26
   4   0   6    3.45    0.29
   4   0   6    3.73    0.21
   4   0   6    4.08    0.33
   4   0   6    3.26    0.31
   4   0   6    3.61    0.32
   4   0   6    3.64    0.22
   4   0   6    3.57    0.21
   5   0   6    0.62    0.16
   5   0   6    0.65    0.08
   5   0   6    0.43    0.14
   5   0   6    0.32    0.17
   5   0   6    0.36    0.14
   5   0   6    0.56    0.10
   6   0   6    1.98    0.18
   6   0   6    2.13    0.25
   6   0   6    2.19    0.15
   6   0   6    2.06    0.23
   7   0   6    2.45    0.22
   7   0   6    2.28    0.13
   8   0   6    0.17    0.08
   8   0   6    0.15    0.09
   9  -1  -6    0.18    0.10
   9  -1  -6    0.20    0.07
   8  -1  -6    1.20    0.16
   8  -1  -6    1.24    0.14
   8  -1  -6    1.30    0.16
   7  -1  -6    2.14    0.14
   7  -1  -6    2.22    0.21
   7  -1  -6    1.90    0.24
   7  -1  -6    2.11    0.21
   6  -1  -6   10.83    0.63
   6  -1  -6   10.59    0.50
   6  -1  -6   11.07    0.62
   6  -1  -6    9.68    0.84
   6  -1  -6   10.90    0.52
   6  -1  -6   10.51    0.66
   5  -1  -6   30.11    1.70
   5  -1  -6   31.14    1.67
   5  -1  -6   29.23    1.40
   5  -1  -6   28.64    1.77
   5  -1  -6   30.11    1.40
   5  -1  -6   32.32    2.07
   4  -1  -6    3.80    0.26
   4  -1  -6    3.30    0.20
   4  -1  -6    4.12    0.41
   4  -1  -6    3.65    0.20
   4  -1  -6    3.88    0.28
   4  -1  -6    3.60    0.20
   4  -1  -6    4.23    0.28
   4  -1  -6    3.68    0.24
   3  -1  -6   31.53    1.80
   3  -1  -6   30.22    2.07
   3  -1  -6   30.69    1.75
   2  -1  -6    8.98    0.66
   2  -1  -6    8.89    0.58
   2  -1  -6    9.05    0.56
   1  -1  -6   43.62    2.25
   1  -1  -6   48.25    2.67
   1  -1  -6   47.81    2.58
   1  -1  -6   46.40    3.02
  -1   1   6   43.02    2.25
   0  -1  -6    0.32    0.16
   0  -1  -6    0.28    0.14
   0  -1  -6    0.17    0.17
   0  -1  -6    0.18    0.13
   0   1   6    0.24    0.13
   0   1   6    0.22    0.18
   0   1   6    0.16    0.15
   1   1   6    1.37    0.19
   1   1   6    0.93    0.19
   1   1   6    1.09    0.19
   2   1   6    2.03    0.25
   2   1   6    2.35    0.27
   3   1   6    0.83    0.09
   3   1   6    0.72    0.21
   3   1   6    0.75    0.09
   3   1   6    0.77    0.22
   4   1   6    3.50    0.21
   4   1   6    3.37    0.29
   4   1   6    2.92    0.24
   4   1   6    3.48    0.32
   4   1   6    3.13    0.26
   4   1   6    3.55    0.31
   4   1   6    3.42    0.20
   4   1   6    2.97    0.30
   5   1   6    6.70    0.47
   5   1   6    6.49    0.51
   5   1   6    6.41    0.33
   5   1   6    6.16    0.33
   6   1   6    0.03    0.16
   6   1   6   -0.17    0.16
   6   1   6   -0.12    0.08
   7   1   6    0.41    0.14
   7   1   6    0.35    0.11
   8   1   6    0.17    0.08
   9  -2  -6    2.73    0.19
   9  -2  -6    2.34    0.16
   8  -2  -6    0.28    0.12
   8  -2  -6   -0.05    0.12
   8  -2  -6    0.12    0.09
   7  -2  -6    0.77    0.14
   7  -2  -6    0.56    0.12
   7  -2  -6    0.49    0.12
   6  -2  -6    5.40    0.57
   6  -2  -6    5.73    0.39
   6  -2  -6    5.85    0.30
   6  -2  -6    5.72    0.39
   6  -2  -6    6.34    0.30
   6  -2  -6    6.03    0.38
   5  -2  -6   16.67    1.07
   5  -2  -6   19.61    1.32
   5  -2  -6   15.27    1.04
   5  -2  -6   17.72    1.08
   5  -2  -6   19.11    0.86
   5  -2  -6   19.47    1.02
   5  -2  -6   18.86    1.04
   5  -2  -6   17.95    0.88
   5  -2  -6   19.39    0.85
   4  -2  -6   -0.02    0.08
   4  -2  -6   -0.09    0.08
   4  -2  -6   -0.06    0.15
   4  -2  -6   -0.01    0.13
   4  -2  -6    0.05    0.07
   4  -2  -6    0.06    0.06
   4  -2  -6    0.08    0.25
   4  -2  -6    0.00    0.10
   4  -2  -6    0.02    0.12
   3  -2  -6    0.39    0.15
   3  -2  -6    0.20    0.08
   3  -2  -6    0.23    0.22
   3  -2  -6    0.11    0.16
   2  -2  -6   22.19    1.34
   2  -2  -6   23.01    1.53
   2  -2  -6   22.43    1.30
   1  -2  -6   29.28    1.98
   1  -2  -6   29.34    1.76
   1  -2  -6   31.00    1.71
   1   2   6    2.92    0.31
   1   2   6    3.03    0.28
   2   2   6    0.13    0.08
   2   2   6    0.23    0.18
   2   2   6    0.24    0.21
   2   2   6    0.02    0.08
   3   2   6    4.76    0.26
   3   2   6    4.65    0.38
   3   2   6    4.85    0.31
   3   2   6    3.99    0.37
   3   2   6    4.49    0.25
   3   2   6    4.70    0.37
   4   2   6   10.04    0.52
   4   2   6   11.64    0.71
   4   2   6   10.53    0.51
   4   2   6   10.52    0.76
   4   2   6    8.67    0.67
   5   2   6    0.06    0.06
   5   2   6    0.09    0.12
   5   2   6    0.33    0.15
   5   2   6    0.36    0.17
   5   2   6    0.36    0.10
   6   2   6    0.00    0.13
   6   2   6    0.13    0.13
   6   2   6    0.10    0.07
   7   2   6   -0.05    0.12
   7   2   6    0.06    0.11
   9  -3  -6    0.45    0.08
   8  -3  -6    0.64    0.10
   8  -3  -6    0.68    0.10
   7  -3  -6    0.07    0.05
   7  -3  -6    0.07    0.10
   7  -3  -6    0.01    0.12
   7  -3  -6    0.12    0.09
   6  -3  -6    4.26    0.27
   6  -3  -6    3.83    0.30
   6  -3  -6    4.31    0.23
   6  -3  -6    3.98    0.30
   5  -3  -6   22.81    1.10
   5  -3  -6   23.35    1.06
   5  -3  -6   24.08    1.27
   5  -3  -6   22.22    1.29
   5  -3  -6   21.85    1.34
   5  -3  -6   23.54    1.06
   5  -3  -6   21.02    1.59
   4  -3  -6    0.09    0.13
   4  -3  -6    0.04    0.16
   4  -3  -6   -0.06    0.06
   4  -3  -6    0.06    0.06
   4  -3  -6   -0.02    0.09
   4  -3  -6    0.10    0.08
   4  -3  -6    0.03    0.21
   4  -3  -6    0.09    0.18
   3  -3  -6   16.47    0.99
   3  -3  -6   17.95    1.01
   3  -3  -6   15.51    0.79
   3  -3  -6   16.08    0.82
   3  -3  -6   17.72    1.18
   3  -3  -6   16.67    0.96
   3  -3  -6   18.10    1.04
   2  -3  -6    4.36    0.35
   2  -3  -6    3.84    0.28
   2  -3  -6    4.07    0.36
   2  -3  -6    4.41    0.35
   2  -3  -6    3.37    0.23
   1  -3  -6    4.80    0.37
   1  -3  -6    4.62    0.37
   1   3   6    1.88    0.22
   1   3   6    2.22    0.28
   1   3   6    2.09    0.26
   2   3   6    0.01    0.21
   2   3   6    0.07    0.12
   2   3   6   -0.04    0.09
   2   3   6    0.04    0.10
   2   3   6   -0.06    0.19
   3   3   6    6.81    0.40
   3   3   6    6.40    0.49
   3   3   6    5.86    0.47
   3   3   6    6.61    0.34
   3   3   6    6.07    0.50
   3   3   6    5.96    0.34
   4   3   6    9.53    0.48
   4   3   6   10.07    0.49
   4   3   6    9.80    0.67
   4   3   6    9.21    0.73
   5   3   6    5.38    0.44
   5   3   6    6.25    0.44
   5   3   6    5.69    0.29
   5   3   6    5.24    0.28
   6   3   6    0.53    0.14
   6   3   6    0.56    0.14
   6   3   6    0.46    0.07
   7   3   6    0.45    0.10
   8  -4  -6    2.00    0.14
   8  -4  -6    1.67    0.15
   7  -4  -6    0.01    0.10
   7  -4  -6   -0.01    0.05
   7  -4  -6    0.01    0.10
   6  -4  -6    0.12    0.13
   6  -4  -6    0.10    0.10
   6  -4  -6    0.16    0.08
   5  -4  -6    8.12    0.42
   5  -4  -6    8.52    0.43
   5  -4  -6    8.57    0.51
   4  -4  -6   38.76    1.79
   4  -4  -6   36.12    2.21
   4  -4  -6   33.38    2.60
   4  -4  -6   41.02    2.24
   4  -4  -6   39.56    1.87
   4  -4  -6   41.24    2.17
   4  -4  -6   39.35    1.79
   3  -4  -6    0.29    0.20
   3  -4  -6    0.11    0.19
   3  -4  -6    0.43    0.10
   3  -4  -6    0.31    0.10
   3  -4  -6    0.48    0.13
   3  -4  -6    0.29    0.09
   2  -4  -6    3.75    0.36
   2  -4  -6    3.35    0.22
   2  -4  -6    3.91    0.28
   2  -4  -6    4.06    0.34
   1  -4  -6    1.34    0.14
   0   4   6    1.32    0.14
   1   4   6    1.33    0.19
   1   4   6    1.17    0.14
   2   4   6    3.65    0.23
   2   4   6    3.01    0.36
   2   4   6    3.43    0.32
   2   4   6    4.01    0.27
   3   4   6    0.92    0.17
   3   4   6    0.77    0.11
   3   4   6    0.77    0.10
   3   4   6    0.70    0.11
   4   4   6    0.11    0.10
   4   4   6    0.01    0.14
   4   4   6   -0.01    0.16
   4   4   6    0.01    0.08
   5   4   6    2.25    0.15
   5   4   6    2.17    0.25
   5   4   6    2.39    0.24
   6   4   6    3.80    0.32
   6   4   6    4.15    0.20
   6   4   6    4.15    0.30
   7  -5  -6    0.27    0.05
   7  -5  -6    0.35    0.09
   6  -5  -6    0.16    0.07
   6  -5  -6    0.23    0.11
   5  -5  -6    3.95    0.22
   5  -5  -6    3.67    0.26
   5  -5  -6    3.76    0.22
   4  -5  -6    1.38    0.12
   4  -5  -6    1.38    0.16
   4  -5  -6    1.17    0.13
   4  -5  -6    1.24    0.12
   3  -5  -6    0.38    0.11
   3  -5  -6    0.44    0.13
   3  -5  -6    0.44    0.10
   2  -5  -6    0.05    0.12
   1  -5  -6    3.47    0.30
   0   5   6    1.40    0.15
   1   5   6    0.25    0.12
   1   5   6    0.50    0.11
   1   5   6    0.54    0.14
   2   5   6    0.16    0.11
   2   5   6    0.13    0.09
   2   5   6    0.24    0.13
   3   5   6    0.10    0.09
   3   5   6    0.09    0.13
   3   5   6    0.34    0.15
   3   5   6    0.15    0.09
   4   5   6    0.07    0.12
   4   5   6    0.12    0.06
   4   5   6    0.15    0.14
   4   5   6    0.16    0.08
   5   5   6   -0.14    0.09
   5   5   6    0.02    0.06
   5   5   6    0.06    0.10
   6  -6  -6    1.05    0.12
   6  -6  -6    0.83    0.08
   5  -6  -6    3.33    0.19
   5  -6  -6    3.46    0.19
   5  -6  -6    3.35    0.23
   4  -6  -6    1.43    0.16
   4  -6  -6    1.52    0.13
   4  -6  -6    1.57    0.14
   3  -6  -6    0.53    0.11
   3  -6  -6    0.65    0.12
   3  -6  -6    0.44    0.10
   2  -6  -6    2.25    0.22
   1  -6  -6    0.98    0.14
  -1   6   6    0.85    0.15
   0   6   6    0.52    0.13
   1   6   6    1.79    0.21
   1   6   6    1.63    0.16
   1   6   6    1.75    0.19
   2   6   6    0.43    0.13
   2   6   6    0.15    0.07
   2   6   6    0.38    0.12
   2   6   6    0.38    0.10
   3   6   6    0.28    0.07
   3   6   6    0.36    0.08
   3   6   6    0.25    0.11
   3   6   6    0.45    0.12
   4   6   6    0.06    0.07
   5  -7  -6    0.27    0.07
   5  -7  -6    0.47    0.06
   5  -7  -6    0.28    0.03
   4  -7  -6    0.08    0.06
   4  -7  -6   -0.03    0.08
   3  -7  -6    0.36    0.06
   3  -7  -6    0.51    0.09
   3  -7  -6    0.48    0.08
   2  -7  -6    0.46    0.09
   2  -7  -6    0.21    0.09
   1  -7  -6    0.13    0.10
   1  -7  -6    0.21    0.08
  -1   7   6    0.19    0.10
   0  -7  -6    0.08    0.09
   0   7   6    0.04    0.09
   0   7   6    0.00    0.12
   1   7   6    0.01    0.07
   1   7   6    0.10    0.10
   1   7   6    0.02    0.08
   2   7   6    0.13    0.07
   1  -8  -6    0.16    0.06
  -1   8   6    0.03    0.07
   1  10  -7    0.23    0.05
   0  10  -7    0.10    0.06
   4   9  -7    0.16    0.08
   4   9  -7    0.06    0.05
   3   9  -7    0.22    0.10
   3   9  -7    0.08    0.06
   2   9  -7    1.12    0.11
   2   9  -7    1.46    0.14
   2   9  -7    1.39    0.11
   1   9  -7    0.25    0.07
   1   9  -7    0.32    0.09
   0   9  -7    0.10    0.11
   0   9  -7    0.04    0.09
   0   9  -7    0.13    0.09
  -1   9  -7    0.04    0.10
   1  -9   7    0.30    0.11
  -2   9  -7    0.37    0.10
   2  -9   7    0.35    0.10
  -3   9  -7    1.65    0.18
   3  -9   7    1.66    0.13
   3  -9   7    1.74    0.14
   3  -9   7    1.53    0.15
   4  -9   7    0.31    0.06
   4  -9   7    0.40    0.06
   5   8  -7    0.13    0.09
   5   8  -7   -0.06    0.04
   4   8  -7    0.43    0.14
   4   8  -7    0.23    0.08
   3   8  -7    4.53    0.32
   3   8  -7    4.52    0.25
   3   8  -7    4.35    0.24
   2   8  -7   -0.02    0.13
   2   8  -7   -0.09    0.09
   2   8  -7   -0.02    0.08
   1   8  -7    0.08    0.13
   1   8  -7   -0.01    0.08
   1   8  -7   -0.01    0.09
   0   8  -7    0.57    0.12
   0   8  -7    0.55    0.10
  -1   8  -7    0.03    0.11
  -2   8  -7    0.60    0.14
   2  -8   7    0.72    0.13
   3  -8   7    1.78    0.17
   4  -8   7    0.08    0.05
   4  -8   7   -0.01    0.08
   4  -8   7    0.00    0.10
   5  -8   7    0.45    0.09
   5  -8   7    0.53    0.08
   5  -8   7    0.54    0.06
   6   7  -7   -0.12    0.08
   6   7  -7   -0.06    0.12
   5   7  -7    0.24    0.12
   5   7  -7    0.19    0.08
   5   7  -7    0.10    0.06
   4   7  -7    2.40    0.18
   4   7  -7    2.18    0.25
   4   7  -7    2.33    0.16
   3   7  -7    0.06    0.15
   3   7  -7    0.24    0.09
   3   7  -7    0.14    0.07
   2   7  -7    0.04    0.08
   2   7  -7    0.10    0.09
   2   7  -7    0.18    0.12
   2   7  -7    0.15    0.09
   1   7  -7    0.76    0.13
   1   7  -7    0.66    0.27
   1   7  -7    0.86    0.10
   0   7  -7    3.49    0.29
   0   7  -7    3.70    0.38
  -1   7  -7    4.06    0.30
   2  -7   7    0.35    0.13
   3  -7   7    0.11    0.09
   3  -7   7    0.02    0.11
   4  -7   7    0.00    0.08
   4  -7   7    0.01    0.07
   5  -7   7    1.85    0.19
   5  -7   7    1.97    0.14
   5  -7   7    1.95    0.15
   6  -7   7    0.05    0.06
   6  -7   7    0.17    0.08
   7   6  -7    1.43    0.14
   7   6  -7    1.06    0.12
   6   6  -7    3.48    0.25
   6   6  -7    3.64    0.20
   6   6  -7    3.57    0.29
   5   6  -7    6.54    0.44
   5   6  -7    6.62    0.38
   5   6  -7    5.84    0.31
   5   6  -7    6.54    0.32
   4   6  -7   -0.08    0.11
   4   6  -7   -0.09    0.05
   4   6  -7   -0.14    0.08
   4   6  -7    0.03    0.06
   4   6  -7   -0.01    0.15
   3   6  -7    0.69    0.11
   3   6  -7    0.46    0.22
   3   6  -7    0.62    0.08
   3   6  -7    0.46    0.09
   3   6  -7    0.49    0.18
   3   6  -7    0.61    0.16
   2   6  -7    2.69    0.35
   2   6  -7    2.76    0.17
   2   6  -7    2.71    0.33
   2   6  -7    2.29    0.27
   2   6  -7    2.40    0.18
   2   6  -7    2.81    0.17
   2   6  -7    2.43    0.21
   1   6  -7    0.64    0.26
   1   6  -7    0.52    0.10
   1   6  -7    0.50    0.07
   1   6  -7    0.43    0.16
   1   6  -7    0.42    0.23
   0   6  -7    1.25    0.14
  -1   6  -7    1.95    0.20
   2  -6   7   13.79    0.83
   3  -6   7    5.64    0.31
   3  -6   7    6.02    0.39
   3  -6   7    5.54    0.51
   4  -6   7    0.67    0.11
   4  -6   7    0.83    0.09
   5  -6   7   -0.09    0.07
   5  -6   7   -0.09    0.09
   5  -6   7   -0.09    0.09
   6  -6   7    0.18    0.07
   6  -6   7    0.16    0.08
   6  -6   7    0.08    0.04
   7  -6   7    0.03    0.04
   8   5  -7   -0.07    0.08
   8   5  -7   -0.06    0.07
   7   5  -7   -0.01    0.09
   7   5  -7    0.03    0.11
   7   5  -7    0.00    0.08
   6   5  -7   34.49    2.03
   6   5  -7   31.68    1.76
   6   5  -7   33.08    1.54
   5   5  -7    2.36    0.23
   5   5  -7    1.88    0.16
   5   5  -7    1.93    0.21
   5   5  -7    1.97    0.14
   4   5  -7    0.14    0.22
   4   5  -7    0.01    0.11
   4   5  -7    0.00    0.12
   4   5  -7    0.17    0.10
   4   5  -7    0.07    0.07
   4   5  -7    0.28    0.14
   4   5  -7    0.11    0.05
   4   5  -7    0.10    0.07
   3   5  -7   13.13    0.79
   3   5  -7   12.79    0.61
   3   5  -7   11.52    0.75
   3   5  -7   12.81    0.82
   3   5  -7   11.95    0.67
   3   5  -7   12.77    0.59
   3   5  -7   11.76    0.59
   2   5  -7    2.04    0.14
   2   5  -7    1.84    0.14
   2   5  -7    1.93    0.15
   2   5  -7    1.85    0.18
   2   5  -7    1.93    0.27
   2   5  -7    2.04    0.29
   2   5  -7    2.34    0.24
   1   5  -7    2.74    0.17
   1   5  -7    2.49    0.18
   1   5  -7    3.17    0.23
   1   5  -7    3.09    0.26
   1   5  -7    3.16    0.32
   0   5  -7    0.01    0.09
   0   5  -7   -0.07    0.14
   0   5  -7    0.01    0.17
   2  -5   7    6.30    0.41
   3  -5   7    0.97    0.10
   3  -5   7    0.55    0.24
   3  -5   7    0.92    0.13
   3  -5   7    0.94    0.23
   3  -5   7    0.87    0.12
   4  -5   7   11.80    0.58
   4  -5   7   11.74    0.56
   4  -5   7   12.27    0.70
   4  -5   7   11.84    0.67
   4  -5   7   10.08    0.88
   5  -5   7    1.64    0.14
   5  -5   7    1.56    0.19
   5  -5   7    1.89    0.14
   5  -5   7    2.06    0.20
   6  -5   7    2.46    0.19
   6  -5   7    2.48    0.19
   6  -5   7    2.50    0.14
   6  -5   7    2.73    0.16
   7  -5   7    3.10    0.15
   7  -5   7    2.68    0.19
   8   4  -7    0.10    0.07
   8   4  -7   -0.02    0.09
   8   4  -7    0.10    0.09
   7   4  -7    2.92    0.24
   7   4  -7    2.94    0.18
   7   4  -7    3.00    0.22
   6   4  -7    0.00    0.12
   6   4  -7    0.09    0.11
   6   4  -7    0.11    0.13
   6   4  -7    0.10    0.09
   5   4  -7    1.15    0.10
   5   4  -7    1.45    0.12
   5   4  -7    1.20    0.15
   5   4  -7    1.49    0.16
   5   4  -7    1.29    0.14
   4   4  -7    1.31    0.13
   4   4  -7    1.02    0.08
   4   4  -7    1.31    0.13
   4   4  -7    0.91    0.13
   4   4  -7    1.43    0.15
   4   4  -7    1.10    0.08
   4   4  -7    1.23    0.09
   4   4  -7    0.92    0.21
   4   4  -7    0.88    0.14
   3   4  -7    7.35    0.38
   3   4  -7    8.05    0.45
   3   4  -7    7.65    0.49
   3   4  -7    7.80    0.49
   3   4  -7    7.27    0.37
   3   4  -7    7.42    0.43
   3   4  -7    7.75    0.37
   3   4  -7    8.37    0.55
   3   4  -7    7.45    0.51
   2   4  -7   38.33    2.09
   2   4  -7   35.96    2.07
   2   4  -7   31.92    2.04
   2   4  -7   35.28    2.00
   1   4  -7    0.26    0.13
   1   4  -7    0.28    0.15
   0   4  -7    5.54    0.40
   0   4  -7    5.40    0.43
   2  -4   7    6.25    0.42
   2  -4   7    6.20    0.46
   2  -4   7    5.05    0.37
   3  -4   7   11.72    0.71
   3  -4   7   11.17    0.59
   3  -4   7   12.21    0.79
   3  -4   7   12.61    0.76
   4  -4   7    2.96    0.25
   4  -4   7    2.43    0.32
   4  -4   7    3.45    0.19
   4  -4   7    2.99    0.31
   4  -4   7    3.34    0.19
   4  -4   7    3.21    0.24
   4  -4   7    2.55    0.36
   5  -4   7    2.11    0.21
   5  -4   7    1.97    0.20
   5  -4   7    2.03    0.15
   5  -4   7    2.17    0.15
   6  -4   7    1.19    0.11
   6  -4   7    1.46    0.10
   6  -4   7    1.41    0.16
   7  -4   7    0.13    0.08
   7  -4   7    0.14    0.06
   8   3  -7    0.21    0.06
   8   3  -7    0.13    0.09
   8   3  -7    0.11    0.10
   7   3  -7    1.40    0.15
   7   3  -7    1.13    0.14
   7   3  -7    1.09    0.10
   7   3  -7    1.13    0.14
   6   3  -7    2.78    0.22
   6   3  -7    2.06    0.19
   6   3  -7    1.76    0.21
   6   3  -7    2.22    0.16
   6   3  -7    2.23    0.20
   5   3  -7    0.46    0.10
   5   3  -7    0.55    0.10
   5   3  -7    0.48    0.06
   5   3  -7    0.55    0.12
   5   3  -7    0.82    0.13
   5   3  -7    0.80    0.12
   4   3  -7   16.46    0.85
   4   3  -7   14.33    0.88
   4   3  -7   15.66    0.89
   4   3  -7   14.79    0.71
   4   3  -7   15.46    0.70
   4   3  -7   12.92    0.93
   4   3  -7   15.84    0.73
   4   3  -7   14.81    0.81
   4   3  -7   15.05    0.86
   3   3  -7   36.17    2.06
   3   3  -7   37.06    1.97
   3   3  -7   29.68    1.85
   3   3  -7   37.55    2.04
   2   3  -7   26.43    1.60
   2   3  -7   26.50    1.54
   2   3  -7   28.47    1.60
   1   3  -7   17.42    1.04
   1   3  -7   16.89    1.00
   0   3  -7    0.69    0.19
   0   3  -7    1.01    0.18
   0   3  -7    0.83    0.20
   1  -3   7   15.96    0.95
   1  -3   7   14.31    0.90
   2  -3   7    0.17    0.16
   2  -3   7    0.00    0.19
   3  -3   7    1.40    0.23
   3  -3   7    1.23    0.14
   3  -3   7    1.40    0.11
   3  -3   7    1.35    0.11
   3  -3   7    1.18    0.24
   4  -3   7    0.00    0.21
   4  -3   7    0.38    0.11
   4  -3   7    0.23    0.18
   4  -3   7    0.30    0.08
   4  -3   7    0.24    0.09
   5  -3   7    2.15    0.16
   5  -3   7    1.97    0.16
   5  -3   7    2.03    0.20
   6  -3   7    0.87    0.13
   6  -3   7    1.04    0.08
   6  -3   7    0.97    0.10
   7  -3   7    0.08    0.06
   7  -3   7    0.00    0.11
   8  -3   7    0.02    0.06
   9   2  -7    2.72    0.15
   8   2  -7    2.33    0.17
   8   2  -7    2.74    0.21
   8   2  -7    2.07    0.17
   8   2  -7    2.21    0.15
   7   2  -7    1.70    0.17
   7   2  -7    1.51    0.15
   7   2  -7    1.47    0.15
   7   2  -7    1.49    0.13
   6   2  -7    0.98    0.15
   6   2  -7    0.77    0.13
   6   2  -7    0.65    0.10
   6   2  -7    0.72    0.09
   5   2  -7   10.45    0.63
   5   2  -7   10.14    0.49
   5   2  -7   10.42    0.56
   5   2  -7   10.41    0.59
   5   2  -7    9.75    0.48
   4   2  -7    1.50    0.13
   4   2  -7    1.60    0.11
   4   2  -7    1.49    0.16
   4   2  -7    1.41    0.15
   4   2  -7    1.57    0.14
   4   2  -7    1.60    0.13
   4   2  -7    1.49    0.13
   4   2  -7    1.47    0.09
   3   2  -7    1.13    0.15
   3   2  -7    1.02    0.15
   2   2  -7   10.16    0.63
   2   2  -7   10.74    0.65
   2   2  -7   10.15    0.62
   1   2  -7    7.29    0.46
   1   2  -7    6.97    0.45
   1   2  -7    6.24    0.42
   0   2  -7    4.16    0.31
   0   2  -7    3.53    0.29
   0   2  -7    3.98    0.29
   0  -2   7    3.59    0.30
   1  -2   7   28.10    1.64
   1  -2   7   29.09    1.70
   2  -2   7   21.47    1.30
   2  -2   7   22.88    1.34
   3  -2   7    0.34    0.20
   3  -2   7    0.33    0.09
   3  -2   7    0.42    0.09
   3  -2   7    0.43    0.20
   3  -2   7    0.37    0.10
   4  -2   7    1.89    0.23
   4  -2   7    2.21    0.16
   4  -2   7    2.20    0.26
   4  -2   7    2.24    0.17
   4  -2   7    2.34    0.18
   4  -2   7    2.19    0.28
   5  -2   7    5.72    0.46
   5  -2   7    6.68    0.33
   5  -2   7    6.88    0.40
   5  -2   7    6.67    0.34
   6  -2   7    0.04    0.13
   6  -2   7    0.00    0.13
   6  -2   7    0.00    0.09
   7  -2   7    0.46    0.12
   7  -2   7    0.30    0.10
   7  -2   7    0.31    0.06
   8  -2   7    0.05    0.07
   9   1  -7   -0.02    0.07
   8   1  -7    3.18    0.21
   8   1  -7    3.15    0.23
   8   1  -7    2.88    0.18
   7   1  -7    0.20    0.12
   7   1  -7   -0.04    0.09
   7   1  -7    0.10    0.14
   7   1  -7    0.17    0.09
   6   1  -7    5.41    0.30
   6   1  -7    5.66    0.38
   6   1  -7    5.50    0.34
   6   1  -7    5.17    0.32
   6   1  -7    5.64    0.35
   5   1  -7   18.20    0.82
   5   1  -7   17.57    1.05
   5   1  -7   17.38    0.99
   5   1  -7   18.05    0.84
   5   1  -7   17.84    1.01
   5   1  -7   17.38    0.95
   4   1  -7    1.00    0.12
   4   1  -7    1.15    0.09
   4   1  -7    1.12    0.10
   4   1  -7    0.98    0.12
   4   1  -7    0.98    0.08
   4   1  -7    1.55    0.13
   4   1  -7    1.11    0.13
   3   1  -7   58.86    3.38
   3   1  -7   62.39    3.49
   2   1  -7  129.41    7.10
   2   1  -7  118.24    6.87
   1   1  -7    3.03    0.28
   1   1  -7    3.50    0.28
   1   1  -7    3.27    0.29
   0   1  -7    7.14    0.46
   0   1  -7    8.14    0.51
   0   1  -7    7.76    0.48
   0  -1   7    7.26    0.46
  -1   1  -7    1.17    0.19
   1  -1   7    1.21    0.19
   1  -1   7    1.21    0.20
   2  -1   7   10.08    0.63
   2  -1   7    9.60    0.64
   3  -1   7    0.24    0.19
   3  -1   7    0.37    0.11
   3  -1   7    0.22    0.10
   3  -1   7    0.34    0.08
   3  -1   7    0.26    0.20
   3  -1   7    0.32    0.08
   4  -1   7    3.05    0.21
   4  -1   7    2.92    0.20
   4  -1   7    2.55    0.25
   4  -1   7    2.90    0.30
   4  -1   7    3.00    0.19
   4  -1   7    2.98    0.31
   5  -1   7    2.81    0.17
   5  -1   7    2.83    0.29
   5  -1   7    3.01    0.23
   5  -1   7    3.08    0.20
   6  -1   7    0.35    0.15
   6  -1   7    0.38    0.08
   6  -1   7    0.27    0.13
   7  -1   7    0.54    0.13
   7  -1   7    0.68    0.12
   7  -1   7    0.61    0.06
   8  -1   7    0.14    0.08
   9   0  -7    0.44    0.08
   9   0  -7    0.53    0.10
   8   0  -7    2.30    0.19
   8   0  -7    1.99    0.14
   8   0  -7    2.31    0.18
   8   0  -7    1.92    0.21
   7   0  -7    5.43    0.38
   7   0  -7    5.46    0.34
   7   0  -7    5.37    0.29
   7   0  -7    5.35    0.34
   6   0  -7    4.34    0.30
   6   0  -7    4.26    0.21
   6   0  -7    4.58    0.29
   6   0  -7    3.79    0.43
   6   0  -7    4.35    0.31
   6   0  -7    4.26    0.25
   5   0  -7   11.14    0.61
   5   0  -7    9.90    0.51
   5   0  -7   10.53    0.62
   5   0  -7   10.68    0.50
   5   0  -7   10.03    0.64
   5   0  -7   10.97    0.82
   4   0  -7    1.39    0.14
   4   0  -7    1.42    0.16
   4   0  -7    1.48    0.11
   4   0  -7    1.51    0.16
   4   0  -7    1.78    0.17
   4   0  -7    1.77    0.18
   4   0  -7    1.73    0.27
   4   0  -7    1.70    0.16
   4   0  -7    1.58    0.13
   3   0  -7  124.17    6.87
   3   0  -7  116.01    6.65
   3   0  -7  119.27    7.84
   2   0  -7    0.31    0.16
   2   0  -7    0.21    0.14
   2   0  -7    0.11    0.20
   1   0  -7    3.18    0.28
   1   0  -7    3.44    0.27
   1   0  -7    3.54    0.30
   0   0  -7    0.61    0.16
   0   0  -7    0.67    0.18
   0   0   7    0.39    0.14
   1   0   7    7.00    0.48
   1   0   7    6.60    0.48
   2   0   7   -0.03    0.20
   2   0   7    0.09    0.18
   3   0   7    0.14    0.09
   3   0   7    0.10    0.08
   3   0   7    0.15    0.10
   3   0   7    0.06    0.14
   3   0   7    0.16    0.18
   3   0   7    0.00    0.16
   4   0   7    0.24    0.13
   4   0   7    0.17    0.07
   4   0   7    0.44    0.18
   4   0   7    0.41    0.08
   4   0   7    0.45    0.09
   4   0   7    0.41    0.19
   4   0   7    0.20    0.11
   5   0   7    0.64    0.09
   5   0   7    0.59    0.14
   5   0   7    0.71    0.10
   5   0   7    0.60    0.12
   6   0   7    0.07    0.12
   6   0   7   -0.03    0.08
   6   0   7    0.04    0.12
   6   0   7   -0.06    0.15
   7   0   7    1.91    0.11
   7   0   7    2.25    0.21
   9  -1  -7    0.40    0.08
   9  -1  -7    0.43    0.10
   8  -1  -7    4.21    0.29
   8  -1  -7    3.87    0.27
   7  -1  -7    1.72    0.22
   7  -1  -7    1.95    0.14
   7  -1  -7    1.84    0.18
   7  -1  -7    1.74    0.18
   6  -1  -7    2.08    0.20
   6  -1  -7    1.97    0.19
   6  -1  -7    2.19    0.16
   6  -1  -7    2.20    0.38
   6  -1  -7    2.25    0.22
   6  -1  -7    2.02    0.13
   5  -1  -7    0.34    0.09
   5  -1  -7    0.33    0.09
   5  -1  -7    0.37    0.08
   5  -1  -7    0.29    0.08
   5  -1  -7    0.28    0.23
   5  -1  -7    0.34    0.10
   5  -1  -7    0.29    0.04
   5  -1  -7    0.53    0.11
   5  -1  -7    0.48    0.13
   4  -1  -7    2.55    0.34
   4  -1  -7    2.08    0.21
   4  -1  -7    1.72    0.16
   4  -1  -7    1.82    0.21
   4  -1  -7    1.89    0.15
   4  -1  -7    1.83    0.14
   4  -1  -7    1.67    0.15
   4  -1  -7    2.13    0.19
   4  -1  -7    1.58    0.18
   3  -1  -7   15.90    0.92
   3  -1  -7   15.36    0.95
   3  -1  -7   15.25    1.09
   2  -1  -7    1.49    0.22
   2  -1  -7    1.35    0.19
   2  -1  -7    1.69    0.24
   1  -1  -7   20.92    1.19
   1  -1  -7   19.87    1.23
   0  -1  -7   42.32    2.48
   1   1   7   43.08    2.59
   1   1   7   45.70    2.53
   2   1   7    2.92    0.21
   2   1   7    3.16    0.25
   2   1   7    3.97    0.35
   2   1   7    3.74    0.33
   3   1   7    1.01    0.24
   3   1   7    1.32    0.11
   3   1   7    1.39    0.25
   3   1   7    0.99    0.11
   4   1   7    2.64    0.18
   4   1   7    2.39    0.19
   4   1   7    2.13    0.25
   5   1   7    2.46    0.29
   5   1   7    2.45    0.18
   5   1   7    2.59    0.16
   6   1   7    0.81    0.09
   6   1   7    0.85    0.17
   7   1   7    0.60    0.13
   9  -2  -7    0.08    0.08
   9  -2  -7    0.16    0.06
   8  -2  -7    1.09    0.14
   8  -2  -7    1.22    0.13
   7  -2  -7    0.67    0.13
   7  -2  -7    0.77    0.15
   7  -2  -7    0.72    0.14
   6  -2  -7    0.36    0.13
   6  -2  -7    0.29    0.08
   6  -2  -7    0.22    0.06
   6  -2  -7    0.06    0.14
   6  -2  -7    0.52    0.12
   5  -2  -7    1.75    0.20
   5  -2  -7    1.54    0.12
   5  -2  -7    1.85    0.20
   5  -2  -7    1.90    0.16
   5  -2  -7    1.75    0.34
   5  -2  -7    1.38    0.17
   5  -2  -7    1.70    0.15
   5  -2  -7    1.14    0.17
   5  -2  -7    1.76    0.14
   4  -2  -7    3.92    0.29
   4  -2  -7    4.11    0.28
   4  -2  -7    4.74    0.45
   4  -2  -7    4.37    0.34
   4  -2  -7    4.45    0.24
   4  -2  -7    4.20    0.24
   4  -2  -7    4.63    0.35
   4  -2  -7    4.43    0.24
   3  -2  -7    2.96    0.27
   3  -2  -7    2.41    0.17
   3  -2  -7    2.55    0.19
   3  -2  -7    2.51    0.17
   3  -2  -7    2.76    0.28
   3  -2  -7    2.63    0.33
   3  -2  -7    2.27    0.21
   2  -2  -7    4.30    0.37
   2  -2  -7    4.44    0.35
   2  -2  -7    3.80    0.34
   2  -2  -7    3.75    0.29
   1  -2  -7    0.24    0.16
   1  -2  -7    0.02    0.19
   1   2   7    0.00    0.09
   1   2   7   -0.02    0.20
   1   2   7   -0.08    0.22
   2   2   7    3.07    0.31
   2   2   7    2.64    0.18
   2   2   7    2.57    0.30
   2   2   7    2.83    0.24
   3   2   7    1.00    0.11
   3   2   7    1.08    0.11
   3   2   7    0.64    0.23
   3   2   7    0.93    0.22
   3   2   7    0.77    0.12
   4   2   7    0.01    0.17
   4   2   7   -0.12    0.10
   4   2   7   -0.28    0.09
   5   2   7    1.93    0.15
   5   2   7    1.51    0.22
   5   2   7    1.67    0.22
   5   2   7    1.49    0.12
   6   2   7    0.85    0.16
   6   2   7    0.86    0.09
   7   2   7    0.08    0.10
   8  -3  -7    0.00    0.09
   8  -3  -7   -0.04    0.08
   7  -3  -7    1.59    0.10
   7  -3  -7    1.66    0.16
   7  -3  -7    1.71    0.17
   6  -3  -7    4.28    0.30
   6  -3  -7    4.10    0.30
   6  -3  -7    4.21    0.23
   5  -3  -7    2.95    0.26
   5  -3  -7    3.26    0.37
   5  -3  -7    3.15    0.20
   5  -3  -7    3.03    0.24
   5  -3  -7    3.31    0.18
   5  -3  -7    3.23    0.19
   4  -3  -7   10.04    0.69
   4  -3  -7    9.17    0.67
   4  -3  -7   10.51    0.62
   4  -3  -7   10.76    0.62
   4  -3  -7   11.52    0.51
   4  -3  -7   10.74    0.54
   4  -3  -7   10.82    0.52
   4  -3  -7   10.90    0.82
   3  -3  -7    0.38    0.10
   3  -3  -7    0.35    0.19
   3  -3  -7    0.25    0.09
   3  -3  -7    0.51    0.09
   3  -3  -7    0.18    0.10
   3  -3  -7    0.49    0.22
   3  -3  -7    0.43    0.19
   2  -3  -7    3.35    0.24
   2  -3  -7    3.19    0.20
   2  -3  -7    3.10    0.28
   2  -3  -7    3.81    0.32
   2  -3  -7    4.23    0.35
   1  -3  -7    9.75    0.60
   1   3   7    2.20    0.24
   2   3   7    0.62    0.12
   2   3   7    0.96    0.23
   2   3   7    0.79    0.11
   2   3   7    0.61    0.25
   3   3   7    0.28    0.09
   3   3   7    0.22    0.11
   3   3   7    0.04    0.11
   4   3   7    1.97    0.17
   4   3   7    1.98    0.17
   4   3   7    2.30    0.25
   5   3   7    0.12    0.15
   5   3   7   -0.05    0.08
   6   3   7   -0.08    0.05
   6   3   7   -0.05    0.12
   8  -4  -7    1.66    0.12
   7  -4  -7    0.00    0.08
   7  -4  -7    0.03    0.04
   7  -4  -7   -0.02    0.10
   6  -4  -7    0.32    0.08
   6  -4  -7    0.34    0.12
   5  -4  -7    1.31    0.13
   5  -4  -7    1.35    0.16
   5  -4  -7    1.15    0.12
   4  -4  -7   27.36    1.30
   4  -4  -7   26.71    1.51
   4  -4  -7   26.20    1.24
   4  -4  -7   26.48    1.24
   4  -4  -7   26.51    1.55
   3  -4  -7   18.28    0.89
   3  -4  -7   16.02    1.09
   3  -4  -7   18.03    1.03
   3  -4  -7   19.54    1.07
   2  -4  -7    7.35    0.45
   2  -4  -7    6.77    0.42
   2  -4  -7    6.60    0.37
   1  -4  -7    2.29    0.23
   0   4   7    0.10    0.11
   1   4   7    0.77    0.13
   2   4   7    0.81    0.13
   2   4   7    0.83    0.11
   3   4   7   -0.03    0.10
   3   4   7    0.29    0.17
   3   4   7    0.04    0.09
   4   4   7    0.36    0.09
   4   4   7    0.39    0.16
   4   4   7    0.38    0.08
   5   4   7    1.14    0.11
   5   4   7    1.05    0.15
   7  -5  -7    0.94    0.06
   7  -5  -7    0.99    0.10
   6  -5  -7    0.50    0.07
   6  -5  -7    0.54    0.09
   5  -5  -7   -0.09    0.06
   5  -5  -7   -0.05    0.08
   5  -5  -7   -0.02    0.09
   4  -5  -7    0.73    0.10
   4  -5  -7    0.74    0.10
   4  -5  -7    0.63    0.13
   3  -5  -7   26.62    1.58
   3  -5  -7   28.25    1.36
   3  -5  -7   29.28    1.64
   2  -5  -7    1.14    0.13
   2  -5  -7    1.23    0.14
   1  -5  -7    0.45    0.11
   0   5   7    1.97    0.24
   1   5   7   -0.05    0.10
   1   5   7    0.01    0.11
   2   5   7    1.03    0.12
   2   5   7    1.08    0.12
   3   5   7    0.51    0.10
   3   5   7    0.36    0.15
   3   5   7    0.38    0.09
   4   5   7    0.02    0.08
   4   5   7    0.11    0.11
   4   5   7   -0.02    0.05
   5   5   7    0.13    0.05
   6  -6  -7    0.02    0.05
   6  -6  -7   -0.02    0.07
   5  -6  -7    0.36    0.05
   5  -6  -7    0.40    0.09
   5  -6  -7    0.40    0.07
   4  -6  -7    0.99    0.12
   4  -6  -7    0.84    0.09
   4  -6  -7    0.92    0.09
   3  -6  -7    0.18    0.08
   3  -6  -7    0.21    0.08
   3  -6  -7    0.02    0.08
   2  -6  -7    0.92    0.12
   2  -6  -7    1.02    0.12
   1  -6  -7    0.30    0.10
  -1   6   7    0.17    0.11
   0   6   7    0.07    0.11
   1   6   7    1.34    0.15
   1   6   7    1.02    0.11
   2   6   7    0.24    0.12
   2   6   7   -0.08    0.08
   3   6   7   -0.03    0.06
   3   6   7    0.08    0.09
   3   6   7    0.04    0.08
   4  -7  -7    0.02    0.06
   4  -7  -7    0.03    0.05
   3  -7  -7    0.21    0.07
   3  -7  -7    0.26    0.06
   2  -7  -7   -0.13    0.07
  -2   7   7   -0.04    0.10
   1  -7  -7    0.29    0.08
  -1   7   7    0.34    0.10
   0  -7  -7    0.57    0.08
   0   7   7    0.51    0.09
   1   7   7    0.05    0.07
   4   9  -8    0.38    0.09
   4   9  -8    0.19    0.05
   3   9  -8    0.15    0.07
   3   9  -8    0.27    0.10
   2   9  -8    0.18    0.09
   2   9  -8    0.09    0.06
   2   9  -8    0.13    0.07
   1   9  -8    0.70    0.12
   1   9  -8    0.44    0.08
   0   9  -8    1.27    0.13
   0   9  -8    1.00    0.09
   0   9  -8    0.72    0.10
  -1   9  -8    0.31    0.10
   1  -9   8    0.55    0.10
  -2   9  -8   -0.08    0.08
   2  -9   8   -0.06    0.08
  -3   9  -8    0.43    0.10
   3  -9   8    0.46    0.08
   3  -9   8    0.31    0.07
   3  -9   8    0.40    0.07
   5   8  -8    1.38    0.17
   4   8  -8   -0.04    0.10
   4   8  -8   -0.05    0.07
   3   8  -8    0.90    0.15
   3   8  -8    0.50    0.07
   3   8  -8    0.57    0.08
   2   8  -8    2.70    0.18
   2   8  -8    2.78    0.18
   2   8  -8    2.99    0.24
   1   8  -8    3.24    0.23
   1   8  -8    2.68    0.19
   1   8  -8    2.92    0.24
   0   8  -8    0.20    0.09
   0   8  -8    0.27    0.11
  -1   8  -8    0.05    0.12
  -2   8  -8    0.97    0.14
   2  -8   8    0.96    0.13
   3  -8   8    0.94    0.10
   3  -8   8    1.26    0.14
   4  -8   8    1.10    0.11
   4  -8   8    0.73    0.12
   5  -8   8   -0.02    0.06
   5  -8   8    0.03    0.05
   6   7  -8    0.72    0.08
   6   7  -8    0.72    0.13
   5   7  -8    0.03    0.06
   5   7  -8   -0.12    0.09
   5   7  -8    0.06    0.13
   4   7  -8    0.46    0.11
   4   7  -8    0.32    0.08
   4   7  -8    0.46    0.15
   3   7  -8    2.23    0.16
   3   7  -8    2.12    0.16
   3   7  -8    1.92    0.17
   3   7  -8    1.84    0.24
   2   7  -8    4.91    0.27
   2   7  -8    5.42    0.39
   2   7  -8    5.12    0.28
   2   7  -8    4.82    0.32
   1   7  -8    0.78    0.12
   1   7  -8    0.72    0.11
   0   7  -8    0.05    0.11
  -1   7  -8    0.36    0.13
   2  -7   8    0.03    0.10
   3  -7   8    4.43    0.29
   3  -7   8    3.87    0.24
   4  -7   8    1.56    0.14
   4  -7   8    1.56    0.13
   5  -7   8    0.21    0.06
   5  -7   8    0.16    0.08
   5  -7   8    0.32    0.07
   6  -7   8    0.35    0.06
   6  -7   8    0.30    0.07
   7   6  -8    0.30    0.08
   7   6  -8    0.24    0.08
   6   6  -8    0.00    0.09
   6   6  -8    0.01    0.07
   6   6  -8   -0.09    0.13
   5   6  -8    0.52    0.07
   5   6  -8    0.71    0.07
   5   6  -8    0.71    0.13
   5   6  -8    0.81    0.11
   4   6  -8    9.67    0.52
   4   6  -8   10.24    0.52
   4   6  -8   11.66    0.52
   4   6  -8   11.55    0.60
   4   6  -8   10.98    0.70
   3   6  -8    1.07    0.15
   3   6  -8    0.95    0.09
   3   6  -8    0.96    0.28
   3   6  -8    1.08    0.10
   3   6  -8    1.11    0.13
   2   6  -8    0.14    0.08
   2   6  -8    0.15    0.07
   2   6  -8    0.23    0.20
   2   6  -8    0.16    0.17
   2   6  -8    0.27    0.21
   2   6  -8    0.04    0.09
   2   6  -8    0.13    0.08
   1   6  -8    0.60    0.18
   1   6  -8    0.79    0.23
   1   6  -8    0.69    0.11
   1   6  -8    0.58    0.24
   1   6  -8    0.75    0.09
   0   6  -8    1.85    0.19
  -1   6  -8    0.28    0.11
   2  -6   8    4.99    0.35
   3  -6   8    1.49    0.15
   3  -6   8    1.60    0.19
   4  -6   8    0.26    0.08
   4  -6   8    0.43    0.08
   5  -6   8   -0.04    0.09
   5  -6   8   -0.01    0.07
   5  -6   8    0.04    0.11
   6  -6   8    1.25    0.13
   6  -6   8    1.50    0.11
   8   5  -8    0.18    0.07
   7   5  -8    3.44    0.20
   7   5  -8    3.17    0.23
   7   5  -8    3.50    0.26
   6   5  -8    7.47    0.47
   6   5  -8    6.38    0.41
   6   5  -8    7.09    0.35
   5   5  -8   23.69    1.39
   5   5  -8   21.69    1.04
   5   5  -8   22.51    1.05
   5   5  -8   22.00    1.20
   4   5  -8    0.18    0.21
   4   5  -8    0.07    0.12
   4   5  -8    0.10    0.08
   4   5  -8   -0.03    0.05
   4   5  -8    0.05    0.07
   4   5  -8   -0.04    0.13
   4   5  -8    0.07    0.11
   3   5  -8    0.26    0.22
   3   5  -8    0.03    0.15
   3   5  -8   -0.04    0.12
   3   5  -8   -0.03    0.07
   3   5  -8   -0.10    0.16
   3   5  -8    0.06    0.08
   3   5  -8    0.05    0.07
   3   5  -8   -0.06    0.07
   2   5  -8    0.16    0.07
   2   5  -8    0.42    0.22
   2   5  -8    0.18    0.07
   2   5  -8    0.38    0.17
   2   5  -8    0.19    0.09
   2   5  -8    0.17    0.09
   2   5  -8    0.03    0.21
   1   5  -8    1.40    0.18
   1   5  -8    1.62    0.26
   1   5  -8    1.61    0.21
   1   5  -8    1.52    0.12
   1   5  -8    1.27    0.12
   0   5  -8    1.57    0.17
   2  -5   8    1.71    0.20
   3  -5   8    9.08    0.56
   3  -5   8    8.85    0.46
   3  -5   8    9.04    0.53
   4  -5   8   11.70    0.58
   4  -5   8   10.97    0.56
   4  -5   8   11.56    0.67
   4  -5   8   12.14    0.69
   5  -5   8    5.27    0.36
   5  -5   8    5.59    0.30
   5  -5   8    5.90    0.29
   5  -5   8    5.38    0.35
   6  -5   8    0.29    0.08
   6  -5   8    0.13    0.10
   6  -5   8    0.16    0.04
   7  -5   8    0.20    0.04
   7  -5   8    0.17    0.06
   8   4  -8   -0.14    0.09
   8   4  -8    0.08    0.07
   7   4  -8    0.14    0.10
   7   4  -8    0.20    0.12
   7   4  -8    0.15    0.07
   6   4  -8    2.89    0.20
   6   4  -8    2.33    0.21
   6   4  -8    2.61    0.21
   6   4  -8    2.60    0.17
   5   4  -8   16.79    0.76
   5   4  -8   15.10    1.00
   5   4  -8   16.14    0.75
   5   4  -8   15.34    0.87
   5   4  -8   16.65    0.92
   4   4  -8    3.93    0.20
   4   4  -8    3.71    0.28
   4   4  -8    3.26    0.27
   4   4  -8    3.44    0.26
   4   4  -8    3.55    0.22
   4   4  -8    3.91    0.25
   4   4  -8    3.79    0.26
   4   4  -8    3.89    0.20
   3   4  -8    0.25    0.18
   3   4  -8    0.09    0.14
   3   4  -8    0.04    0.09
   3   4  -8   -0.07    0.09
   3   4  -8    0.12    0.07
   3   4  -8    0.03    0.07
   3   4  -8    0.11    0.06
   3   4  -8    0.20    0.08
   3   4  -8    0.06    0.15
   2   4  -8   34.83    1.72
   2   4  -8   35.37    1.96
   2   4  -8   34.65    2.16
   2   4  -8   38.89    2.19
   2   4  -8   40.49    2.21
   2   4  -8   41.04    2.12
   2   4  -8   36.34    1.79
   1   4  -8   17.64    0.97
   1   4  -8   17.40    1.01
   1   4  -8   14.39    0.95
   0   4  -8   10.71    0.67
   0   4  -8   10.63    0.71
   2  -4   8    8.23    0.52
   3  -4   8    6.74    0.49
   3  -4   8    6.34    0.35
   3  -4   8    5.85    0.50
   3  -4   8    6.86    0.42
   4  -4   8    1.40    0.12
   4  -4   8    1.40    0.13
   4  -4   8    1.40    0.16
   4  -4   8    1.12    0.13
   5  -4   8    2.04    0.15
   5  -4   8    1.86    0.19
   5  -4   8    2.17    0.17
   6  -4   8    5.45    0.28
   6  -4   8    5.18    0.26
   6  -4   8    5.32    0.34
   7  -4   8    1.60    0.10
   7  -4   8    1.57    0.13
   8   3  -8    0.06    0.09
   8   3  -8    0.21    0.08
   8   3  -8    0.12    0.06
   7   3  -8    0.48    0.08
   7   3  -8    0.44    0.10
   7   3  -8    0.49    0.11
   6   3  -8    4.07    0.26
   6   3  -8    3.79    0.22
   6   3  -8    3.83    0.28
   5   3  -8   12.68    0.62
   5   3  -8   13.81    0.73
   5   3  -8   13.59    0.63
   5   3  -8   13.23    0.77
   4   3  -8    2.78    0.20
   4   3  -8    3.06    0.16
   4   3  -8    2.82    0.17
   4   3  -8    2.69    0.15
   4   3  -8    2.54    0.22
   4   3  -8    2.69    0.21
   4   3  -8    2.83    0.20
   3   3  -8    6.50    0.43
   3   3  -8    6.09    0.31
   3   3  -8    5.87    0.36
   3   3  -8    6.13    0.38
   3   3  -8    6.24    0.32
   3   3  -8    6.99    0.42
   3   3  -8    6.61    0.32
   2   3  -8   66.45    3.94
   2   3  -8   69.99    3.95
   1   3  -8   65.21    3.68
   1   3  -8   66.42    3.81
   0   3  -8    2.41    0.28
   2  -3   8    5.55    0.40
   2  -3   8    6.58    0.49
   2  -3   8    6.87    0.48
   3  -3   8   10.13    0.59
   3  -3   8    9.08    0.49
   3  -3   8    9.25    0.67
   3  -3   8   10.49    0.66
   4  -3   8    4.34    0.29
   4  -3   8    4.27    0.29
   4  -3   8    4.23    0.24
   4  -3   8    4.27    0.25
   4  -3   8    3.72    0.37
   5  -3   8    0.71    0.11
   5  -3   8    0.52    0.12
   5  -3   8    0.63    0.08
   6  -3   8    1.95    0.11
   6  -3   8    2.05    0.14
   6  -3   8    2.15    0.19
   7  -3   8    1.00    0.08
   7  -3   8    0.87    0.12
   9   2  -8   -0.03    0.05
   8   2  -8    4.18    0.28
   8   2  -8    4.52    0.25
   8   2  -8    5.61    0.31
   7   2  -8   -0.03    0.08
   7   2  -8   -0.07    0.10
   7   2  -8   -0.06    0.09
   7   2  -8    0.08    0.11
   6   2  -8    7.54    0.44
   6   2  -8    7.55    0.46
   6   2  -8    7.53    0.47
   6   2  -8    7.40    0.38
   5   2  -8    1.39    0.14
   5   2  -8    1.07    0.11
   5   2  -8    1.01    0.10
   5   2  -8    1.54    0.17
   5   2  -8    1.19    0.13
   4   2  -8    7.21    0.45
   4   2  -8    6.90    0.34
   4   2  -8    7.51    0.40
   4   2  -8    6.77    0.35
   4   2  -8    6.92    0.35
   4   2  -8    6.82    0.42
   4   2  -8    6.93    0.43
   4   2  -8    7.41    0.44
   3   2  -8   21.63    1.18
   3   2  -8   22.93    1.32
   3   2  -8   22.11    1.30
   2   2  -8    3.23    0.29
   2   2  -8    3.43    0.27
   1   2  -8    3.00    0.28
   1   2  -8    2.78    0.26
   0   2  -8   40.80    2.36
   0   2  -8   39.59    2.27
   1  -2   8    3.14    0.30
   2  -2   8    4.63    0.39
   2  -2   8    4.54    0.36
   2  -2   8    3.97    0.31
   3  -2   8    0.21    0.21
   3  -2   8    0.07    0.17
   3  -2   8    0.10    0.08
   3  -2   8    0.05    0.07
   3  -2   8    0.03    0.11
   4  -2   8    1.06    0.11
   4  -2   8    1.18    0.11
   4  -2   8    0.79    0.14
   4  -2   8    0.84    0.21
   4  -2   8    1.07    0.22
   4  -2   8    1.05    0.12
   5  -2   8    0.05    0.07
   5  -2   8    0.06    0.11
   5  -2   8   -0.04    0.10
   5  -2   8   -0.02    0.13
   6  -2   8    1.98    0.14
   6  -2   8    1.67    0.20
   6  -2   8    2.24    0.21
   7  -2   8    1.46    0.10
   7  -2   8    1.42    0.15
   7  -2   8    1.42    0.15
   9   1  -8    1.27    0.11
   8   1  -8    1.64    0.15
   8   1  -8    1.67    0.14
   8   1  -8    2.11    0.20
   7   1  -8    4.76    0.33
   7   1  -8    4.33    0.26
   7   1  -8    5.06    0.31
   6   1  -8    0.01    0.09
   6   1  -8   -0.09    0.07
   6   1  -8   -0.06    0.10
   6   1  -8    0.00    0.14
   5   1  -8    1.56    0.15
   5   1  -8    1.76    0.16
   5   1  -8    1.54    0.13
   5   1  -8    1.52    0.17
   5   1  -8    1.59    0.12
   4   1  -8   10.24    0.48
   4   1  -8   10.75    0.56
   4   1  -8    9.70    0.59
   4   1  -8   10.56    0.49
   4   1  -8    9.73    0.62
   4   1  -8   10.06    0.62
   3   1  -8    2.89    0.24
   3   1  -8    2.05    0.15
   3   1  -8    2.59    0.23
   3   1  -8    2.27    0.15
   2   1  -8    3.99    0.32
   2   1  -8    3.89    0.30
   1   1  -8    0.20    0.16
   1   1  -8   -0.09    0.17
   0   1  -8    1.68    0.24
   0   1  -8    1.63    0.20
   1  -1   8    7.31    0.50
   1  -1   8    6.86    0.50
   2  -1   8   10.59    0.63
   2  -1   8    7.61    0.56
   2  -1   8   10.01    0.63
   3  -1   8    6.06    0.33
   3  -1   8    6.92    0.49
   3  -1   8    7.03    0.43
   3  -1   8    6.44    0.35
   3  -1   8    7.40    0.50
   3  -1   8    5.78    0.46
   4  -1   8    1.77    0.23
   4  -1   8    2.12    0.17
   4  -1   8    1.75    0.17
   4  -1   8    1.89    0.28
   4  -1   8    1.95    0.15
   5  -1   8    0.01    0.07
   5  -1   8   -0.24    0.11
   5  -1   8    0.00    0.10
   5  -1   8    0.07    0.11
   6  -1   8    0.57    0.12
   6  -1   8    0.64    0.11
   7  -1   8    0.11    0.09
   7  -1   8   -0.08    0.05
   7  -1   8   -0.13    0.09
   9   0  -8    1.08    0.11
   9   0  -8    1.10    0.12
   8   0  -8    0.36    0.11
   8   0  -8    0.34    0.07
   8   0  -8    0.40    0.10
   7   0  -8    7.07    0.43
   7   0  -8    6.78    0.45
   7   0  -8    6.76    0.35
   6   0  -8    4.34    0.47
   6   0  -8    4.59    0.27
   6   0  -8    5.20    0.34
   6   0  -8    5.02    0.24
   6   0  -8    4.90    0.32
   5   0  -8   12.11    0.73
   5   0  -8   13.07    0.95
   5   0  -8   12.88    0.59
   5   0  -8   12.49    0.61
   5   0  -8   12.56    0.76
   4   0  -8    4.53    0.29
   4   0  -8    4.93    0.25
   4   0  -8    4.59    0.25
   4   0  -8    5.35    0.48
   4   0  -8    4.31    0.34
   4   0  -8    4.71    0.25
   4   0  -8    5.11    0.33
   4   0  -8    4.51    0.31
   3   0  -8    0.99    0.12
   3   0  -8    1.41    0.25
   3   0  -8    1.27    0.09
   3   0  -8    1.22    0.09
   3   0  -8    1.23    0.19
   3   0  -8    1.28    0.20
   3   0  -8    1.39    0.10
   2   0  -8   24.65    1.44
   2   0  -8   25.26    1.49
   1   0  -8    1.23    0.18
   1   0  -8    1.24    0.22
   0   0  -8    4.18    0.34
   1   0   8    6.59    0.49
   1   0   8    7.05    0.49
   2   0   8    9.65    0.63
   2   0   8   11.87    0.71
   2   0   8   12.56    0.70
   2   0   8    9.29    0.52
   3   0   8    5.58    0.41
   3   0   8    5.10    0.28
   3   0   8    5.04    0.34
   3   0   8    5.36    0.42
   3   0   8    4.72    0.27
   3   0   8    4.49    0.38
   4   0   8    0.06    0.10
   4   0   8    0.02    0.07
   4   0   8    0.05    0.15
   4   0   8    0.04    0.10
   4   0   8   -0.03    0.13
   5   0   8    0.22    0.09
   5   0   8    0.25    0.08
   5   0   8    0.17    0.13
   5   0   8    0.09    0.15
   6   0   8   -0.01    0.07
   6   0   8   -0.06    0.10
   6   0   8   -0.04    0.13
   7   0   8    0.17    0.10
   9  -1  -8    0.77    0.09
   9  -1  -8    0.45    0.08
   8  -1  -8    0.18    0.09
   8  -1  -8    0.24    0.11
   7  -1  -8    6.97    0.43
   7  -1  -8    6.86    0.43
   7  -1  -8    6.67    0.34
   6  -1  -8    4.00    0.24
   6  -1  -8    4.27    0.28
   6  -1  -8    4.03    0.30
   6  -1  -8    4.10    0.22
   5  -1  -8    2.14    0.19
   5  -1  -8    1.75    0.17
   5  -1  -8    2.13    0.12
   5  -1  -8    2.30    0.21
   5  -1  -8    2.35    0.37
   5  -1  -8    2.04    0.15
   5  -1  -8    2.26    0.16
   5  -1  -8    1.86    0.17
   4  -1  -8    9.98    0.59
   4  -1  -8   10.47    0.65
   4  -1  -8    9.93    0.49
   4  -1  -8   10.18    0.51
   4  -1  -8   10.33    0.49
   4  -1  -8    9.49    0.61
   4  -1  -8   11.23    0.79
   4  -1  -8    9.84    0.63
   3  -1  -8    0.13    0.16
   3  -1  -8   -0.05    0.15
   3  -1  -8    0.09    0.08
   3  -1  -8   -0.01    0.07
   3  -1  -8    0.04    0.23
   3  -1  -8    0.08    0.09
   3  -1  -8    0.02    0.07
   2  -1  -8   35.64    2.02
   2  -1  -8   30.61    1.98
   2  -1  -8   36.55    1.95
   1  -1  -8    3.41    0.34
   1  -1  -8    3.49    0.32
   1   1   8    1.07    0.12
   2   1   8    2.86    0.34
   2   1   8    2.99    0.25
   2   1   8    2.49    0.20
   2   1   8    3.42    0.33
   3   1   8    9.17    0.48
   3   1   8    9.97    0.65
   3   1   8    9.08    0.65
   3   1   8    9.22    0.47
   3   1   8   10.02    0.58
   3   1   8    9.22    0.66
   4   1   8    0.75    0.15
   4   1   8    0.63    0.10
   4   1   8    0.69    0.11
   5   1   8    0.10    0.09
   5   1   8   -0.04    0.07
   5   1   8    0.03    0.12
   6   1   8   -0.16    0.13
   6   1   8    0.11    0.07
   7   1   8    0.11    0.07
   8  -2  -8    1.36    0.15
   8  -2  -8    1.54    0.14
   7  -2  -8    1.41    0.15
   7  -2  -8    1.25    0.16
   6  -2  -8   -0.01    0.13
   6  -2  -8    0.03    0.09
   6  -2  -8    0.06    0.07
   6  -2  -8    0.00    0.07
   5  -2  -8    1.59    0.18
   5  -2  -8    1.72    0.17
   5  -2  -8    1.75    0.34
   5  -2  -8    1.52    0.14
   5  -2  -8    1.65    0.15
   5  -2  -8    1.51    0.12
   4  -2  -8    0.13    0.18
   4  -2  -8   -0.06    0.07
   4  -2  -8   -0.16    0.24
   4  -2  -8   -0.01    0.17
   4  -2  -8    0.08    0.08
   4  -2  -8   -0.03    0.09
   4  -2  -8    0.07    0.10
   3  -2  -8   13.95    0.91
   3  -2  -8   15.92    0.78
   3  -2  -8   15.61    0.75
   3  -2  -8   16.75    1.13
   3  -2  -8   16.97    0.97
   3  -2  -8   17.79    1.00
   3  -2  -8   15.52    0.94
   2  -2  -8   57.46    2.94
   2  -2  -8   63.76    3.56
   2  -2  -8   57.86    3.54
   2  -2  -8   66.00    3.46
   1  -2  -8    0.09    0.10
   1   2   8   24.52    1.44
   2   2   8    2.31    0.23
   2   2   8    2.02    0.29
   2   2   8    2.01    0.18
   2   2   8    2.13    0.32
   3   2   8    0.69    0.12
   3   2   8    0.71    0.11
   4   2   8    0.09    0.09
   4   2   8    0.14    0.16
   4   2   8    0.14    0.10
   5   2   8    0.22    0.09
   5   2   8    0.18    0.06
   5   2   8    0.25    0.12
   6   2   8    0.06    0.07
   6   2   8    0.08    0.12
   8  -3  -8    0.06    0.06
   8  -3  -8    0.09    0.08
   7  -3  -8    2.49    0.19
   7  -3  -8    2.46    0.21
   7  -3  -8    2.74    0.13
   6  -3  -8    0.60    0.08
   6  -3  -8    0.50    0.07
   6  -3  -8    0.61    0.11
   6  -3  -8    0.73    0.12
   5  -3  -8    0.64    0.14
   5  -3  -8    0.53    0.08
   5  -3  -8    0.54    0.07
   5  -3  -8    0.68    0.10
   4  -3  -8    3.62    0.39
   4  -3  -8    4.03    0.23
   4  -3  -8    4.46    0.22
   4  -3  -8    3.99    0.23
   4  -3  -8    3.66    0.28
   3  -3  -8   14.00    0.67
   3  -3  -8   13.12    0.77
   3  -3  -8   12.80    0.86
   3  -3  -8   14.05    0.80
   3  -3  -8   12.81    0.84
   3  -3  -8   12.98    0.64
   2  -3  -8    0.95    0.23
   2  -3  -8    1.18    0.10
   2  -3  -8    0.81    0.20
   2  -3  -8    1.06    0.14
   1  -3  -8    0.68    0.12
   1   3   8    3.54    0.29
   2   3   8    0.48    0.11
   2   3   8    0.45    0.12
   3   3   8    0.30    0.11
   3   3   8    0.21    0.11
   3   3   8    0.26    0.17
   4   3   8    0.43    0.09
   4   3   8    0.38    0.13
   4   3   8    0.28    0.10
   5   3   8    0.09    0.13
   5   3   8    0.06    0.08
   6   3   8    0.90    0.12
   6   3   8    0.65    0.06
   7  -4  -8    0.62    0.05
   7  -4  -8    0.49    0.08
   6  -4  -8    1.83    0.14
   6  -4  -8    1.66    0.17
   5  -4  -8    4.82    0.26
   5  -4  -8    5.25    0.27
   5  -4  -8    5.10    0.27
   5  -4  -8    4.97    0.33
   4  -4  -8    2.10    0.16
   4  -4  -8    1.56    0.18
   4  -4  -8    1.81    0.14
   4  -4  -8    1.70    0.15
   3  -4  -8    0.05    0.09
   3  -4  -8    0.15    0.10
   3  -4  -8   -0.14    0.09
   2  -4  -8    0.48    0.11
   2  -4  -8    0.35    0.12
   2  -4  -8    0.57    0.11
   1  -4  -8    1.27    0.14
   0   4   8   -0.03    0.11
   1   4   8    0.06    0.12
   2   4   8    0.13    0.10
   2   4   8    0.10    0.11
   3   4   8    0.22    0.10
   3   4   8    0.24    0.10
   3   4   8    0.20    0.13
   4   4   8    0.89    0.15
   4   4   8    0.70    0.09
   4   4   8    0.46    0.07
   5   4   8    1.59    0.11
   5   4   8    1.50    0.17
   7  -5  -8    1.04    0.09
   6  -5  -8    0.34    0.06
   6  -5  -8    0.25    0.08
   5  -5  -8   -0.04    0.08
   5  -5  -8    0.20    0.10
   5  -5  -8    0.05    0.05
   4  -5  -8    1.63    0.15
   4  -5  -8    1.46    0.16
   4  -5  -8    1.53    0.14
   4  -5  -8    1.60    0.11
   3  -5  -8    7.35    0.37
   3  -5  -8    7.21    0.43
   3  -5  -8    6.33    0.42
   2  -5  -8   18.68    0.98
   2  -5  -8   14.25    0.93
   1  -5  -8    0.13    0.12
   0   5   8    0.02    0.10
   1   5   8    0.23    0.11
   1   5   8    0.36    0.10
   2   5   8    0.04    0.09
   2   5   8    0.01    0.07
   3   5   8   -0.04    0.10
   3   5   8   -0.09    0.09
   3   5   8   -0.09    0.07
   4   5   8    0.05    0.06
   4   5   8    0.07    0.07
   5  -6  -8    0.39    0.07
   5  -6  -8    0.37    0.06
   4  -6  -8    0.05    0.07
   4  -6  -8    0.08    0.08
   4  -6  -8    0.11    0.06
   3  -6  -8    0.64    0.09
   3  -6  -8    0.74    0.09
   3  -6  -8    0.74    0.09
   2  -6  -8    4.33    0.29
   1  -6  -8   -0.02    0.10
  -1   6   8    0.08    0.11
   0  -6  -8   -0.02    0.10
   0   6   8    0.02    0.10
   1   6   8    0.11    0.08
   1   6   8    0.24    0.09
   2   6   8    0.07    0.09
   2   6   8    0.10    0.06
   1  -7  -8    0.01    0.07
  -1   7   8   -0.08    0.07
   4   9  -9    1.16    0.11
   3   9  -9    1.22    0.13
   3   9  -9    1.19    0.10
   2   9  -9    0.14    0.09
   2   9  -9    0.12    0.06
   2   9  -9    0.03    0.06
   1   9  -9    0.31    0.09
   1   9  -9    0.25    0.07
   0   9  -9    0.29    0.07
   0   9  -9    0.13    0.07
   0   9  -9    0.33    0.09
  -1   9  -9    0.48    0.09
   1  -9   9    0.53    0.10
  -2   9  -9    0.22    0.09
   2  -9   9    0.28    0.08
   3  -9   9   -0.06    0.07
   3  -9   9   -0.01    0.05
   5   8  -9    0.48    0.11
   4   8  -9    2.44    0.15
   4   8  -9    2.47    0.21
   3   8  -9    0.20    0.08
   3   8  -9    0.22    0.06
   3   8  -9    0.27    0.11
   2   8  -9   -0.03    0.07
   2   8  -9   -0.06    0.09
   2   8  -9    0.04    0.13
   1   8  -9    0.77    0.09
   1   8  -9    1.05    0.15
   1   8  -9    0.72    0.10
   0   8  -9    2.91    0.23
   0   8  -9    2.63    0.19
  -1   8  -9    1.01    0.12
  -2   8  -9   -0.15    0.11
   2  -8   9    0.00    0.10
   3  -8   9    0.12    0.08
   3  -8   9    0.17    0.08
   4  -8   9    0.17    0.07
   4  -8   9    0.16    0.06
   6   7  -9    0.19    0.11
   6   7  -9    0.24    0.08
   5   7  -9    1.12    0.12
   5   7  -9    1.19    0.16
   5   7  -9    1.24    0.10
   4   7  -9    0.22    0.14
   4   7  -9    0.16    0.08
   4   7  -9    0.15    0.08
   3   7  -9    2.39    0.19
   3   7  -9    2.62    0.17
   3   7  -9    2.51    0.24
   3   7  -9    2.58    0.17
   2   7  -9    0.34    0.15
   2   7  -9    0.04    0.09
   2   7  -9    0.12    0.07
   2   7  -9    0.09    0.09
   1   7  -9    8.76    0.47
   1   7  -9    9.50    0.56
   0   7  -9    0.42    0.12
  -1   7  -9   -0.05    0.12
   2  -7   9    0.05    0.12
   3  -7   9    0.27    0.09
   3  -7   9    0.26    0.11
   4  -7   9    0.22    0.08
   4  -7   9    0.06    0.10
   4  -7   9    0.10    0.06
   5  -7   9    0.19    0.07
   5  -7   9    0.11    0.05
   5  -7   9    0.03    0.06
   7   6  -9    0.03    0.07
   7   6  -9    0.13    0.09
   6   6  -9    1.29    0.15
   6   6  -9    1.53    0.12
   6   6  -9    1.48    0.16
   5   6  -9    0.60    0.12
   5   6  -9    0.42    0.08
   5   6  -9    0.52    0.08
   5   6  -9    0.51    0.12
   4   6  -9    1.55    0.10
   4   6  -9    1.76    0.14
   4   6  -9    1.88    0.16
   4   6  -9    1.37    0.11
   4   6  -9    1.98    0.21
   3   6  -9    0.59    0.09
   3   6  -9    0.73    0.14
   3   6  -9    0.54    0.08
   3   6  -9    0.57    0.26
   3   6  -9    0.86    0.10
   2   6  -9    2.22    0.17
   2   6  -9    2.29    0.18
   2   6  -9    1.48    0.32
   2   6  -9    2.21    0.19
   2   6  -9    2.31    0.17
   1   6  -9    1.13    0.24
   1   6  -9    1.33    0.29
   1   6  -9    1.27    0.11
   1   6  -9    1.51    0.14
   1   6  -9    1.17    0.12
   0   6  -9    0.24    0.10
  -1   6  -9    0.13    0.11
   2  -6   9    0.15    0.12
   3  -6   9    0.53    0.08
   3  -6   9    0.40    0.12
   4  -6   9    1.31    0.12
   4  -6   9    1.11    0.14
   5  -6   9   -0.01    0.08
   5  -6   9    0.01    0.08
   5  -6   9   -0.04    0.06
   5  -6   9    0.02    0.09
   6  -6   9    0.41    0.07
   8   5  -9    0.61    0.07
   7   5  -9    1.41    0.15
   7   5  -9    1.76    0.13
   6   5  -9    6.93    0.46
   6   5  -9    6.22    0.41
   6   5  -9    7.20    0.34
   5   5  -9    4.33    0.24
   5   5  -9    4.25    0.31
   5   5  -9    4.11    0.22
   5   5  -9    3.88    0.27
   4   5  -9    0.03    0.05
   4   5  -9    0.13    0.08
   4   5  -9    0.18    0.08
   4   5  -9    0.10    0.13
   4   5  -9    0.11    0.10
   3   5  -9   11.96    0.56
   3   5  -9   11.22    0.75
   3   5  -9   11.17    0.72
   3   5  -9   12.77    0.58
   3   5  -9   11.58    0.74
   3   5  -9   10.48    0.78
   3   5  -9   11.78    0.65
   2   5  -9    1.30    0.22
   2   5  -9    1.39    0.10
   2   5  -9    1.45    0.27
   2   5  -9    1.35    0.12
   2   5  -9    1.47    0.14
   2   5  -9    1.27    0.13
   2   5  -9    1.23    0.23
   1   5  -9    0.74    0.08
   1   5  -9    0.70    0.11
   1   5  -9    0.75    0.09
   1   5  -9    0.99    0.24
   1   5  -9    0.83    0.21
   0   5  -9    3.94    0.28
   2  -5   9    0.97    0.14
   3  -5   9    3.46    0.27
   3  -5   9    3.01    0.20
   3  -5   9    3.34    0.24
   4  -5   9    5.66    0.36
   4  -5   9    5.73    0.32
   4  -5   9    6.07    0.37
   5  -5   9    0.33    0.10
   5  -5   9    0.51    0.08
   5  -5   9    0.50    0.12
   5  -5   9    0.52    0.10
   6  -5   9    2.67    0.15
   6  -5   9    2.19    0.18
   8   4  -9    2.00    0.15
   8   4  -9    2.19    0.14
   7   4  -9    0.50    0.08
   7   4  -9    0.50    0.12
   6   4  -9    1.63    0.14
   6   4  -9    1.23    0.14
   6   4  -9    1.55    0.13
   5   4  -9   19.09    0.85
   5   4  -9   16.57    1.12
   5   4  -9   19.03    1.03
   5   4  -9   17.21    0.98
   5   4  -9   18.96    0.86
   4   4  -9   64.08    3.94
   4   4  -9   63.32    4.16
   4   4  -9   66.16    3.29
   4   4  -9   73.51    3.15
   4   4  -9   65.93    3.60
   4   4  -9   74.26    3.82
   4   4  -9   71.91    3.16
   3   4  -9    4.14    0.23
   3   4  -9    3.94    0.23
   3   4  -9    4.32    0.27
   3   4  -9    4.36    0.23
   3   4  -9    4.45    0.34
   3   4  -9    4.12    0.30
   3   4  -9    4.47    0.33
   3   4  -9    3.89    0.27
   2   4  -9    3.74    0.33
   2   4  -9    3.75    0.22
   2   4  -9    3.85    0.33
   2   4  -9    3.89    0.23
   2   4  -9    3.35    0.21
   2   4  -9    3.58    0.26
   2   4  -9    4.13    0.33
   1   4  -9   12.71    0.67
   1   4  -9   14.31    0.88
   1   4  -9   13.37    0.81
   1   4  -9   14.80    0.84
   0   4  -9    7.20    0.45
   2  -4   9    4.32    0.32
   3  -4   9    1.33    0.13
   3  -4   9    1.47    0.15
   4  -4   9    0.93    0.12
   4  -4   9    1.38    0.11
   4  -4   9    1.23    0.12
   4  -4   9    1.21    0.13
   5  -4   9    3.11    0.18
   5  -4   9    2.97    0.20
   5  -4   9    2.88    0.24
   6  -4   9    6.41    0.38
   6  -4   9    6.45    0.32
   7  -4   9    0.05    0.04
   7  -4   9    0.03    0.06
   8   3  -9    0.14    0.07
   8   3  -9    0.00    0.07
   8   3  -9    0.09    0.06
   7   3  -9    0.42    0.11
   7   3  -9    0.23    0.08
   7   3  -9    0.16    0.11
   6   3  -9    1.40    0.17
   6   3  -9    1.45    0.15
   6   3  -9    1.40    0.11
   5   3  -9   17.75    0.82
   5   3  -9   17.07    0.99
   5   3  -9   17.21    0.81
   5   3  -9   17.80    0.94
   4   3  -9   18.00    0.78
   4   3  -9   15.20    0.95
   4   3  -9   16.44    0.89
   4   3  -9   16.80    0.94
   4   3  -9   14.58    0.98
   4   3  -9   17.19    0.80
   4   3  -9   17.39    0.78
   3   3  -9    4.46    0.24
   3   3  -9    4.48    0.35
   3   3  -9    4.78    0.24
   3   3  -9    4.69    0.25
   3   3  -9    4.37    0.29
   3   3  -9    4.38    0.28
   3   3  -9    4.92    0.34
   2   3  -9    2.78    0.17
   2   3  -9    3.46    0.30
   2   3  -9    3.65    0.28
   2   3  -9    3.03    0.18
   2   3  -9    3.07    0.22
   2   3  -9    3.04    0.18
   1   3  -9    7.52    0.49
   1   3  -9    6.21    0.41
   0   3  -9    2.34    0.27
   2  -3   9    3.29    0.27
   3  -3   9    4.25    0.24
   3  -3   9    4.21    0.37
   3  -3   9    3.81    0.40
   3  -3   9    4.56    0.31
   4  -3   9    0.98    0.11
   4  -3   9    1.01    0.11
   4  -3   9    0.66    0.11
   4  -3   9    0.90    0.13
   5  -3   9    0.28    0.07
   5  -3   9    0.29    0.10
   5  -3   9    0.25    0.11
   6  -3   9    0.02    0.12
   6  -3   9   -0.15    0.08
   7  -3   9    0.96    0.07
   7  -3   9    1.17    0.12
   8   2  -9    0.49    0.07
   8   2  -9    0.62    0.09
   7   2  -9    0.89    0.10
   7   2  -9    1.10    0.13
   7   2  -9    0.69    0.11
   7   2  -9    1.00    0.14
   6   2  -9    5.15    0.28
   6   2  -9    5.15    0.33
   6   2  -9    5.16    0.31
   6   2  -9    4.91    0.36
   5   2  -9    5.93    0.31
   5   2  -9    6.21    0.36
   5   2  -9    6.30    0.41
   5   2  -9    6.02    0.30
   5   2  -9    5.70    0.37
   4   2  -9    1.77    0.14
   4   2  -9    1.77    0.12
   4   2  -9    1.75    0.15
   4   2  -9    1.59    0.19
   4   2  -9    1.95    0.19
   4   2  -9    1.79    0.18
   4   2  -9    1.82    0.17
   4   2  -9    1.80    0.14
   3   2  -9    0.55    0.19
   3   2  -9    0.61    0.07
   3   2  -9    0.54    0.09
   3   2  -9    0.58    0.09
   3   2  -9    0.74    0.07
   3   2  -9    0.36    0.06
   2   2  -9   14.16    0.92
   2   2  -9   17.23    0.93
   2   2  -9   17.42    0.97
   2   2  -9   14.66    0.76
   1   2  -9   22.06    1.31
   1   2  -9   21.03    1.26
   0   2  -9    5.83    0.42
   0   2  -9    6.32    0.47
   2  -2   9    0.30    0.23
   2  -2   9    0.37    0.23
   2  -2   9    0.60    0.13
   3  -2   9   11.51    0.81
   3  -2   9   11.62    0.61
   3  -2   9   13.06    0.74
   3  -2   9   12.57    0.80
   4  -2   9    4.65    0.29
   4  -2   9    4.50    0.25
   4  -2   9    4.09    0.25
   5  -2   9    0.06    0.11
   5  -2   9   -0.01    0.11
   5  -2   9    0.04    0.09
   5  -2   9    0.03    0.07
   6  -2   9    0.08    0.10
   6  -2   9    0.16    0.10
   6  -2   9    0.25    0.08
   7  -2   9    0.13    0.08
   7  -2   9    0.03    0.04
   9   1  -9    1.18    0.11
   8   1  -9    0.53    0.09
   8   1  -9    0.75    0.14
   8   1  -9    0.95    0.12
   7   1  -9    7.44    0.47
   7   1  -9    6.92    0.37
   7   1  -9    7.97    0.46
   6   1  -9    2.19    0.23
   6   1  -9    2.00    0.17
   6   1  -9    2.21    0.12
   6   1  -9    2.03    0.16
   6   1  -9    2.17    0.20
   5   1  -9    0.39    0.12
   5   1  -9    0.22    0.09
   5   1  -9    0.32    0.08
   5   1  -9    0.43    0.14
   5   1  -9    0.31    0.07
   4   1  -9    1.08    0.18
   4   1  -9    1.47    0.11
   4   1  -9    1.20    0.13
   4   1  -9    1.29    0.12
   4   1  -9    1.20    0.12
   3   1  -9   11.01    0.66
   3   1  -9   11.30    0.53
   3   1  -9    9.70    0.63
   3   1  -9   11.84    0.71
   3   1  -9   11.97    0.68
   3   1  -9   11.31    0.53
   3   1  -9   10.44    0.65
   3   1  -9   11.12    0.55
   2   1  -9    4.53    0.24
   2   1  -9    4.46    0.26
   2   1  -9    5.34    0.38
   2   1  -9    5.65    0.36
   2   1  -9    4.44    0.31
   1   1  -9    0.03    0.17
   1   1  -9    0.15    0.16
   2  -1   9    1.37    0.27
   2  -1   9    1.49    0.15
   2  -1   9    0.95    0.22
   2  -1   9    1.11    0.15
   3  -1   9    8.46    0.50
   3  -1   9    7.07    0.53
   3  -1   9    7.66    0.57
   3  -1   9    8.16    0.57
   3  -1   9    7.92    0.41
   4  -1   9    0.27    0.11
   4  -1   9    0.30    0.14
   4  -1   9    0.24    0.08
   4  -1   9    0.20    0.11
   5  -1   9    0.99    0.15
   5  -1   9    0.91    0.09
   5  -1   9    0.69    0.11
   5  -1   9    0.73    0.15
   6  -1   9    0.01    0.11
   6  -1   9    0.00    0.09
   7  -1   9    0.16    0.07
   7  -1   9    0.13    0.03
   7  -1   9    0.25    0.07
   9   0  -9    1.63    0.13
   8   0  -9   10.41    0.52
   8   0  -9   10.89    0.63
   8   0  -9   11.37    0.66
   7   0  -9    1.30    0.14
   7   0  -9    1.26    0.11
   7   0  -9    1.11    0.15
   6   0  -9    7.71    0.46
   6   0  -9    7.51    0.39
   6   0  -9    7.99    0.37
   6   0  -9    7.45    0.49
   5   0  -9    0.05    0.12
   5   0  -9    0.03    0.08
   5   0  -9    0.07    0.07
   5   0  -9    0.09    0.13
   4   0  -9    2.29    0.24
   4   0  -9    2.60    0.17
   4   0  -9    2.65    0.17
   4   0  -9    2.74    0.17
   4   0  -9    2.28    0.21
   4   0  -9    2.57    0.25
   4   0  -9    2.42    0.20
   3   0  -9    8.39    0.51
   3   0  -9    8.72    0.42
   3   0  -9    7.71    0.50
   3   0  -9    8.73    0.42
   3   0  -9    8.05    0.52
   3   0  -9    9.23    0.59
   3   0  -9    9.53    0.56
   3   0  -9    8.88    0.43
   2   0  -9    8.37    0.44
   2   0  -9   10.44    0.59
   2   0  -9   10.14    0.62
   2   0  -9    8.75    0.46
   2   0  -9    8.39    0.55
   1   0  -9   11.71    0.71
   1   0  -9    9.92    0.65
   1   0  -9   11.09    0.69
   1   0   9    6.47    0.41
   2   0   9    2.98    0.33
   2   0   9    2.59    0.20
   2   0   9    2.98    0.24
   2   0   9    2.94    0.32
   3   0   9    1.81    0.14
   3   0   9    1.60    0.16
   3   0   9    1.90    0.21
   3   0   9    1.47    0.19
   3   0   9    1.68    0.29
   4   0   9    2.41    0.18
   4   0   9    2.67    0.18
   4   0   9    2.31    0.16
   4   0   9    2.63    0.20
   4   0   9    2.37    0.26
   5   0   9    0.17    0.07
   5   0   9    0.01    0.14
   5   0   9    0.07    0.11
   5   0   9    0.39    0.10
   6   0   9    0.19    0.07
   6   0   9    0.19    0.09
   8  -1  -9    5.34    0.32
   8  -1  -9    4.58    0.30
   7  -1  -9    0.33    0.08
   7  -1  -9    0.54    0.13
   7  -1  -9    0.49    0.13
   6  -1  -9    3.41    0.27
   6  -1  -9    3.65    0.20
   6  -1  -9    3.71    0.22
   6  -1  -9    3.56    0.27
   5  -1  -9    1.72    0.15
   5  -1  -9    1.68    0.11
   5  -1  -9    2.03    0.35
   5  -1  -9    1.59    0.19
   5  -1  -9    1.60    0.14
   5  -1  -9    1.67    0.18
   4  -1  -9    1.60    0.17
   4  -1  -9    1.46    0.21
   4  -1  -9    1.69    0.14
   4  -1  -9    1.98    0.33
   4  -1  -9    1.52    0.15
   4  -1  -9    1.82    0.24
   4  -1  -9    1.81    0.15
   4  -1  -9    1.69    0.16
   3  -1  -9    8.60    0.53
   3  -1  -9    7.49    0.38
   3  -1  -9    7.90    0.40
   3  -1  -9    6.79    0.45
   3  -1  -9    7.81    0.54
   3  -1  -9    7.72    0.47
   2  -1  -9    0.41    0.20
   2  -1  -9    0.24    0.11
   2  -1  -9   -0.03    0.19
   2  -1  -9    0.29    0.09
   1  -1  -9   55.34    3.45
   1  -1  -9   61.50    3.48
   1  -1  -9   62.10    3.37
   1   1   9    0.15    0.12
   2   1   9    1.24    0.15
   2   1   9    1.48    0.13
   2   1   9    1.38    0.26
   3   1   9    4.07    0.25
   3   1   9    4.44    0.31
   3   1   9    4.13    0.36
   3   1   9    4.31    0.25
   4   1   9    1.72    0.17
   4   1   9    1.61    0.21
   4   1   9    1.51    0.15
   5   1   9    0.02    0.13
   5   1   9   -0.07    0.07
   5   1   9   -0.02    0.09
   6   1   9    0.02    0.09
   6   1   9    0.07    0.06
   8  -2  -9   -0.04    0.08
   8  -2  -9   -0.17    0.08
   7  -2  -9    1.24    0.13
   7  -2  -9    1.27    0.14
   7  -2  -9    1.32    0.10
   6  -2  -9   10.89    0.50
   6  -2  -9    9.90    0.60
   6  -2  -9    9.76    0.62
   6  -2  -9   10.43    0.49
   5  -2  -9    3.72    0.21
   5  -2  -9    3.32    0.20
   5  -2  -9    3.49    0.25
   5  -2  -9    3.71    0.21
   4  -2  -9    6.11    0.34
   4  -2  -9    6.60    0.34
   4  -2  -9    6.11    0.40
   4  -2  -9    6.30    0.57
   4  -2  -9    7.09    0.34
   3  -2  -9    0.40    0.10
   3  -2  -9    0.45    0.09
   3  -2  -9    0.37    0.10
   3  -2  -9   -0.10    0.18
   3  -2  -9    0.27    0.21
   3  -2  -9    0.47    0.09
   2  -2  -9   18.54    1.17
   2  -2  -9   19.16    1.11
   2  -2  -9   19.45    1.14
   2  -2  -9   17.82    0.92
   1  -2  -9   39.07    2.28
   1   2   9    2.51    0.24
   2   2   9    0.25    0.11
   2   2   9    0.21    0.12
   3   2   9    2.38    0.19
   3   2   9    2.01    0.17
   3   2   9    2.22    0.28
   3   2   9    2.25    0.21
   4   2   9    2.06    0.25
   4   2   9    1.93    0.15
   4   2   9    1.76    0.15
   5   2   9   -0.04    0.12
   5   2   9    0.14    0.08
   6   2   9    0.01    0.04
   6   2   9    0.03    0.09
   8  -3  -9    4.67    0.28
   7  -3  -9    0.15    0.08
   6  -3  -9    1.51    0.12
   6  -3  -9    1.36    0.15
   6  -3  -9    1.34    0.13
   5  -3  -9    0.98    0.09
   5  -3  -9    1.05    0.10
   5  -3  -9    1.09    0.14
   5  -3  -9    1.10    0.11
   4  -3  -9   -0.13    0.10
   4  -3  -9    0.02    0.08
   4  -3  -9    0.06    0.11
   4  -3  -9   -0.04    0.06
   3  -3  -9    0.84    0.12
   3  -3  -9    0.91    0.11
   3  -3  -9    0.95    0.12
   3  -3  -9    0.89    0.11
   2  -3  -9    3.77    0.25
   2  -3  -9    4.17    0.30
   1  -3  -9    0.64    0.13
   0   3   9    0.51    0.13
   1   3   9    1.35    0.16
   2   3   9    4.90    0.34
   2   3   9    4.48    0.28
   3   3   9    0.28    0.09
   3   3   9    0.17    0.08
   3   3   9    0.21    0.13
   3   3   9    0.35    0.11
   4   3   9    0.01    0.14
   4   3   9    0.03    0.09
   4   3   9    0.01    0.07
   5   3   9    0.10    0.11
   5   3   9   -0.03    0.06
   7  -4  -9    0.21    0.06
   6  -4  -9    0.30    0.07
   6  -4  -9    0.40    0.10
   5  -4  -9    0.40    0.06
   5  -4  -9    0.45    0.06
   5  -4  -9    0.48    0.09
   5  -4  -9    0.29    0.10
   4  -4  -9    2.57    0.18
   4  -4  -9    2.24    0.20
   4  -4  -9    2.47    0.18
   4  -4  -9    2.65    0.16
   3  -4  -9   -0.07    0.09
   3  -4  -9   -0.08    0.08
   3  -4  -9   -0.10    0.10
   2  -4  -9    0.10    0.08
   2  -4  -9    0.04    0.10
   1  -4  -9    0.48    0.12
   0  -4  -9    0.10    0.11
   0   4   9    0.19    0.12
   1   4   9    3.72    0.29
   2   4   9    0.29    0.10
   2   4   9    0.35    0.09
   3   4   9    0.40    0.08
   3   4   9    0.27    0.08
   3   4   9    0.54    0.12
   4   4   9    0.13    0.04
   4   4   9    0.08    0.11
   4   4   9    0.05    0.07
   6  -5  -9    1.90    0.14
   6  -5  -9    1.83    0.11
   5  -5  -9    0.73    0.06
   5  -5  -9    0.67    0.08
   5  -5  -9    0.56    0.09
   4  -5  -9    1.81    0.15
   4  -5  -9    2.21    0.14
   4  -5  -9    2.10    0.14
   4  -5  -9    1.91    0.12
   3  -5  -9    4.05    0.26
   3  -5  -9    3.84    0.23
   2  -5  -9    8.13    0.49
   2  -5  -9    7.53    0.41
   1  -5  -9    0.00    0.11
  -1   5   9    0.25    0.13
   0  -5  -9    1.63    0.17
   0   5   9    1.02    0.14
   1   5   9    0.11    0.10
   1   5   9    0.28    0.09
   2   5   9    0.21    0.09
   2   5   9    0.33    0.13
   3   5   9    0.00    0.06
   3   5   9    0.08    0.09
   4  -6  -9   -0.01    0.04
   3  -6  -9    0.13    0.07
   2  -6  -9    2.05    0.15
   2  -6  -9    1.84    0.15
  -1   6   9    7.41    0.46
   0  -6  -9    0.18    0.08
   0   6   9    0.28    0.08
   1   6   9   -0.01    0.08
   1   6   9    0.02    0.09
   3   9 -10    0.71    0.10
   3   9 -10    0.51    0.06
   2   9 -10    1.30    0.09
   2   9 -10    1.49    0.14
   2   9 -10    1.36    0.10
   1   9 -10    0.52    0.11
   1   9 -10    0.36    0.07
   0   9 -10    0.80    0.09
   0   9 -10    1.05    0.12
   0   9 -10    0.97    0.10
  -1   9 -10    0.05    0.08
   1  -9  10    0.09    0.07
  -2   9 -10    1.95    0.16
   2  -9  10    1.89    0.15
   5   8 -10    0.45    0.10
   4   8 -10    0.14    0.06
   4   8 -10    0.28    0.11
   3   8 -10    2.86    0.17
   3   8 -10    2.68    0.16
   3   8 -10    3.14    0.25
   2   8 -10    0.37    0.11
   2   8 -10    0.13    0.07
   2   8 -10    0.26    0.08
   1   8 -10    0.00    0.08
   1   8 -10    0.04    0.10
   1   8 -10    0.00    0.07
   0   8 -10    0.29    0.09
   0   8 -10    0.37    0.08
  -1   8 -10    0.42    0.11
   1  -8  10    0.35    0.10
  -2   8 -10    0.88    0.13
   2  -8  10    1.08    0.12
   3  -8  10    0.12    0.07
   3  -8  10   -0.01    0.08
   4  -8  10   -0.05    0.05
   4  -8  10    0.02    0.06
   6   7 -10   -0.06    0.06
   6   7 -10    0.05    0.09
   5   7 -10    0.35    0.10
   5   7 -10    0.38    0.08
   5   7 -10    0.30    0.05
   4   7 -10    0.35    0.07
   4   7 -10    0.48    0.14
   4   7 -10    0.49    0.08
   3   7 -10    3.37    0.20
   3   7 -10    3.71    0.21
   3   7 -10    3.44    0.23
   3   7 -10    3.66    0.30
   2   7 -10    0.00    0.09
   2   7 -10    0.10    0.14
   2   7 -10    0.01    0.08
   1   7 -10    0.11    0.08
   1   7 -10    0.13    0.10
   0   7 -10    1.61    0.15
   0   7 -10    1.94    0.20
  -1   7 -10    3.80    0.28
  -2   7 -10    1.93    0.20
   2  -7  10    1.97    0.21
   3  -7  10    0.09    0.10
   3  -7  10    0.09    0.08
   4  -7  10    0.15    0.09
   4  -7  10    0.25    0.07
   5  -7  10    0.01    0.05
   5  -7  10   -0.02    0.06
   7   6 -10    0.39    0.09
   6   6 -10    0.45    0.11
   6   6 -10    0.54    0.07
   6   6 -10    0.89    0.10
   5   6 -10    0.04    0.11
   5   6 -10    0.10    0.06
   5   6 -10    0.11    0.12
   5   6 -10    0.18    0.07
   4   6 -10    0.34    0.08
   4   6 -10    0.53    0.10
   4   6 -10    0.31    0.11
   3   6 -10    0.42    0.08
   3   6 -10    0.25    0.14
   3   6 -10    0.21    0.08
   3   6 -10    0.20    0.09
   2   6 -10    1.55    0.16
   2   6 -10    1.35    0.16
   2   6 -10    1.27    0.12
   2   6 -10    1.59    0.15
   1   6 -10    0.13    0.08
   1   6 -10    0.16    0.11
   1   6 -10    0.16    0.07
   1   6 -10    0.20    0.24
   0   6 -10   15.11    0.91
  -1   6 -10    0.11    0.11
   2  -6  10    0.09    0.13
   3  -6  10    0.01    0.09
   3  -6  10    0.07    0.10
   4  -6  10    0.17    0.07
   4  -6  10    0.23    0.08
   5  -6  10    0.13    0.08
   5  -6  10    0.01    0.07
   5  -6  10    0.15    0.08
   5  -6  10    0.11    0.06
   7   5 -10    1.48    0.11
   7   5 -10    1.40    0.14
   6   5 -10    2.13    0.19
   6   5 -10    2.56    0.16
   5   5 -10    0.56    0.13
   5   5 -10    0.48    0.11
   5   5 -10    0.54    0.09
   5   5 -10    0.45    0.07
   4   5 -10    0.10    0.12
   4   5 -10    0.21    0.10
   4   5 -10    0.11    0.05
   4   5 -10    0.11    0.07
   4   5 -10    0.24    0.08
   3   5 -10    0.57    0.10
   3   5 -10    0.34    0.08
   3   5 -10    0.44    0.08
   3   5 -10    0.44    0.13
   2   5 -10   12.68    0.72
   2   5 -10   12.51    0.60
   2   5 -10   10.93    0.81
   2   5 -10   12.43    0.67
   2   5 -10   12.24    0.58
   2   5 -10   11.51    0.76
   1   5 -10    7.96    0.56
   1   5 -10    8.24    0.46
   1   5 -10    8.69    0.51
   1   5 -10    7.90    0.42
   1   5 -10    7.50    0.59
   0   5 -10    0.32    0.10
  -1   5 -10    2.45    0.22
   2  -5  10    6.55    0.44
   3  -5  10    0.02    0.11
   3  -5  10   -0.06    0.11
   3  -5  10   -0.02    0.09
   4  -5  10    3.31    0.24
   4  -5  10    3.58    0.22
   4  -5  10    3.62    0.24
   5  -5  10   -0.05    0.10
   5  -5  10    0.03    0.08
   5  -5  10   -0.05    0.06
   6  -5  10    0.56    0.08
   6  -5  10    0.71    0.07
   8   4 -10    3.97    0.21
   8   4 -10    3.91    0.24
   7   4 -10    0.94    0.10
   7   4 -10    0.84    0.11
   6   4 -10    2.54    0.19
   6   4 -10    2.19    0.22
   6   4 -10    2.35    0.17
   5   4 -10    6.03    0.28
   5   4 -10    4.82    0.34
   5   4 -10    5.55    0.30
   5   4 -10    5.80    0.35
   4   4 -10   19.72    0.94
   4   4 -10   20.50    0.91
   4   4 -10   19.70    1.10
   4   4 -10   18.10    1.05
   4   4 -10   19.12    0.91
   3   4 -10   70.92    3.22
   3   4 -10   70.97    3.36
   3   4 -10   72.15    3.68
   3   4 -10   67.57    3.22
   3   4 -10   68.62    3.92
   3   4 -10   69.23    3.89
   2   4 -10   32.40    1.89
   2   4 -10   31.73    1.59
   2   4 -10   32.94    1.96
   2   4 -10   34.13    1.91
   2   4 -10   31.43    1.52
   2   4 -10   34.55    1.74
   1   4 -10    0.23    0.18
   1   4 -10    0.12    0.17
   1   4 -10    0.17    0.07
   1   4 -10    0.05    0.10
   0   4 -10    1.30    0.13
   2  -4  10    5.91    0.40
   3  -4  10    2.37    0.18
   3  -4  10    2.42    0.23
   4  -4  10   -0.01    0.08
   4  -4  10    0.18    0.11
   4  -4  10    0.12    0.10
   4  -4  10    0.07    0.09
   5  -4  10    9.90    0.57
   5  -4  10    9.74    0.49
   5  -4  10    9.84    0.48
   6  -4  10    1.47    0.11
   6  -4  10    1.25    0.15
   8   3 -10    5.26    0.32
   8   3 -10    6.27    0.34
   8   3 -10    5.66    0.29
   7   3 -10    6.39    0.37
   7   3 -10    6.75    0.34
   7   3 -10    6.25    0.39
   6   3 -10    0.11    0.08
   6   3 -10    0.24    0.09
   6   3 -10    0.30    0.10
   5   3 -10    0.08    0.11
   5   3 -10    0.11    0.09
   5   3 -10    0.02    0.06
   5   3 -10   -0.11    0.09
   4   3 -10    0.16    0.09
   4   3 -10    0.09    0.12
   4   3 -10    0.27    0.14
   4   3 -10    0.12    0.06
   4   3 -10    0.18    0.10
   4   3 -10    0.01    0.08
   4   3 -10    0.26    0.09
   3   3 -10   86.83    4.77
   3   3 -10   93.39    4.36
   3   3 -10   96.07    5.07
   3   3 -10   86.20    4.18
   3   3 -10   91.25    4.17
   2   3 -10    0.16    0.08
   2   3 -10    0.00    0.07
   2   3 -10    0.13    0.16
   2   3 -10    0.00    0.08
   2   3 -10   -0.03    0.18
   1   3 -10    1.93    0.27
   1   3 -10    1.64    0.17
   0   3 -10    5.63    0.36
   2  -3  10   12.18    0.74
   3  -3  10    0.24    0.13
   3  -3  10    0.24    0.11
   4  -3  10    4.78    0.30
   4  -3  10    4.34    0.30
   4  -3  10    4.77    0.27
   5  -3  10    0.74    0.14
   5  -3  10    0.63    0.10
   5  -3  10    0.63    0.08
   6  -3  10    0.07    0.07
   6  -3  10    0.05    0.08
   8   2 -10    2.02    0.16
   8   2 -10    1.75    0.14
   7   2 -10    0.22    0.07
   7   2 -10    0.21    0.08
   7   2 -10    0.25    0.11
   6   2 -10    3.27    0.23
   6   2 -10    2.93    0.16
   6   2 -10    3.24    0.24
   6   2 -10    3.72    0.22
   5   2 -10    1.61    0.15
   5   2 -10    1.56    0.12
   5   2 -10    1.47    0.15
   5   2 -10    1.65    0.13
   4   2 -10    1.58    0.12
   4   2 -10    1.74    0.12
   4   2 -10    1.44    0.18
   4   2 -10    1.22    0.15
   4   2 -10    1.39    0.20
   4   2 -10    1.65    0.14
   4   2 -10    1.64    0.15
   3   2 -10    0.13    0.07
   3   2 -10   -0.01    0.17
   3   2 -10    0.09    0.06
   3   2 -10    0.06    0.06
   3   2 -10    0.19    0.08
   2   2 -10    0.21    0.08
   2   2 -10    0.21    0.07
   2   2 -10    0.27    0.09
   2   2 -10    0.17    0.18
   2   2 -10    0.18    0.05
   2   2 -10    0.21    0.17
   1   2 -10    1.10    0.12
   1   2 -10    1.10    0.19
   1   2 -10    0.98    0.24
   1   2 -10    1.06    0.09
   0   2 -10    0.27    0.08
   2  -2  10    0.29    0.13
   3  -2  10   -0.05    0.11
   3  -2  10    0.13    0.11
   4  -2  10    1.46    0.12
   4  -2  10    1.42    0.14
   4  -2  10    1.48    0.17
   4  -2  10    1.24    0.14
   5  -2  10    0.42    0.11
   5  -2  10    0.32    0.07
   6  -2  10    0.40    0.07
   6  -2  10    0.45    0.09
   8   1 -10    1.87    0.14
   8   1 -10    2.21    0.17
   7   1 -10    0.01    0.09
   7   1 -10    0.22    0.11
   7   1 -10    0.11    0.11
   6   1 -10   11.31    0.54
   6   1 -10   11.50    0.57
   6   1 -10   11.44    0.67
   6   1 -10   12.02    0.70
   5   1 -10    0.89    0.10
   5   1 -10    1.16    0.10
   5   1 -10    1.05    0.14
   5   1 -10    1.06    0.10
   5   1 -10    1.33    0.14
   4   1 -10    0.22    0.09
   4   1 -10    0.22    0.08
   4   1 -10    0.14    0.10
   4   1 -10    0.18    0.08
   4   1 -10    0.28    0.13
   4   1 -10    0.07    0.15
   3   1 -10    0.39    0.19
   3   1 -10    0.42    0.09
   3   1 -10    0.33    0.07
   3   1 -10    0.45    0.16
   3   1 -10    0.44    0.08
   3   1 -10    0.46    0.08
   2   1 -10    2.80    0.23
   2   1 -10    3.26    0.31
   2   1 -10    3.39    0.30
   2   1 -10    2.67    0.18
   2   1 -10    3.08    0.17
   2   1 -10    2.93    0.18
   1   1 -10   28.75    1.57
   1   1 -10   28.42    1.63
   1   1 -10   26.58    1.57
   1   1 -10   24.53    1.30
   0   1 -10   15.68    0.93
   2  -1  10   11.72    0.72
   3  -1  10    0.45    0.11
   3  -1  10    0.50    0.13
   3  -1  10    0.35    0.13
   4  -1  10    1.99    0.20
   4  -1  10    1.49    0.13
   4  -1  10    1.53    0.16
   4  -1  10    1.53    0.13
   4  -1  10    1.36    0.18
   5  -1  10    0.10    0.11
   5  -1  10    0.17    0.09
   5  -1  10    0.13    0.12
   5  -1  10    0.12    0.07
   6  -1  10   -0.08    0.06
   6  -1  10    0.02    0.07
   6  -1  10    0.05    0.09
   8   0 -10    3.42    0.23
   8   0 -10    3.19    0.22
   8   0 -10    3.00    0.18
   7   0 -10    3.42    0.21
   7   0 -10    3.56    0.26
   7   0 -10    3.28    0.25
   6   0 -10   10.49    0.63
   6   0 -10    9.91    0.50
   6   0 -10   10.53    0.61
   6   0 -10   10.29    0.49
   5   0 -10   -0.03    0.11
   5   0 -10    0.00    0.08
   5   0 -10   -0.04    0.12
   5   0 -10    0.01    0.08
   4   0 -10    0.28    0.09
   4   0 -10    0.26    0.11
   4   0 -10    0.21    0.17
   4   0 -10    0.25    0.16
   4   0 -10    0.29    0.09
   4   0 -10    0.53    0.12
   4   0 -10    0.37    0.08
   3   0 -10    0.36    0.08
   3   0 -10    0.39    0.08
   3   0 -10    0.26    0.09
   3   0 -10    0.45    0.08
   3   0 -10    0.47    0.21
   3   0 -10    0.25    0.20
   2   0 -10   13.90    0.70
   2   0 -10   14.94    0.87
   2   0 -10   12.89    0.67
   2   0 -10   14.56    0.90
   2   0 -10   14.39    0.84
   1   0 -10    7.32    0.50
   1   0 -10    6.57    0.44
   1   0 -10    6.79    0.50
   0   0 -10    0.34    0.11
   1   0  10    2.88    0.25
   2   0  10    1.89    0.18
   3   0  10    0.87    0.13
   3   0  10    1.07    0.12
   3   0  10    0.89    0.16
   4   0  10    1.37    0.17
   4   0  10    1.26    0.15
   4   0  10    1.48    0.15
   4   0  10    1.29    0.12
   5   0  10    0.60    0.11
   5   0  10    0.74    0.14
   5   0  10    1.01    0.09
   5   0  10    0.85    0.10
   6   0  10    0.11    0.09
   8  -1 -10    7.23    0.41
   8  -1 -10    6.53    0.42
   7  -1 -10   10.32    0.50
   7  -1 -10   10.00    0.61
   7  -1 -10   10.82    0.62
   6  -1 -10   -0.04    0.09
   6  -1 -10    0.02    0.11
   6  -1 -10   -0.02    0.07
   6  -1 -10   -0.12    0.08
   5  -1 -10    2.42    0.14
   5  -1 -10    2.26    0.20
   5  -1 -10    2.26    0.16
   5  -1 -10    2.48    0.17
   5  -1 -10    2.24    0.20
   4  -1 -10   -0.13    0.09
   4  -1 -10   -0.09    0.08
   4  -1 -10    0.14    0.10
   4  -1 -10   -0.05    0.08
   3  -1 -10   13.05    0.61
   3  -1 -10   11.66    0.76
   3  -1 -10   11.79    0.58
   3  -1 -10   12.38    0.72
   3  -1 -10   11.53    0.79
   2  -1 -10   12.03    0.78
   2  -1 -10   11.82    0.80
   2  -1 -10   11.82    0.61
   2  -1 -10   12.84    0.74
   1  -1 -10    0.08    0.11
   1   1  10    9.74    0.61
   2   1  10    2.83    0.24
   2   1  10    2.09    0.17
   3   1  10    0.97    0.17
   3   1  10    1.14    0.13
   3   1  10    0.97    0.14
   4   1  10    1.80    0.15
   4   1  10    1.76    0.23
   4   1  10    1.72    0.15
   5   1  10    0.48    0.13
   5   1  10    0.63    0.09
   5   1  10    0.75    0.06
   6   1  10    0.04    0.08
   8  -2 -10    3.70    0.23
   7  -2 -10    2.32    0.14
   7  -2 -10    2.60    0.19
   7  -2 -10    2.32    0.18
   6  -2 -10    1.75    0.14
   6  -2 -10    2.00    0.13
   6  -2 -10    1.68    0.18
   5  -2 -10    7.52    0.49
   5  -2 -10    8.40    0.41
   5  -2 -10    8.49    0.41
   5  -2 -10    8.42    0.41
   4  -2 -10    4.58    0.33
   4  -2 -10    5.92    0.28
   4  -2 -10    5.12    0.29
   4  -2 -10    5.24    0.29
   3  -2 -10    2.59    0.18
   3  -2 -10    2.35    0.21
   3  -2 -10    2.45    0.18
   2  -2 -10    1.48    0.13
   2  -2 -10    1.44    0.15
   1  -2 -10    2.05    0.21
   0  -2 -10    8.57    0.54
   1   2  10   -0.01    0.12
   2   2  10    1.58    0.17
   2   2  10    1.63    0.17
   3   2  10   -0.04    0.12
   3   2  10    0.02    0.09
   3   2  10   -0.05    0.10
   4   2  10    0.15    0.09
   4   2  10    0.16    0.07
   4   2  10    0.01    0.13
   5   2  10    0.02    0.09
   5   2  10    0.10    0.07
   7  -3 -10    0.20    0.08
   6  -3 -10    4.35    0.23
   6  -3 -10    4.58    0.23
   6  -3 -10    4.49    0.29
   5  -3 -10    9.81    0.47
   5  -3 -10    8.71    0.56
   5  -3 -10   10.14    0.47
   5  -3 -10    9.83    0.47
   4  -3 -10    0.06    0.08
   4  -3 -10   -0.06    0.10
   4  -3 -10   -0.07    0.08
   4  -3 -10    0.05    0.06
   3  -3 -10    0.16    0.09
   3  -3 -10   -0.02    0.08
   3  -3 -10    0.06    0.10
   2  -3 -10    1.17    0.14
   2  -3 -10    1.23    0.12
   1  -3 -10    0.21    0.12
   0  -3 -10    6.73    0.41
   0   3  10    5.51    0.42
   1   3  10    0.00    0.13
   2   3  10    2.58    0.21
   2   3  10    2.59    0.20
   3   3  10    0.34    0.09
   3   3  10    0.38    0.12
   4   3  10    0.41    0.08
   4   3  10    0.50    0.12
   4   3  10    0.46    0.06
   6  -4 -10    0.44    0.08
   6  -4 -10    0.45    0.06
   5  -4 -10    0.13    0.07
   5  -4 -10    0.23    0.05
   5  -4 -10    0.11    0.08
   5  -4 -10    0.12    0.04
   4  -4 -10    0.06    0.07
   4  -4 -10    0.06    0.08
   4  -4 -10    0.06    0.07
   4  -4 -10   -0.02    0.05
   3  -4 -10   -0.10    0.07
   3  -4 -10   -0.06    0.08
   2  -4 -10    0.25    0.09
   2  -4 -10    0.42    0.09
   1  -4 -10    2.18    0.22
   0  -4 -10    0.59    0.12
   0   4  10    0.43    0.14
   1   4  10   -0.01    0.12
   2   4  10   -0.02    0.09
   2   4  10    0.04    0.14
   3   4  10    0.49    0.10
   3   4  10    0.34    0.07
   5  -5 -10    0.08    0.06
   5  -5 -10    0.12    0.05
   4  -5 -10    0.45    0.05
   4  -5 -10    0.52    0.06
   4  -5 -10    0.57    0.08
   3  -5 -10    4.79    0.25
   3  -5 -10    5.05    0.26
   2  -5 -10    0.15    0.07
   2  -5 -10    0.11    0.08
   1  -5 -10    0.23    0.09
  -1   5  10    0.26    0.12
   0  -5 -10    0.13    0.08
   0   5  10    0.06    0.10
   1   5  10    0.26    0.08
   1   5  10    0.36    0.09
   2   5  10    0.19    0.07
   2   5  10    0.37    0.10
   3  -6 -10    1.12    0.08
   2   9 -11    0.11    0.03
   2   9 -11    0.20    0.09
   1   9 -11    0.17    0.06
   1   9 -11    0.28    0.08
   0   9 -11    0.31    0.08
   0   9 -11    0.19    0.06
  -1   9 -11    0.09    0.06
  -1   9 -11    0.08    0.08
   1  -9  11    0.13    0.06
   4   8 -11    0.21    0.08
   4   8 -11    0.05    0.05
   3   8 -11    0.14    0.09
   3   8 -11   -0.05    0.07
   2   8 -11    1.83    0.14
   2   8 -11    2.25    0.21
   2   8 -11    2.04    0.14
   1   8 -11    1.58    0.19
   1   8 -11    1.37    0.13
   0   8 -11    0.87    0.11
   0   8 -11    0.87    0.09
  -1   8 -11   -0.03    0.09
   1  -8  11   -0.06    0.10
  -2   8 -11    1.12    0.13
   2  -8  11    1.26    0.14
  -3   8 -11    0.85    0.11
   3  -8  11    1.05    0.09
   3  -8  11    1.02    0.09
   6   7 -11    0.05    0.06
   5   7 -11    0.01    0.09
   5   7 -11   -0.02    0.04
   5   7 -11    0.03    0.08
   4   7 -11    0.31    0.07
   4   7 -11    0.40    0.08
   4   7 -11    0.39    0.12
   3   7 -11    0.41    0.08
   3   7 -11    0.82    0.14
   3   7 -11    0.52    0.10
   3   7 -11    0.39    0.07
   2   7 -11    5.67    0.33
   2   7 -11    5.78    0.41
   2   7 -11    5.76    0.30
   1   7 -11    0.89    0.11
   1   7 -11    0.98    0.11
   0   7 -11   -0.07    0.08
   0   7 -11   -0.21    0.09
  -1   7 -11   -0.12    0.09
   1  -7  11   -0.05    0.11
  -2   7 -11    0.90    0.12
   2  -7  11    0.89    0.13
   3  -7  11    1.71    0.14
   3  -7  11    1.95    0.16
   4  -7  11    0.11    0.06
   4  -7  11    0.04    0.06
   7   6 -11    0.09    0.07
   6   6 -11    0.08    0.10
   6   6 -11    0.06    0.05
   5   6 -11    0.05    0.11
   5   6 -11    0.05    0.05
   5   6 -11    0.08    0.09
   4   6 -11   -0.03    0.11
   4   6 -11   -0.04    0.08
   4   6 -11    0.04    0.09
   3   6 -11    2.74    0.25
   3   6 -11    2.76    0.17
   3   6 -11    2.87    0.18
   3   6 -11    2.89    0.22
   2   6 -11   15.90    0.77
   2   6 -11   14.98    0.91
   2   6 -11   15.76    0.97
   2   6 -11   15.47    0.73
   2   6 -11   15.48    0.84
   1   6 -11    0.38    0.09
   1   6 -11    0.62    0.12
   1   6 -11    0.71    0.10
   0   6 -11    0.22    0.10
   0   6 -11    0.18    0.06
  -1   6 -11    8.17    0.51
   2  -6  11    0.61    0.13
   3  -6  11    0.18    0.10
   3  -6  11    0.16    0.08
   4  -6  11    0.10    0.08
   4  -6  11    0.14    0.08
   4  -6  11    0.17    0.08
   5  -6  11    0.71    0.07
   5  -6  11    0.66    0.07
   7   5 -11   -0.01    0.05
   7   5 -11    0.11    0.08
   6   5 -11    0.54    0.08
   6   5 -11    0.46    0.10
   5   5 -11    0.00    0.07
   5   5 -11    0.03    0.06
   5   5 -11   -0.02    0.10
   4   5 -11    0.87    0.09
   4   5 -11    1.20    0.15
   4   5 -11    1.02    0.09
   4   5 -11    0.93    0.09
   3   5 -11    4.76    0.26
   3   5 -11    4.52    0.26
   3   5 -11    4.90    0.30
   2   5 -11   -0.04    0.07
   2   5 -11   -0.02    0.09
   2   5 -11    0.00    0.08
   2   5 -11    0.11    0.08
   1   5 -11    1.07    0.13
   1   5 -11    1.14    0.11
   1   5 -11    1.18    0.11
   0   5 -11    8.36    0.52
  -1   5 -11    3.84    0.30
   2  -5  11    0.69    0.14
   3  -5  11    0.07    0.12
   3  -5  11    0.11    0.09
   3  -5  11    0.13    0.11
   4  -5  11    0.04    0.11
   4  -5  11    0.02    0.07
   4  -5  11   -0.01    0.06
   5  -5  11    0.04    0.09
   5  -5  11    0.20    0.05
   5  -5  11    0.32    0.07
   8   4 -11    0.24    0.06
   7   4 -11    3.02    0.17
   7   4 -11    2.85    0.20
   6   4 -11    4.02    0.23
   6   4 -11    3.75    0.26
   6   4 -11    4.14    0.26
   5   4 -11   25.84    1.13
   5   4 -11   24.81    1.37
   5   4 -11   24.21    1.13
   5   4 -11   22.18    1.30
   4   4 -11    2.28    0.20
   4   4 -11    2.27    0.19
   4   4 -11    2.40    0.17
   4   4 -11    2.58    0.16
   4   4 -11    2.40    0.15
   3   4 -11    5.12    0.32
   3   4 -11    4.77    0.27
   3   4 -11    5.21    0.28
   3   4 -11    5.63    0.28
   2   4 -11    6.00    0.33
   2   4 -11    5.94    0.45
   2   4 -11    6.58    0.37
   2   4 -11    6.08    0.39
   2   4 -11    5.96    0.31
   1   4 -11    6.70    0.54
   1   4 -11    7.11    0.52
   1   4 -11    7.08    0.38
   1   4 -11    7.68    0.46
   0   4 -11    0.09    0.09
  -1   4 -11    0.13    0.10
   2  -4  11    0.73    0.14
   3  -4  11    2.48    0.19
   3  -4  11    2.92    0.23
   4  -4  11    0.25    0.07
   4  -4  11    0.34    0.13
   4  -4  11    0.37    0.09
   5  -4  11    1.97    0.12
   5  -4  11    1.47    0.18
   5  -4  11    1.87    0.14
   6  -4  11    2.22    0.12
   6  -4  11    1.95    0.16
   8   3 -11    0.32    0.07
   7   3 -11    6.86    0.34
   7   3 -11    6.65    0.38
   7   3 -11    6.54    0.40
   6   3 -11   11.36    0.67
   6   3 -11   12.28    0.65
   6   3 -11   11.49    0.56
   5   3 -11    2.36    0.15
   5   3 -11    2.23    0.17
   5   3 -11    2.26    0.19
   5   3 -11    2.41    0.18
   4   3 -11   10.53    0.64
   4   3 -11   11.78    0.53
   4   3 -11   11.37    0.55
   4   3 -11   10.81    0.62
   4   3 -11   10.86    0.53
   3   3 -11   21.23    1.14
   3   3 -11   20.52    1.00
   3   3 -11   21.30    1.25
   3   3 -11   21.33    1.00
   3   3 -11   22.38    1.04
   2   3 -11   59.45    3.68
   2   3 -11   61.47    3.56
   2   3 -11   62.33    2.92
   2   3 -11   68.22    3.66
   2   3 -11   64.10    3.04
   1   3 -11    1.58    0.15
   1   3 -11    1.58    0.25
   1   3 -11    1.82    0.13
   1   3 -11    1.52    0.27
   0   3 -11    0.79    0.11
   2  -3  11    5.14    0.38
   3  -3  11    2.65    0.19
   3  -3  11    2.75    0.24
   4  -3  11    0.03    0.06
   4  -3  11    0.12    0.10
   4  -3  11    0.07    0.10
   5  -3  11    0.84    0.13
   5  -3  11    0.62    0.08
   5  -3  11    0.76    0.10
   6  -3  11    1.72    0.11
   6  -3  11    1.78    0.15
   8   2 -11    0.93    0.09
   8   2 -11    1.05    0.11
   7   2 -11   11.09    0.54
   7   2 -11   11.41    0.65
   6   2 -11    0.50    0.10
   6   2 -11    0.42    0.05
   6   2 -11    0.41    0.09
   6   2 -11    0.40    0.09
   5   2 -11    2.76    0.17
   5   2 -11    2.50    0.21
   5   2 -11    2.72    0.20
   5   2 -11    2.79    0.19
   4   2 -11    2.73    0.17
   4   2 -11    2.64    0.17
   4   2 -11    2.39    0.20
   4   2 -11    2.87    0.19
   4   2 -11    2.92    0.20
   3   2 -11    2.10    0.16
   3   2 -11    1.89    0.26
   3   2 -11    2.08    0.18
   3   2 -11    1.92    0.16
   2   2 -11   51.71    2.54
   2   2 -11   54.74    2.65
   2   2 -11   54.08    2.54
   2   2 -11   56.83    3.11
   2   2 -11   53.70    3.21
   2   2 -11   58.60    3.18
   1   2 -11    0.08    0.07
   1   2 -11    0.23    0.18
   1   2 -11    0.06    0.15
   1   2 -11   -0.04    0.10
   0   2 -11    2.14    0.21
   1  -2  11    7.45    0.49
   2  -2  11    6.84    0.45
   3  -2  11    5.93    0.33
   3  -2  11    6.22    0.40
   4  -2  11    0.09    0.09
   4  -2  11    0.07    0.13
   4  -2  11    0.11    0.08
   4  -2  11    0.14    0.06
   5  -2  11    1.49    0.14
   5  -2  11    1.38    0.11
   6  -2  11    0.04    0.05
   6  -2  11    0.05    0.08
   8   1 -11    3.72    0.21
   8   1 -11    4.26    0.25
   7   1 -11    0.02    0.08
   7   1 -11    0.06    0.08
   6   1 -11    0.07    0.05
   6   1 -11    0.06    0.09
   6   1 -11    0.30    0.11
   5   1 -11    3.98    0.23
   5   1 -11    3.41    0.26
   5   1 -11    3.94    0.22
   5   1 -11    3.81    0.24
   4   1 -11    0.21    0.08
   4   1 -11    0.19    0.09
   4   1 -11    0.20    0.08
   4   1 -11    0.26    0.07
   3   1 -11    0.16    0.19
   3   1 -11    0.24    0.09
   3   1 -11    0.29    0.08
   3   1 -11    0.40    0.19
   3   1 -11    0.13    0.07
   3   1 -11    0.29    0.09
   2   1 -11    9.94    0.69
   2   1 -11   10.14    0.66
   2   1 -11    9.70    0.49
   2   1 -11   10.34    0.62
   2   1 -11   10.15    0.51
   2   1 -11   10.29    0.49
   1   1 -11    5.04    0.28
   1   1 -11    5.20    0.33
   1   1 -11    4.73    0.25
   1   1 -11    4.82    0.43
   0   1 -11    1.62    0.19
   2  -1  11    7.65    0.50
   3  -1  11    0.09    0.10
   3  -1  11    0.05    0.11
   4  -1  11    0.36    0.12
   4  -1  11    0.28    0.09
   4  -1  11    0.45    0.10
   4  -1  11    0.33    0.12
   5  -1  11    0.55    0.09
   5  -1  11    0.62    0.09
   5  -1  11    0.52    0.06
   6  -1  11    0.07    0.05
   8   0 -11    0.40    0.05
   8   0 -11    0.49    0.08
   7   0 -11    1.35    0.13
   7   0 -11    1.52    0.15
   6   0 -11    0.39    0.07
   6   0 -11    0.55    0.11
   6   0 -11    0.57    0.13
   6   0 -11    0.36    0.10
   5   0 -11   28.29    1.34
   5   0 -11   29.04    1.33
   4   0 -11    0.67    0.09
   4   0 -11    0.42    0.10
   4   0 -11    0.54    0.09
   4   0 -11    0.84    0.10
   3   0 -11    1.55    0.12
   3   0 -11    1.34    0.15
   3   0 -11    1.31    0.13
   3   0 -11    1.41    0.14
   3   0 -11    1.28    0.24
   2   0 -11    0.28    0.20
   2   0 -11    0.42    0.09
   2   0 -11    0.39    0.10
   2   0 -11    0.23    0.21
   1   0 -11    3.70    0.29
   0   0 -11    8.21    0.52
   1   0  11    0.94    0.15
   2   0  11    2.53    0.25
   2   0  11    1.93    0.24
   2   0  11    2.17    0.19
   3   0  11    3.40    0.21
   3   0  11    2.74    0.28
   3   0  11    3.47    0.25
   4   0  11    1.07    0.12
   4   0  11    1.07    0.13
   4   0  11    1.24    0.12
   4   0  11    0.94    0.14
   5   0  11    0.84    0.07
   5   0  11    0.63    0.12
   5   0  11    0.79    0.09
   8  -1 -11    0.06    0.06
   7  -1 -11    2.78    0.16
   7  -1 -11    2.58    0.19
   6  -1 -11    6.62    0.41
   6  -1 -11    7.59    0.35
   6  -1 -11    6.95    0.34
   6  -1 -11    6.64    0.43
   5  -1 -11    9.01    0.56
   5  -1 -11    9.98    0.47
   5  -1 -11    9.86    0.47
   4  -1 -11    1.82    0.16
   4  -1 -11    1.80    0.16
   4  -1 -11    2.04    0.17
   3  -1 -11    3.37    0.23
   3  -1 -11    3.21    0.22
   3  -1 -11    3.31    0.20
   3  -1 -11    3.05    0.20
   2  -1 -11   10.26    0.54
   2  -1 -11   10.87    0.65
   1  -1 -11    3.71    0.30
   0  -1 -11    0.32    0.12
   1   1  11   -0.09    0.13
   2   1  11    1.42    0.14
   3   1  11    0.63    0.10
   3   1  11    0.69    0.13
   3   1  11    0.88    0.10
   4   1  11    0.15    0.08
   4   1  11    0.13    0.09
   4   1  11    0.07    0.12
   5   1  11    0.04    0.09
   5   1  11    0.02    0.07
   7  -2 -11    3.99    0.25
   7  -2 -11    4.15    0.21
   6  -2 -11    4.04    0.28
   6  -2 -11    4.69    0.23
   5  -2 -11    0.66    0.10
   5  -2 -11    0.51    0.07
   5  -2 -11    0.56    0.10
   5  -2 -11    0.50    0.06
   4  -2 -11    2.55    0.17
   4  -2 -11    2.24    0.17
   4  -2 -11    2.19    0.16
   3  -2 -11    5.72    0.29
   3  -2 -11    5.52    0.35
   3  -2 -11    5.17    0.29
   3  -2 -11    5.54    0.30
   2  -2 -11    5.57    0.32
   2  -2 -11    6.04    0.39
   1  -2 -11    1.37    0.14
   0  -2 -11    1.96    0.21
   0   2  11    1.67    0.17
   1   2  11    1.17    0.15
   2   2  11    2.03    0.17
   3   2  11    0.35    0.08
   3   2  11    0.36    0.11
   4   2  11    0.21    0.07
   4   2  11    0.21    0.07
   4   2  11    0.19    0.11
   6  -3 -11    0.59    0.08
   6  -3 -11    0.54    0.06
   6  -3 -11    0.52    0.06
   5  -3 -11    0.78    0.10
   5  -3 -11    0.74    0.06
   5  -3 -11    0.97    0.08
   5  -3 -11    0.69    0.09
   4  -3 -11    2.46    0.17
   4  -3 -11    2.21    0.17
   4  -3 -11    2.51    0.16
   3  -3 -11    0.10    0.06
   3  -3 -11    0.05    0.07
   3  -3 -11    0.13    0.08
   2  -3 -11    1.73    0.18
   2  -3 -11    1.65    0.16
   1  -3 -11    4.76    0.34
   0  -3 -11    0.02    0.12
   0   3  11    0.13    0.12
   1   3  11    5.40    0.37
   2   3  11    0.14    0.11
   2   3  11    0.01    0.09
   2   3  11    0.01    0.09
   3   3  11    0.34    0.12
   3   3  11    0.30    0.08
   4   3  11   -0.02    0.07
   6  -4 -11    2.02    0.11
   5  -4 -11    1.77    0.11
   5  -4 -11    1.91    0.12
   4  -4 -11    0.45    0.07
   4  -4 -11    0.29    0.05
   4  -4 -11    0.38    0.06
   3  -4 -11    0.24    0.08
   3  -4 -11    0.18    0.06
   2  -4 -11    0.53    0.09
   2  -4 -11    0.45    0.09
   1  -4 -11    0.16    0.10
  -1   4  11   -0.12    0.11
   0  -4 -11    3.23    0.24
   0   4  11    3.05    0.26
   1   4  11    2.40    0.20
   2   4  11   -0.04    0.11
   2   4  11   -0.05    0.07
   3  -5 -11   -0.07    0.05
   3  -5 -11    0.02    0.04
   2  -5 -11    0.24    0.04
   2  -5 -11    0.24    0.06
   2  -5 -11    0.25    0.05
   1  -5 -11   -0.02    0.06
  -1   5  11   -0.08    0.09
   0  -5 -11   -0.09    0.07
   0   5  11   -0.03    0.07
   1   5  11    0.07    0.09
   1   9 -12    0.12    0.06
   1   9 -12    0.11    0.04
   0   9 -12    0.23    0.06
   4   8 -12    0.26    0.05
   3   8 -12    0.36    0.06
   3   8 -12    0.32    0.10
   2   8 -12    0.27    0.06
   2   8 -12    0.24    0.07
   2   8 -12    0.59    0.11
   1   8 -12    0.03    0.07
   1   8 -12    0.13    0.11
   0   8 -12    2.50    0.18
   0   8 -12    2.21    0.16
  -1   8 -12    1.27    0.13
   1  -8  12    1.08    0.13
  -2   8 -12    0.43    0.08
   2  -8  12    0.40    0.08
   5   7 -12    0.44    0.07
   4   7 -12   -0.02    0.10
   4   7 -12   -0.02    0.07
   4   7 -12   -0.01    0.06
   3   7 -12    1.88    0.18
   3   7 -12    1.71    0.14
   3   7 -12    1.74    0.14
   3   7 -12    1.80    0.12
   2   7 -12   -0.05    0.08
   2   7 -12   -0.09    0.06
   2   7 -12   -0.06    0.07
   2   7 -12   -0.02    0.12
   1   7 -12    5.45    0.34
   1   7 -12    5.36    0.29
   0   7 -12    2.63    0.21
   0   7 -12    2.43    0.17
  -1   7 -12    0.96    0.12
   1  -7  12    1.07    0.12
  -2   7 -12   -0.05    0.10
   2  -7  12    0.01    0.08
   3  -7  12    0.49    0.07
   3  -7  12    0.54    0.08
   4  -7  12    0.20    0.05
   6   6 -12    2.92    0.20
   5   6 -12    0.01    0.10
   5   6 -12    0.03    0.05
   4   6 -12    0.30    0.09
   4   6 -12    0.24    0.07
   3   6 -12    0.15    0.09
   3   6 -12    0.18    0.11
   3   6 -12    0.03    0.07
   3   6 -12   -0.07    0.08
   2   6 -12    1.80    0.17
   2   6 -12    1.59    0.15
   2   6 -12    1.66    0.19
   2   6 -12    1.50    0.15
   1   6 -12    6.79    0.37
   1   6 -12    7.47    0.44
   1   6 -12    6.70    0.40
   0   6 -12    1.14    0.14
   0   6 -12    1.29    0.12
  -1   6 -12    0.06    0.11
   1  -6  12   -0.03    0.12
  -2   6 -12    0.06    0.10
   2  -6  12    0.12    0.12
   3  -6  12    0.59    0.09
   3  -6  12    0.64    0.09
   4  -6  12    0.65    0.07
   7   5 -12    0.30    0.05
   7   5 -12    0.39    0.07
   6   5 -12   -0.02    0.09
   6   5 -12    0.03    0.06
   5   5 -12    0.73    0.11
   5   5 -12    0.60    0.07
   5   5 -12    0.73    0.08
   4   5 -12    3.77    0.21
   4   5 -12    3.69    0.27
   3   5 -12    2.62    0.17
   3   5 -12    2.74    0.21
   3   5 -12    2.75    0.18
   2   5 -12    4.80    0.28
   2   5 -12    4.38    0.25
   2   5 -12    4.74    0.26
   2   5 -12    4.37    0.30
   1   5 -12    0.10    0.08
   1   5 -12    0.07    0.10
   1   5 -12    0.08    0.07
   0   5 -12    9.86    0.61
  -1   5 -12    0.24    0.11
   1  -5  12    0.45    0.13
   2  -5  12    5.49    0.37
   3  -5  12    0.01    0.10
   3  -5  12   -0.07    0.10
   3  -5  12   -0.01    0.08
   4  -5  12    0.05    0.08
   4  -5  12    0.09    0.07
   5  -5  12    1.30    0.12
   5  -5  12    1.26    0.08
   7   4 -12    0.01    0.07
   7   4 -12   -0.02    0.07
   6   4 -12    0.55    0.10
   6   4 -12    0.44    0.08
   5   4 -12    4.26    0.24
   5   4 -12    3.95    0.30
   5   4 -12    4.66    0.23
   4   4 -12   13.80    0.78
   4   4 -12   14.29    0.69
   4   4 -12   15.15    0.68
   4   4 -12   13.87    0.68
   3   4 -12    5.63    0.34
   3   4 -12    5.73    0.30
   3   4 -12    5.64    0.30
   2   4 -12    0.92    0.10
   2   4 -12    0.65    0.11
   2   4 -12    0.96    0.10
   2   4 -12    0.77    0.10
   1   4 -12    1.04    0.11
   1   4 -12    1.11    0.12
   0   4 -12    3.17    0.24
  -1   4 -12   17.02    1.01
   2  -4  12    2.03    0.24
   3  -4  12    0.87    0.12
   3  -4  12    0.89    0.13
   4  -4  12    1.43    0.17
   4  -4  12    1.70    0.14
   5  -4  12    0.21    0.06
   5  -4  12    0.22    0.05
   5  -4  12    0.18    0.07
   7   3 -12    1.07    0.12
   7   3 -12    0.98    0.10
   7   3 -12    1.09    0.10
   6   3 -12    9.67    0.46
   6   3 -12    8.98    0.55
   6   3 -12    9.59    0.52
   5   3 -12    4.73    0.29
   5   3 -12    4.80    0.24
   5   3 -12    4.62    0.26
   5   3 -12    4.14    0.29
   4   3 -12   13.94    0.68
   4   3 -12   13.72    0.67
   4   3 -12   13.65    0.76
   4   3 -12   14.56    0.66
   3   3 -12   20.41    0.97
   3   3 -12   20.01    0.97
   3   3 -12   22.07    1.02
   3   3 -12   20.75    1.12
   2   3 -12   20.80    1.18
   2   3 -12   19.57    0.95
   2   3 -12   20.02    0.99
   1   3 -12    0.11    0.10
   1   3 -12    0.28    0.08
   0   3 -12    8.31    0.52
  -1   3 -12    2.27    0.21
   1  -3  12    2.01    0.24
   2  -3  12    0.19    0.14
   3  -3  12    3.92    0.25
   3  -3  12    4.16    0.29
   4  -3  12    0.88    0.12
   4  -3  12    0.90    0.09
   5  -3  12   -0.03    0.05
   5  -3  12   -0.12    0.09
   5  -3  12   -0.05    0.07
   8   2 -12    0.89    0.08
   8   2 -12    0.99    0.10
   7   2 -12    0.36    0.07
   7   2 -12    0.51    0.09
   6   2 -12    5.31    0.30
   6   2 -12    5.35    0.27
   6   2 -12    4.78    0.24
   6   2 -12    4.99    0.32
   5   2 -12    4.60    0.24
   5   2 -12    3.98    0.28
   5   2 -12    4.53    0.23
   5   2 -12    4.39    0.28
   4   2 -12    0.21    0.10
   4   2 -12    0.21    0.09
   4   2 -12    0.17    0.07
   4   2 -12    0.26    0.07
   3   2 -12    1.49    0.11
   3   2 -12    1.28    0.12
   3   2 -12    1.45    0.11
   3   2 -12    1.23    0.12
   2   2 -12    2.85    0.18
   2   2 -12    3.07    0.23
   2   2 -12    2.98    0.19
   2   2 -12    2.95    0.31
   2   2 -12    2.62    0.20
   1   2 -12   60.38    2.96
   1   2 -12   62.43    3.56
   0   2 -12    0.05    0.10
   1  -2  12    0.42    0.14
   2  -2  12    2.89    0.28
   3  -2  12    1.61    0.16
   3  -2  12    1.64    0.19
   4  -2  12    2.53    0.16
   4  -2  12    2.19    0.16
   4  -2  12    2.28    0.20
   5  -2  12    0.63    0.08
   5  -2  12    0.62    0.06
   5  -2  12    0.54    0.10
   8   1 -12    1.11    0.08
   8   1 -12    0.97    0.10
   7   1 -12    4.34    0.27
   7   1 -12    4.16    0.23
   6   1 -12    7.04    0.36
   6   1 -12    7.16    0.34
   6   1 -12    7.03    0.42
   5   1 -12   -0.08    0.09
   5   1 -12    0.06    0.09
   5   1 -12   -0.12    0.07
   4   1 -12    4.98    0.27
   4   1 -12    4.95    0.27
   4   1 -12    4.90    0.30
   4   1 -12    4.81    0.26
   3   1 -12    3.84    0.26
   3   1 -12    4.20    0.24
   3   1 -12    4.34    0.26
   3   1 -12    4.36    0.24
   3   1 -12    3.94    0.24
   2   1 -12    9.57    0.58
   2   1 -12    9.59    0.47
   2   1 -12    9.42    0.49
   1   1 -12   12.28    0.60
   1   1 -12   12.97    0.64
   1   1 -12   12.80    0.77
   0   1 -12    2.54    0.23
   1  -1  12    1.80    0.19
   2  -1  12    0.05    0.13
   3  -1  12    0.92    0.11
   3  -1  12    1.00    0.12
   4  -1  12    0.23    0.08
   4  -1  12    0.23    0.08
   4  -1  12    0.48    0.11
   5  -1  12    0.06    0.03
   5  -1  12    0.15    0.06
   7   0 -12    7.95    0.48
   7   0 -12    8.48    0.40
   6   0 -12    0.17    0.09
   6   0 -12    0.16    0.07
   6   0 -12    0.12    0.05
   5   0 -12    0.10    0.09
   5   0 -12    0.06    0.07
   5   0 -12    0.06    0.09
   4   0 -12    8.61    0.43
   4   0 -12    8.44    0.42
   4   0 -12    7.96    0.42
   3   0 -12    0.01    0.06
   3   0 -12    0.01    0.08
   3   0 -12    0.09    0.08
   3   0 -12    0.07    0.09
   2   0 -12    0.84    0.13
   2   0 -12    1.20    0.11
   2   0 -12    0.90    0.10
   1   0 -12    2.50    0.24
   0   0 -12    0.14    0.11
   2   0  12    0.41    0.13
   2   0  12    0.40    0.13
   2   0  12    0.18    0.10
   3   0  12    0.73    0.10
   3   0  12    0.96    0.11
   3   0  12    0.69    0.13
   4   0  12    1.95    0.14
   4   0  12    1.75    0.18
   4   0  12    2.17    0.14
   4   0  12    1.90    0.15
   5   0  12    0.04    0.05
   7  -1 -12    0.10    0.07
   7  -1 -12    0.06    0.06
   6  -1 -12    2.08    0.18
   6  -1 -12    2.86    0.15
   6  -1 -12    2.48    0.14
   5  -1 -12    1.63    0.13
   5  -1 -12    1.16    0.13
   5  -1 -12    1.47    0.12
   4  -1 -12   13.79    0.68
   4  -1 -12   13.75    0.66
   4  -1 -12   13.72    0.66
   3  -1 -12    2.00    0.16
   3  -1 -12    1.86    0.16
   3  -1 -12    2.15    0.15
   3  -1 -12    2.13    0.16
   2  -1 -12    5.87    0.34
   2  -1 -12    6.19    0.39
   1  -1 -12    0.51    0.12
   0  -1 -12    2.06    0.21
   1   1  12    2.60    0.23
   2   1  12    0.03    0.11
   2   1  12   -0.01    0.11
   2   1  12    0.12    0.13
   3   1  12    0.62    0.13
   3   1  12    0.82    0.10
   4   1  12    0.35    0.08
   4   1  12    0.18    0.05
   4   1  12    0.15    0.10
   6  -2 -12    3.36    0.24
   6  -2 -12    4.05    0.20
   6  -2 -12    4.42    0.20
   5  -2 -12   12.51    0.61
   5  -2 -12   13.21    0.61
   4  -2 -12    4.63    0.26
   4  -2 -12    4.86    0.25
   4  -2 -12    4.56    0.25
   3  -2 -12    2.72    0.19
   3  -2 -12    3.09    0.20
   3  -2 -12    2.86    0.17
   3  -2 -12    2.85    0.19
   2  -2 -12    0.57    0.10
   2  -2 -12    0.67    0.11
   1  -2 -12    0.59    0.12
   0  -2 -12    2.00    0.21
   0   2  12    1.60    0.21
   1   2  12    4.06    0.29
   2   2  12    0.23    0.10
   2   2  12    0.12    0.09
   2   2  12    0.11    0.13
   3   2  12    0.66    0.12
   3   2  12    0.44    0.08
   6  -3 -12    2.23    0.12
   5  -3 -12    1.86    0.12
   5  -3 -12    1.97    0.13
   4  -3 -12    0.10    0.06
   4  -3 -12   -0.01    0.06
   4  -3 -12   -0.06    0.06
   3  -3 -12    0.16    0.07
   3  -3 -12    0.00    0.08
   2  -3 -12    0.36    0.08
   2  -3 -12    0.53    0.09
   1  -3 -12    0.77    0.11
   0  -3 -12    0.33    0.11
   0   3  12    0.29    0.12
  -1  -3 -12    0.10    0.09
   2   3  12    0.84    0.10
   2   3  12    1.21    0.14
   3   3  12    0.02    0.05
   4  -4 -12    1.06    0.08
   4  -4 -12    1.02    0.09
   4  -4 -12    1.12    0.08
   3  -4 -12    1.98    0.13
   3  -4 -12    2.11    0.12
   2  -4 -12    0.10    0.05
   2  -4 -12    0.15    0.05
   2  -4 -12    0.21    0.06
   1  -4 -12    0.12    0.07
  -1   4  12    0.01    0.09
   0  -4 -12    0.01    0.08
   0   4  12    0.00    0.08
   1   4  12    0.16    0.06
   1   4  12    0.14    0.10
   3   8 -13    0.50    0.06
   2   8 -13    2.51    0.14
   2   8 -13    2.60    0.19
   2   8 -13    2.52    0.15
   1   8 -13    0.17    0.05
   1   8 -13    0.23    0.09
   0   8 -13    0.31    0.06
   0   8 -13    0.39    0.09
   1  -8  13    1.54    0.14
   4   7 -13    0.40    0.06
   4   7 -13    0.48    0.07
   3   7 -13    3.60    0.19
   3   7 -13    3.41    0.18
   3   7 -13    3.55    0.21
   2   7 -13    1.59    0.13
   2   7 -13    1.54    0.12
   2   7 -13    1.69    0.16
   1   7 -13    0.28    0.10
   1   7 -13    0.23    0.08
   0   7 -13    1.58    0.14
   0   7 -13    1.86    0.16
  -1   7 -13    3.51    0.23
   1  -7  13    2.83    0.24
  -2   7 -13    1.93    0.18
   2  -7  13    1.87    0.17
   6   6 -13    0.87    0.09
   5   6 -13    1.71    0.15
   5   6 -13    1.27    0.09
   4   6 -13    0.13    0.06
   4   6 -13    0.21    0.08
   3   6 -13    0.52    0.09
   3   6 -13    0.26    0.06
   3   6 -13    0.29    0.08
   2   6 -13    2.18    0.15
   2   6 -13    2.03    0.16
   2   6 -13    2.08    0.16
   1   6 -13    0.21    0.07
   1   6 -13    0.17    0.09
   1   6 -13    0.19    0.07
   0   6 -13    3.23    0.20
   0   6 -13    3.21    0.21
   0   6 -13    3.58    0.25
  -1   6 -13    0.70    0.12
  -1   6 -13    0.64    0.07
   1  -6  13    0.86    0.13
  -2   6 -13    0.18    0.09
   2  -6  13    0.19    0.10
   3  -6  13   -0.04    0.06
   3  -6  13    0.00    0.06
   4  -6  13    0.56    0.06
   6   5 -13    2.78    0.19
   6   5 -13    2.34    0.14
   5   5 -13    2.54    0.15
   5   5 -13    2.65    0.19
   4   5 -13    1.57    0.16
   4   5 -13    1.45    0.13
   3   5 -13    2.29    0.16
   3   5 -13    2.33    0.16
   3   5 -13    2.38    0.21
   2   5 -13    0.21    0.08
   2   5 -13    0.10    0.05
   2   5 -13    0.23    0.09
   2   5 -13    0.24    0.08
   1   5 -13    0.10    0.10
   1   5 -13    0.16    0.09
   1   5 -13    0.07    0.09
   0   5 -13    5.04    0.34
  -1   5 -13    1.76    0.19
   1  -5  13    1.83    0.21
  -2   5 -13    0.72    0.11
   2  -5  13    0.71    0.11
   3  -5  13    0.71    0.08
   3  -5  13    0.67    0.11
   3  -5  13    0.78    0.09
   4  -5  13    0.98    0.12
   7   4 -13    9.72    0.53
   7   4 -13    9.93    0.46
   6   4 -13    0.15    0.06
   6   4 -13    0.14    0.10
   5   4 -13    0.22    0.06
   5   4 -13    0.32    0.09
   5   4 -13    0.24    0.06
   4   4 -13   10.07    0.56
   4   4 -13    9.42    0.48
   4   4 -13    9.93    0.49
   4   4 -13   10.43    0.48
   3   4 -13    6.59    0.34
   3   4 -13    6.69    0.35
   3   4 -13    6.80    0.40
   2   4 -13    0.28    0.09
   2   4 -13    0.54    0.08
   2   4 -13    0.46    0.11
   2   4 -13    0.33    0.08
   1   4 -13    3.97    0.24
   1   4 -13    4.13    0.30
   0   4 -13    0.04    0.09
  -1   4 -13    1.88    0.19
   1  -4  13    1.88    0.19
   2  -4  13    1.00    0.13
   3  -4  13    0.57    0.10
   3  -4  13    0.55    0.09
   3  -4  13    0.59    0.09
   4  -4  13    0.56    0.06
   4  -4  13    0.55    0.09
   7   3 -13    5.40    0.27
   6   3 -13    3.33    0.22
   6   3 -13    3.27    0.19
   5   3 -13    0.58    0.11
   5   3 -13    0.47    0.07
   5   3 -13    0.47    0.09
   4   3 -13    2.74    0.17
   4   3 -13    2.45    0.20
   4   3 -13    2.57    0.15
   4   3 -13    2.71    0.17
   3   3 -13   34.09    1.78
   3   3 -13   32.02    1.55
   3   3 -13   33.12    1.55
   3   3 -13   34.38    1.62
   2   3 -13    3.12    0.23
   2   3 -13    3.03    0.20
   2   3 -13    2.73    0.20
   1   3 -13   -0.09    0.10
   1   3 -13   -0.05    0.09
   0   3 -13    1.13    0.14
  -1   3 -13   17.04    0.97
   1  -3  13   15.35    0.98
   2  -3  13    4.52    0.33
   3  -3  13    0.57    0.10
   3  -3  13    0.62    0.09
   4  -3  13    0.85    0.08
   4  -3  13    0.85    0.12
   5  -3  13    0.58    0.08
   7   2 -13    4.21    0.25
   7   2 -13    4.26    0.22
   6   2 -13    0.02    0.03
   6   2 -13    0.02    0.07
   6   2 -13    0.11    0.08
   5   2 -13    2.95    0.17
   5   2 -13    3.00    0.19
   5   2 -13    2.81    0.19
   4   2 -13    4.46    0.25
   4   2 -13    4.48    0.24
   4   2 -13    4.62    0.28
   4   2 -13    4.43    0.24
   3   2 -13   12.09    0.63
   3   2 -13   11.25    0.55
   3   2 -13   11.70    0.57
   3   2 -13   10.68    0.55
   2   2 -13   19.12    1.10
   2   2 -13   17.86    0.87
   2   2 -13   18.98    0.88
   1   2 -13   19.32    1.11
   1   2 -13   18.14    0.92
   0   2 -13   14.30    0.86
  -1   2 -13    6.02    0.40
   1  -2  13    5.67    0.40
   2  -2  13    3.66    0.29
   3  -2  13    0.08    0.09
   3  -2  13    0.09    0.08
   4  -2  13    1.55    0.15
   4  -2  13    1.79    0.12
   7   1 -13   -0.07    0.06
   7   1 -13    0.00    0.05
   6   1 -13    1.68    0.10
   6   1 -13    1.77    0.13
   5   1 -13   13.76    0.63
   5   1 -13   12.99    0.64
   4   1 -13    2.28    0.17
   4   1 -13    2.29    0.15
   4   1 -13    2.06    0.16
   4   1 -13    2.20    0.17
   3   1 -13    3.21    0.19
   3   1 -13    3.31    0.21
   3   1 -13    3.02    0.20
   3   1 -13    3.23    0.20
   2   1 -13    0.11    0.09
   2   1 -13   -0.03    0.06
   2   1 -13   -0.09    0.09
   1   1 -13    0.44    0.09
   1   1 -13    0.30    0.11
   1   1 -13    0.36    0.07
   0   1 -13   20.65    1.22
  -1   1 -13    0.11    0.10
   1  -1  13    0.20    0.15
   2  -1  13    0.85    0.14
   3  -1  13    0.09    0.10
   3  -1  13    0.03    0.07
   4  -1  13    0.57    0.07
   4  -1  13    0.37    0.09
   7   0 -13    1.10    0.10
   6   0 -13    8.46    0.40
   5   0 -13    0.95    0.10
   5   0 -13    1.03    0.10
   4   0 -13    1.12    0.10
   4   0 -13    0.98    0.11
   3   0 -13    3.01    0.20
   3   0 -13    3.38    0.21
   3   0 -13    3.00    0.19
   2   0 -13    0.15    0.10
   2   0 -13    0.08    0.09
   2   0 -13    0.16    0.08
   1   0 -13    0.03    0.07
   1   0 -13   -0.06    0.09
   1   0 -13   -0.04    0.11
   0   0 -13    0.07    0.11
  -1   0 -13    0.54    0.11
   1   0  13    0.71    0.16
   2   0  13    0.09    0.09
   2   0  13   -0.02    0.10
   3   0  13    0.19    0.09
   3   0  13    0.19    0.09
   6  -1 -13    1.67    0.12
   6  -1 -13    1.69    0.10
   5  -1 -13    1.36    0.11
   5  -1 -13    1.29    0.13
   4  -1 -13    0.20    0.07
   4  -1 -13    0.17    0.08
   4  -1 -13    0.20    0.09
   3  -1 -13   17.85    0.86
   3  -1 -13   18.23    0.83
   3  -1 -13   16.51    0.83
   2  -1 -13    0.65    0.10
   2  -1 -13    0.56    0.07
   2  -1 -13    0.67    0.10
   1  -1 -13    0.09    0.10
   0  -1 -13    0.10    0.09
   0   1  13    0.00    0.13
  -1  -1 -13    1.30    0.15
   1   1  13    0.86    0.15
   1   1  13    0.90    0.14
   2   1  13    3.42    0.27
   2   1  13    3.59    0.25
   2   1  13    3.55    0.22
   3   1  13    0.04    0.06
   3   1  13    0.00    0.09
   6  -2 -13    0.17    0.05
   6  -2 -13    0.09    0.04
   5  -2 -13    1.25    0.11
   5  -2 -13    1.31    0.11
   4  -2 -13    4.62    0.24
   4  -2 -13    4.80    0.25
   4  -2 -13    4.74    0.24
   3  -2 -13   13.18    0.63
   2  -2 -13    0.66    0.09
   2  -2 -13    0.51    0.08
   2  -2 -13    0.68    0.08
   1  -2 -13   -0.05    0.09
   0  -2 -13   -0.08    0.08
   0   2  13    0.05    0.11
  -1  -2 -13    2.67    0.20
   1   2  13    2.31    0.21
   1   2  13    2.24    0.20
   2   2  13    0.11    0.10
   2   2  13    0.07    0.06
   2   2  13    0.18    0.08
   5  -3 -13    2.77    0.14
   4  -3 -13    4.07    0.20
   4  -3 -13    3.90    0.21
   3  -3 -13    0.22    0.06
   3  -3 -13    0.27    0.05
   2  -3 -13    0.06    0.04
   2  -3 -13    0.12    0.06
   2  -3 -13    0.18    0.05
   1  -3 -13    0.17    0.06
  -1   3  13    0.15    0.11
   0  -3 -13    0.67    0.09
  -1  -3 -13    0.23    0.07
   1   3  13    0.20    0.07
   1   3  13    0.23    0.10
   2  -4 -13    0.29    0.04
   1  -4 -13    0.11    0.03
   1   8 -14    0.75    0.07
   3   7 -14    0.28    0.06
   3   7 -14    0.46    0.06
   2   7 -14    1.68    0.11
   2   7 -14    1.56    0.11
   2   7 -14    1.48    0.13
   1   7 -14    0.32    0.07
   0   7 -14    0.11    0.06
   0   7 -14    0.29    0.06
   0   7 -14    0.09    0.07
  -1   7 -14   -0.02    0.07
   1  -7  14   -0.08    0.08
  -2   7 -14    0.92    0.11
   2  -7  14    0.87    0.10
   5   6 -14    0.38    0.07
   4   6 -14    0.71    0.09
   4   6 -14    0.60    0.07
   3   6 -14    1.88    0.12
   3   6 -14    2.20    0.15
   3   6 -14    1.73    0.14
   2   6 -14    0.52    0.09
   2   6 -14    0.48    0.07
   2   6 -14    0.51    0.08
   1   6 -14    0.06    0.06
   1   6 -14    0.01    0.06
   1   6 -14    0.10    0.08
   0   6 -14   -0.11    0.08
   0   6 -14    0.03    0.07
   0   6 -14    0.03    0.08
  -1   6 -14    1.85    0.17
   1  -6  14    1.74    0.19
  -2   6 -14    1.76    0.17
   2  -6  14    1.69    0.15
   6   5 -14    0.00    0.07
   5   5 -14    1.90    0.15
   5   5 -14    1.92    0.11
   4   5 -14    6.19    0.35
   4   5 -14    5.81    0.30
   3   5 -14    0.03    0.08
   3   5 -14   -0.01    0.06
   3   5 -14    0.06    0.07
   2   5 -14   -0.02    0.09
   2   5 -14    0.09    0.07
   2   5 -14   -0.04    0.07
   1   5 -14    0.01    0.07
   1   5 -14    0.04    0.08
   1   5 -14    0.01    0.08
   0   5 -14    1.67    0.17
   0   5 -14    1.29    0.13
  -1   5 -14    8.32    0.49
   1  -5  14    7.47    0.49
  -2   5 -14    0.06    0.09
   2  -5  14    0.08    0.09
   2  -5  14    0.04    0.09
   3  -5  14    0.06    0.05
   3  -5  14   -0.08    0.07
   3  -5  14    0.07    0.06
   6   4 -14    8.63    0.45
   6   4 -14    7.66    0.39
   5   4 -14   15.26    0.80
   5   4 -14   13.71    0.69
   5   4 -14   15.39    0.69
   4   4 -14    1.81    0.17
   4   4 -14    1.85    0.14
   3   4 -14    2.53    0.21
   3   4 -14    2.48    0.16
   3   4 -14    2.27    0.17
   2   4 -14    0.74    0.10
   2   4 -14    0.67    0.08
   2   4 -14    0.89    0.10
   2   4 -14    0.83    0.11
   1   4 -14    0.05    0.09
   1   4 -14    0.00    0.09
   0   4 -14    5.49    0.36
  -1   4 -14    2.87    0.23
   1  -4  14    2.63    0.24
  -2   4 -14    3.67    0.26
   2  -4  14    3.74    0.27
   3  -4  14    0.22    0.08
   3  -4  14    0.29    0.06
   3  -4  14    0.22    0.10
   4  -4  14    0.44    0.07
   4  -4  14    0.47    0.05
   6   3 -14    9.78    0.46
   5   3 -14    0.09    0.09
   5   3 -14    0.11    0.06
   5   3 -14    0.24    0.07
   4   3 -14    0.63    0.09
   4   3 -14    0.43    0.05
   4   3 -14    0.69    0.09
   4   3 -14    0.48    0.08
   3   3 -14    3.17    0.23
   3   3 -14    3.04    0.19
   3   3 -14    3.05    0.19
   2   3 -14    2.47    0.17
   2   3 -14    2.82    0.21
   2   3 -14    2.55    0.19
   2   3 -14    2.37    0.18
   1   3 -14    0.96    0.11
   1   3 -14    1.02    0.11
   0   3 -14    0.04    0.10
  -1   3 -14    0.33    0.11
   1  -3  14    0.34    0.13
   2  -3  14    1.06    0.13
   3  -3  14    1.23    0.14
   3  -3  14    1.31    0.11
   4  -3  14    0.29    0.05
   4  -3  14    0.31    0.07
   6   2 -14    0.46    0.08
   5   2 -14    1.02    0.10
   5   2 -14    1.11    0.12
   5   2 -14    1.10    0.09
   4   2 -14    5.13    0.26
   4   2 -14    4.89    0.26
   4   2 -14    4.90    0.27
   4   2 -14    5.11    0.30
   3   2 -14    7.32    0.37
   3   2 -14    7.86    0.41
   3   2 -14    6.72    0.35
   3   2 -14    6.77    0.36
   2   2 -14   37.07    1.83
   2   2 -14   38.39    2.19
   1   2 -14   12.12    0.73
   0   2 -14   -0.04    0.10
  -1   2 -14    0.27    0.10
   1  -2  14    0.37    0.14
   2  -2  14    6.16    0.39
   3  -2  14    1.04    0.11
   3  -2  14    1.13    0.12
   4  -2  14    0.01    0.04
   4  -2  14    0.10    0.07
   6   1 -14    0.68    0.08
   5   1 -14    1.26    0.11
   5   1 -14    1.09    0.11
   4   1 -14    2.89    0.18
   4   1 -14    2.83    0.17
   4   1 -14    2.87    0.18
   3   1 -14    8.68    0.43
   3   1 -14    9.02    0.44
   2   1 -14    3.26    0.19
   2   1 -14    3.05    0.18
   2   1 -14    2.88    0.21
   1   1 -14    2.49    0.18
   1   1 -14    2.63    0.21
   0   1 -14   15.21    0.91
  -1   1 -14    9.42    0.57
   1  -1  14    9.16    0.58
   2  -1  14    0.76    0.11
   3  -1  14    0.54    0.09
   6   0 -14    0.03    0.05
   5   0 -14    2.30    0.15
   5   0 -14    2.39    0.16
   4   0 -14    5.50    0.29
   4   0 -14    5.52    0.28
   4   0 -14    5.65    0.29
   3   0 -14    0.14    0.07
   3   0 -14    0.27    0.09
   3   0 -14    0.21    0.08
   2   0 -14    0.96    0.09
   2   0 -14    0.79    0.07
   2   0 -14    0.72    0.09
   1   0 -14    0.17    0.05
   1   0 -14    0.21    0.08
   1   0 -14    0.13    0.09
   0   0 -14    0.27    0.10
   0   0  14    0.42    0.14
  -1   0 -14    3.26    0.23
   1   0  14    2.78    0.25
   2   0  14    0.25    0.08
   2   0  14    0.45    0.10
   3   0  14    0.13    0.06
   6  -1 -14    0.52    0.06
   5  -1 -14   11.08    0.53
   5  -1 -14   11.19    0.52
   4  -1 -14    0.16    0.07
   4  -1 -14    0.12    0.06
   3  -1 -14    1.96    0.14
   3  -1 -14    2.19    0.14
   2  -1 -14    6.80    0.41
   2  -1 -14    6.81    0.34
   2  -1 -14    7.01    0.36
   1  -1 -14    0.10    0.07
   1  -1 -14    0.13    0.06
   1  -1 -14    0.07    0.08
   0  -1 -14    0.08    0.05
   0  -1 -14    0.13    0.09
   0   1  14    0.16    0.12
  -1  -1 -14    0.24    0.09
   1   1  14    0.05    0.10
   2   1  14   -0.07    0.07
   5  -2 -14    1.17    0.08
   4  -2 -14    2.02    0.13
   4  -2 -14    2.11    0.13
   3  -2 -14    1.08    0.10
   3  -2 -14    1.10    0.09
   2  -2 -14    7.04    0.35
   2  -2 -14    6.77    0.34
   1  -2 -14    0.13    0.06
   1  -2 -14   -0.01    0.05
   1  -2 -14   -0.01    0.07
  -1   2  14    0.07    0.09
   0  -2 -14   -0.03    0.07
   0  -2 -14    0.05    0.04
   0   2  14    0.05    0.11
   0   2  14    0.02    0.09
  -1  -2 -14    0.06    0.07
   1   2  14   -0.02    0.07
   2  -3 -14    2.19    0.12
   1  -3 -14    1.28    0.09
   2   7 -15    0.08    0.03
   1   7 -15    0.01    0.05
   4   6 -15    2.39    0.13
   4   6 -15    2.58    0.16
   3   6 -15    0.99    0.11
   3   6 -15    1.01    0.10
   2   6 -15    0.33    0.06
   2   6 -15    0.43    0.08
   2   6 -15    0.32    0.07
   1   6 -15    0.31    0.06
   1   6 -15    0.46    0.06
   0   6 -15    0.10    0.06
   0   6 -15    0.03    0.06
   0   6 -15    0.07    0.06
  -1   6 -15    0.59    0.09
   1  -6  15    0.83    0.10
   2  -6  15   -0.01    0.05
   5   5 -15    0.02    0.06
   4   5 -15    2.62    0.15
   4   5 -15    2.73    0.19
   3   5 -15    3.67    0.23
   3   5 -15    3.66    0.20
   3   5 -15    3.48    0.19
   2   5 -15    0.99    0.10
   2   5 -15    1.30    0.12
   2   5 -15    1.24    0.12
   1   5 -15    0.16    0.07
   1   5 -15    0.21    0.08
   1   5 -15    0.16    0.06
   0   5 -15    0.04    0.08
   0   5 -15    0.06    0.05
   0   5 -15    0.01    0.07
  -1   5 -15    0.03    0.08
  -1   5 -15    0.05    0.06
   1  -5  15    0.03    0.10
  -2   5 -15    0.82    0.09
  -2   5 -15    1.42    0.13
   2  -5  15    0.98    0.11
   2  -5  15    1.27    0.11
   5   4 -15    3.87    0.19
   4   4 -15   11.66    0.56
   4   4 -15   12.07    0.64
   3   4 -15    5.85    0.32
   3   4 -15    5.23    0.28
   3   4 -15    5.46    0.28
   2   4 -15   -0.04    0.07
   2   4 -15    0.00    0.06
   2   4 -15    0.05    0.07
   1   4 -15    0.03    0.07
   1   4 -15    0.09    0.07
   1   4 -15    0.06    0.06
   0   4 -15    1.70    0.17
  -1   4 -15    0.37    0.09
   1  -4  15    0.47    0.10
  -2   4 -15    1.77    0.17
   2  -4  15    1.80    0.15
   3  -4  15    1.16    0.10
   5   3 -15   20.40    0.91
   5   3 -15   18.78    0.91
   4   3 -15    4.50    0.24
   4   3 -15    4.81    0.28
   3   3 -15    0.73    0.09
   3   3 -15    0.63    0.09
   3   3 -15    0.62    0.08
   2   3 -15    3.40    0.21
   2   3 -15    3.50    0.22
   1   3 -15    1.67    0.15
   1   3 -15    1.58    0.14
   0   3 -15    0.20    0.09
  -1   3 -15    2.76    0.20
   1  -3  15    2.52    0.23
  -2   3 -15    0.14    0.08
   2  -3  15    0.13    0.07
   3  -3  15    1.44    0.11
   6   2 -15    0.89    0.09
   5   2 -15    1.96    0.13
   5   2 -15    1.88    0.12
   4   2 -15    3.99    0.21
   4   2 -15    3.95    0.24
   3   2 -15    0.10    0.07
   3   2 -15    0.03    0.08
   3   2 -15   -0.02    0.06
   3   2 -15    0.05    0.06
   2   2 -15    1.03    0.10
   2   2 -15    1.20    0.13
   1   2 -15    7.12    0.37
   0   2 -15    2.13    0.18
   0  -2  15    1.77    0.23
  -1   2 -15    1.32    0.15
   1  -2  15    1.19    0.13
  -2   2 -15    0.07    0.08
   2  -2  15    0.09    0.07
   3  -2  15    1.66    0.12
   4   1 -15    0.63    0.08
   4   1 -15    0.72    0.08
   3   1 -15    1.65    0.12
   3   1 -15    1.61    0.14
   3   1 -15    1.40    0.11
   2   1 -15    3.67    0.22
   2   1 -15    3.73    0.21
   2   1 -15    3.64    0.20
   0   1 -15   14.15    0.78
   0  -1  15   12.21    0.80
  -1   1 -15    6.94    0.42
   1  -1  15    6.74    0.43
  -2   1 -15    0.02    0.07
   2  -1  15    0.09    0.06
   2  -1  15    0.01    0.07
   5   0 -15    0.00    0.05
   5   0 -15   -0.01    0.04
   4   0 -15    0.33    0.06
   4   0 -15    0.31    0.05
   3   0 -15    2.82    0.16
   3   0 -15    2.65    0.17
   3   0 -15    2.82    0.16
   2   0 -15    3.63    0.19
   2   0 -15    3.89    0.21
   1   0 -15    1.17    0.11
   0   0  15    1.98    0.20
   1   0  15    3.32    0.23
   4  -1 -15    8.98    0.45
   4  -1 -15    9.99    0.45
   3  -1 -15    0.73    0.08
   3  -1 -15    0.83    0.08
   2  -1 -15    1.50    0.10
   2  -1 -15    1.60    0.11
   1  -1 -15    1.99    0.14
   1  -1 -15    1.85    0.11
   0  -1 -15    0.48    0.08
   0   1  15    0.65    0.10
   1   1  15    0.25    0.06
   2   6 -16    1.34    0.11
   2   6 -16    1.36    0.08
   1   6 -16    0.35    0.05
   4   5 -16    3.01    0.18
   3   5 -16    0.33    0.06
   3   5 -16    0.35    0.07
   2   5 -16    2.62    0.16
   2   5 -16    2.60    0.15
   2   5 -16    2.93    0.18
   1   5 -16    1.57    0.12
   1   5 -16    1.53    0.12
   0   5 -16    0.04    0.05
   0   5 -16    0.02    0.05
   0   5 -16   -0.02    0.05
  -1   5 -16   -0.01    0.06
   1  -5  16   -0.05    0.07
   4   4 -16    0.54    0.06
   4   4 -16    0.80    0.08
   3   4 -16    0.24    0.04
   3   4 -16    0.39    0.08
   3   4 -16    0.28    0.05
   2   4 -16    2.57    0.15
   2   4 -16    2.65    0.17
   1   4 -16    0.27    0.06
   1   4 -16    0.25    0.06
   0   4 -16    0.28    0.06
   0   4 -16    0.32    0.06
   0   4 -16    0.35    0.06
   0  -4  16    0.32    0.10
  -1   4 -16    0.18    0.06
   1  -4  16    0.13    0.08
   4   3 -16    2.27    0.13
   4   3 -16    2.29    0.15
   3   3 -16    7.09    0.35
   3   3 -16    7.59    0.41
   2   3 -16    2.58    0.16
   2   3 -16    2.57    0.18
   1   3 -16    0.38    0.07
   1   3 -16    0.36    0.07
   1   3 -16    0.29    0.05
   0   3 -16    2.39    0.17
   0  -3  16    2.57    0.21
  -1   3 -16    0.52    0.08
   1  -3  16    0.71    0.09
   3   2 -16    2.68    0.18
   3   2 -16    2.99    0.17
   3   2 -16    2.86    0.16
   2   2 -16    0.14    0.05
   2   2 -16    0.06    0.06
   1   2 -16    1.81    0.12
   1   2 -16    1.75    0.14
   1   2 -16    1.78    0.13
   0   2 -16    0.43    0.07
   0  -2  16    0.47    0.11
  -1   2 -16    1.79    0.14
   1  -2  16    1.69    0.15
   4   1 -16    4.87    0.25
   4   1 -16    5.24    0.25
   3   1 -16    6.12    0.29
   3   1 -16    5.62    0.28
   2   1 -16    0.98    0.09
   1   1 -16    0.10    0.05
   1   1 -16    0.14    0.04
   1   1 -16    0.14    0.06
   0   1 -16   10.25    0.57
   0  -1  16    9.22    0.58
   1  -1  16    0.23    0.06
   3   0 -16    0.21    0.04
   2   0 -16    0.93    0.09
   1   0 -16    1.27    0.10
   2   4 -17    0.11    0.05
   1   4 -17    1.99    0.13
   2   3 -17    2.17    0.12
   1   3 -17    4.10    0.24
   0   0   0    0.00    0.00
;
_shelx_hkl_checksum    1780

