 
data_x14456 
 
_audit_creation_method            'SHELXL-2014/7' 
# CIF edited on-the-fly by script CIFFIX (S. Parkin, 2000-2014). 
# CIFFIX: http://xray.uky.edu/people/parkin/programs/ciffix 
_shelx_SHELXL_version_number      '2014/7' 
 
_publ_section_exptl_refinement 
; 
H atoms were found in difference Fourier maps, but subsequently included 
in the refinement using riding models, with constrained distances set to 
0.93 %A (C~sp2~H). U~iso~(H) values were set to 1.2U~eq~ of the attached 
atom. 
 
To ensure satisfactory refinement of disordered groups in the structure, 
a combination of constraints and restraints were employed. The constraints 
(SHELXL commands EXYZ and EADP) were used to fix overlapping fragments. 
Restraints were used to maintain the integrity of ill-defined or disordered 
groups (SHELXL commands SAME and RIGU). 
; 
 
_publ_section_references 
; 
Bruker-AXS (2006). 
  <i>APEX2</i> Bruker-AXS Inc., Madison, Wisconsin, USA. 
 
Hope, H. (1994). 
  <i>Prog. Inorg. Chem.</i> <b>41</b>, 1--19. 
 
Parkin, S. & Hope, H. (1998). 
  <i>J. Appl. Cryst.</i> <b>31</b>, 945--953. 
 
Parkin, S. (2000). 
  <i>Acta Cryst.</i> A<b>56</b>, 157--162. 
 
Parkin, S. (2013). 
  <i>CIFFIX</i>, http://xray.uky.edu/people/parkin/programs/ciffix 
 
Sheldrick, G.M. (2008a). 
  <i>Acta Cryst.</i> A<b>64</b>, 112--122. 
 
Sheldrick, G.M. (2008b). 
  <i>SADABS</i> University of G\"ottingen, Germany. 
 
Spek, A.L. (2009). 
  <i>Acta Cryst.</i> D<b>65</b>, 148--155. 
; 
 
_chemical_name_systematic         ? 
_chemical_name_common             ? 
_chemical_melting_point           ? 
_chemical_formula_moiety          'C58 H36 F2 S2 Si2' 
_chemical_formula_sum             'C58 H36 F2 S2 Si2' 
_chemical_formula_weight          891.17 
 
loop_ 
 _atom_type_symbol 
 _atom_type_description 
 _atom_type_scat_dispersion_real 
 _atom_type_scat_dispersion_imag 
 _atom_type_scat_source 
 'C'  'C'   0.0181   0.0091 
 'International Tables Vol C Tables 4.2.6.8 and 6.1.1.4' 
 'H'  'H'   0.0000   0.0000 
 'International Tables Vol C Tables 4.2.6.8 and 6.1.1.4' 
 'F'  'F'   0.0727   0.0534 
 'International Tables Vol C Tables 4.2.6.8 and 6.1.1.4' 
 'Si'  'Si'   0.2541   0.3302 
 'International Tables Vol C Tables 4.2.6.8 and 6.1.1.4' 
 'S'  'S'   0.3331   0.5567 
 'International Tables Vol C Tables 4.2.6.8 and 6.1.1.4' 
 
_space_group_crystal_system       monoclinic 
_space_group_IT_number            14 
_space_group_name_H-M_alt         'P 21/n' 
_space_group_name_Hall            '-P 2yn' 
 
_shelx_space_group_comment 
; 
The symmetry employed for this shelxl refinement is uniquely defined 
by the following loop, which should always be used as a source of 
symmetry information in preference to the above space-group names. 
They are only intended as comments. 
; 
 
loop_ 
 _space_group_symop_operation_xyz 
 'x, y, z' 
 '-x+1/2, y+1/2, -z+1/2' 
 '-x, -y, -z' 
 'x-1/2, -y-1/2, z-1/2' 
 
_cell_length_a                    15.5057(3) 
_cell_length_b                    8.3105(2) 
_cell_length_c                    17.7097(4) 
_cell_angle_alpha                 90 
_cell_angle_beta                  101.117(1) 
_cell_angle_gamma                 90 
_cell_volume                      2239.25(9) 
_cell_formula_units_Z             2 
_cell_measurement_temperature     456(2) 
_cell_measurement_reflns_used     9096 
_cell_measurement_theta_min       3.47 
_cell_measurement_theta_max       68.14 
 
_exptl_crystal_description        needle 
_exptl_crystal_colour             red 
_exptl_crystal_density_meas       ? 
_exptl_crystal_density_method     ? 
_exptl_crystal_density_diffrn     1.322 
_exptl_crystal_F_000              924 
_exptl_transmission_factor_min    ? 
_exptl_transmission_factor_max    ? 
_exptl_crystal_size_max           0.250 
_exptl_crystal_size_mid           0.020 
_exptl_crystal_size_min           0.020 
_exptl_absorpt_coefficient_mu     1.975 
_shelx_estimated_absorpt_T_min    0.638 
_shelx_estimated_absorpt_T_max    0.962 
_exptl_absorpt_correction_type    multi-scan 
_exptl_absorpt_correction_T_min   0.668 
_exptl_absorpt_correction_T_max   0.929 
_exptl_absorpt_process_details    '<i>SADABS</i> (Sheldrick, 2008b)' 
_exptl_absorpt_special_details    ? 
_exptl_special_details 
; 
The crystal was mounted with polyisobutene oil on the tip of a fine glass 
fibre, which was fastened in a copper mounting pin with electrical solder. 
It was placed directly into the cold gas stream of a liquid-nitrogen based 
cryostat, according to published methods (Hope, 1994; Parkin & Hope, 1998). 
 
Data were collected at room temperature. 
; 
 
_diffrn_ambient_temperature       456(2) 
_diffrn_radiation_wavelength      1.54178 
_diffrn_radiation_type            CuK\a 
_diffrn_source                    'fine-focus rotating anode' 
_diffrn_measurement_device_type   'Bruker X8 Proteum diffractometer' 
_diffrn_measurement_method        '\f and \w scans' 
_diffrn_detector_area_resol_mean  5.6 
_diffrn_reflns_number             29558 
_diffrn_reflns_av_unetI/netI      0.0365 
_diffrn_reflns_av_R_equivalents   0.0601 
_diffrn_reflns_limit_h_min        -18 
_diffrn_reflns_limit_h_max        18 
_diffrn_reflns_limit_k_min        -4 
_diffrn_reflns_limit_k_max        9 
_diffrn_reflns_limit_l_min        -21 
_diffrn_reflns_limit_l_max        21 
_diffrn_reflns_theta_min          3.472 
_diffrn_reflns_theta_max          68.355 
_diffrn_reflns_theta_full         67.679 
_diffrn_measured_fraction_theta_max                0.983 
_diffrn_measured_fraction_theta_full               0.987 
_diffrn_reflns_Laue_measured_fraction_max          0.983 
_diffrn_reflns_Laue_measured_fraction_full         0.987 
_diffrn_reflns_point_group_measured_fraction_max   0.983 
_diffrn_reflns_point_group_measured_fraction_full  0.987 
 
_reflns_number_total              4039 
_reflns_number_gt                 3378 
_reflns_threshold_expression      'I > 2\s(I)' 
_reflns_Friedel_coverage          0.000 
_reflns_Friedel_fraction_max      . 
_reflns_Friedel_fraction_full     . 
 
_reflns_special_details 
; 
Reflections were merged by SHELXL according to the crystal 
class for the calculation of statistics and refinement. 
 
_reflns_Friedel_fraction is defined as the number of unique 
Friedel pairs measured divided by the number that would be 
possible theoretically, ignoring centric projections and 
systematic absences. 
; 
 
_computing_data_collection        '<i>APEX2</i> (Bruker-AXS, 2006)' 
_computing_cell_refinement        '<i>APEX2</i> (Bruker-AXS, 2006)' 
_computing_data_reduction         '<i>APEX2</i> (Bruker-AXS, 2006)' 
_computing_structure_solution     '<i>SHELXT</i> (Sheldrick, 2008a)' 
_computing_structure_refinement   '<i>SHELXL-2014/7</i> (Sheldrick, 2008a)' 
_computing_molecular_graphics     '<i>XP in SHELXTL</i> (Sheldrick, 2008a)' 
_computing_publication_material 
'<i>SHELX</i> (Sheldrick, 2008a) and <i>CIFFIX</i> (Parkin, 2013)' 
_refine_special_details 
; 
Refinement progress was checked using <i>Platon</i> (Spek, 2009) and by 
an <i>R</i>-tensor (Parkin, 2000). The final model was further checked 
with the IUCr utility <i>checkCIF</i>. 
; 
_refine_ls_structure_factor_coef  Fsqd 
_refine_ls_matrix_type            full 
_refine_ls_weighting_scheme       calc 
_refine_ls_weighting_details 
'w=1/[\s^2^(Fo^2^)+(0.0625P)^2^+1.3006P] where P=(Fo^2^+2Fc^2^)/3' 
_atom_sites_solution_primary      direct 
_atom_sites_solution_secondary    difmap 
_atom_sites_solution_hydrogens    difmap 
_refine_ls_hydrogen_treatment     constr 
_refine_ls_extinction_method      none 
_refine_ls_extinction_coef        . 
_refine_ls_number_reflns          4039 
_refine_ls_number_parameters      302 
_refine_ls_number_restraints      91 
_refine_ls_R_factor_all           0.0526 
_refine_ls_R_factor_gt            0.0418 
_refine_ls_wR_factor_ref          0.1176 
_refine_ls_wR_factor_gt           0.1094 
_refine_ls_goodness_of_fit_ref    1.062 
_refine_ls_restrained_S_all       1.052 
_refine_ls_shift/su_max           0.001 
_refine_ls_shift/su_mean          0.000 
 
loop_ 
 _atom_site_label 
 _atom_site_type_symbol 
 _atom_site_fract_x 
 _atom_site_fract_y 
 _atom_site_fract_z 
 _atom_site_U_iso_or_equiv 
 _atom_site_adp_type 
 _atom_site_occupancy 
 _atom_site_site_symmetry_order 
 _atom_site_calc_flag 
 _atom_site_refinement_flags_posn 
 _atom_site_refinement_flags_adp 
 _atom_site_refinement_flags_occupancy 
 _atom_site_disorder_assembly 
 _atom_site_disorder_group 
Si1 Si 0.52849(4) 0.23778(6) 0.81418(3) 0.01571(15) Uani 1 1 d . . . . . 
C1 C 0.50329(12) 0.0387(2) 0.57823(11) 0.0143(4) Uani 1 1 d . . . . . 
C2 C 0.53527(12) 0.1505(2) 0.52985(11) 0.0146(4) Uani 1 1 d . . . . . 
C3 C 0.57183(13) 0.3004(2) 0.55883(11) 0.0160(4) Uani 1 1 d . . . . . 
H3 H 0.5752 0.3264 0.6104 0.019 Uiso 1 1 calc R U . A 1 
C4 C 0.60190(13) 0.4060(2) 0.51076(12) 0.0170(4) Uani 0.522(2) 1 d D U P B 1 
S5 S 0.64742(18) 0.5918(2) 0.53598(14) 0.0186(4) Uani 0.522(2) 1 d D U P B 1 
C6 C 0.6560(6) 0.6206(8) 0.4401(3) 0.0191(10) Uani 0.522(2) 1 d D U P B 1 
F1 F 0.6911(2) 0.7599(4) 0.42391(18) 0.0267(6) Uani 0.522(2) 1 d D U P B 1 
C7 C 0.6280(7) 0.4965(11) 0.3911(6) 0.0197(4) Uani 0.522(2) 1 d D U P B 1 
H7 H 0.6295 0.4958 0.3388 0.024 Uiso 0.522(2) 1 calc R U P B 1 
C8 C 0.59660(13) 0.3693(2) 0.43119(12) 0.0164(4) Uani 0.522(2) 1 d D U P B 1 
C4' C 0.60190(13) 0.4060(2) 0.51076(12) 0.0170(4) Uani 0.478(2) 1 d D U P B 2 
C5' C 0.6403(10) 0.5631(13) 0.5306(8) 0.0186(4) Uani 0.478(2) 1 d D U P B 2 
H5' H 0.6504 0.6078 0.5796 0.022 Uiso 0.478(2) 1 calc R U P B 2 
F1' F 0.6933(2) 0.7835(4) 0.4624(2) 0.0267(6) Uani 0.478(2) 1 d D U P B 2 
C6' C 0.6596(6) 0.6358(9) 0.4667(3) 0.0191(10) Uani 0.478(2) 1 d D U P B 2 
S7' S 0.63749(14) 0.5268(2) 0.38127(12) 0.0197(4) Uani 0.478(2) 1 d D U P B 2 
C8' C 0.59660(13) 0.3693(2) 0.43119(12) 0.0164(4) Uani 0.478(2) 1 d D U P B 2 
C9 C 0.56204(13) 0.2257(2) 0.40149(11) 0.0162(4) Uani 1 1 d . . . . . 
H9 H 0.5584 0.2030 0.3495 0.019 Uiso 1 1 calc R U . B 1 
C10 C 0.53177(13) 0.1117(2) 0.45021(11) 0.0147(4) Uani 1 1 d . . . . . 
C11 C 0.50651(13) 0.0825(2) 0.65677(11) 0.0158(4) Uani 1 1 d . . . . . 
C12 C 0.51175(13) 0.1314(2) 0.72146(12) 0.0184(4) Uani 1 1 d . . . . . 
C13 C 0.57240(14) 0.0939(2) 0.89296(12) 0.0198(4) Uani 1 1 d . . . . . 
C14 C 0.59854(17) -0.0603(3) 0.87697(13) 0.0295(5) Uani 1 1 d . . . . . 
H14 H 0.5923 -0.0937 0.8261 0.035 Uiso 1 1 calc R U . . . 
C15 C 0.63396(18) -0.1657(3) 0.93603(15) 0.0371(6) Uani 1 1 d . . . . . 
H15 H 0.6503 -0.2693 0.9246 0.045 Uiso 1 1 calc R U . . . 
C16 C 0.64466(16) -0.1159(3) 1.01130(14) 0.0314(5) Uani 1 1 d . . . . . 
H16 H 0.6695 -0.1853 1.0507 0.038 Uiso 1 1 calc R U . . . 
C17 C 0.61885(15) 0.0364(3) 1.02875(13) 0.0273(5) Uani 1 1 d . . . . . 
H17 H 0.6256 0.0691 1.0798 0.033 Uiso 1 1 calc R U . . . 
C18 C 0.58278(15) 0.1403(3) 0.96982(12) 0.0240(5) Uani 1 1 d . . . . . 
H18 H 0.5652 0.2427 0.9818 0.029 Uiso 1 1 calc R U . . . 
C19 C 0.42081(13) 0.3267(2) 0.82454(11) 0.0178(4) Uani 1 1 d . . . . . 
C20 C 0.34210(15) 0.2544(3) 0.78950(12) 0.0229(5) Uani 1 1 d . . . . . 
H20 H 0.3437 0.1641 0.7588 0.027 Uiso 1 1 calc R U . . . 
C21 C 0.26138(14) 0.3139(3) 0.79935(12) 0.0245(5) Uani 1 1 d . . . . . 
H21 H 0.2096 0.2648 0.7747 0.029 Uiso 1 1 calc R U . . . 
C22 C 0.25819(15) 0.4463(3) 0.84591(13) 0.0263(5) Uani 1 1 d . . . . . 
H22 H 0.2044 0.4849 0.8540 0.032 Uiso 1 1 calc R U . . . 
C23 C 0.33543(16) 0.5211(3) 0.88036(15) 0.0305(5) Uani 1 1 d . . . . . 
H23 H 0.3334 0.6110 0.9112 0.037 Uiso 1 1 calc R U . . . 
C24 C 0.41586(15) 0.4632(3) 0.86937(13) 0.0262(5) Uani 1 1 d . . . . . 
H24 H 0.4672 0.5160 0.8921 0.031 Uiso 1 1 calc R U . . . 
C25 C 0.61073(13) 0.4007(2) 0.80870(12) 0.0181(4) Uani 1 1 d . . . . . 
C26 C 0.59181(14) 0.5248(2) 0.75442(12) 0.0216(4) Uani 1 1 d . . . . . 
H26 H 0.5362 0.5306 0.7234 0.026 Uiso 1 1 calc R U . . . 
C27 C 0.65409(16) 0.6383(3) 0.74614(13) 0.0278(5) Uani 1 1 d . . . . . 
H27 H 0.6402 0.7199 0.7099 0.033 Uiso 1 1 calc R U . . . 
C28 C 0.73752(16) 0.6313(3) 0.79176(14) 0.0311(5) Uani 1 1 d . . . . . 
H28 H 0.7798 0.7073 0.7860 0.037 Uiso 1 1 calc R U . . . 
C29 C 0.75726(15) 0.5095(3) 0.84628(15) 0.0317(6) Uani 1 1 d . . . . . 
H29 H 0.8129 0.5042 0.8773 0.038 Uiso 1 1 calc R U . . . 
C30 C 0.69468(15) 0.3969(3) 0.85440(13) 0.0250(5) Uani 1 1 d . . . . . 
H30 H 0.7087 0.3163 0.8912 0.030 Uiso 1 1 calc R U . . . 
 
loop_ 
 _atom_site_aniso_label 
 _atom_site_aniso_U_11 
 _atom_site_aniso_U_22 
 _atom_site_aniso_U_33 
 _atom_site_aniso_U_23 
 _atom_site_aniso_U_13 
 _atom_site_aniso_U_12 
Si1 0.0196(3) 0.0123(3) 0.0148(3) -0.00149(19) 0.0022(2) -0.0006(2) 
C1 0.0157(9) 0.0112(9) 0.0153(9) 0.0004(7) 0.0013(7) 0.0014(7) 
C2 0.0152(9) 0.0105(9) 0.0171(10) 0.0013(7) 0.0001(7) 0.0015(7) 
C3 0.0201(10) 0.0115(9) 0.0156(9) -0.0013(7) 0.0018(7) 0.0010(8) 
C4 0.0163(10) 0.0104(9) 0.0229(10) 0.0007(7) 0.0002(8) 0.0014(7) 
S5 0.0222(7) 0.0074(9) 0.0252(6) -0.0001(6) 0.0021(5) -0.0055(6) 
C6 0.0199(13) 0.0127(14) 0.024(3) 0.0053(19) 0.001(3) -0.0046(11) 
F1 0.0304(9) 0.0154(10) 0.0334(16) 0.0054(13) 0.0034(15) -0.0095(7) 
C7 0.0229(7) 0.0129(9) 0.0230(8) 0.0051(5) 0.0034(5) -0.0052(6) 
C8 0.0155(9) 0.0129(10) 0.0204(10) 0.0033(8) 0.0021(7) 0.0007(7) 
C4' 0.0163(10) 0.0104(9) 0.0229(10) 0.0007(7) 0.0002(8) 0.0014(7) 
C5' 0.0222(7) 0.0074(9) 0.0252(6) -0.0001(6) 0.0021(5) -0.0055(6) 
F1' 0.0304(9) 0.0154(10) 0.0334(16) 0.0054(13) 0.0034(15) -0.0095(7) 
C6' 0.0199(13) 0.0127(14) 0.024(3) 0.0053(19) 0.001(3) -0.0046(11) 
S7' 0.0229(7) 0.0129(9) 0.0230(8) 0.0051(5) 0.0034(5) -0.0052(6) 
C8' 0.0155(9) 0.0129(10) 0.0204(10) 0.0033(8) 0.0021(7) 0.0007(7) 
C9 0.0176(10) 0.0148(10) 0.0159(10) 0.0015(8) 0.0024(7) 0.0014(7) 
C10 0.0165(9) 0.0103(9) 0.0170(10) 0.0006(7) 0.0024(7) 0.0017(7) 
C11 0.0173(10) 0.0093(9) 0.0204(11) 0.0014(8) 0.0028(8) -0.0005(7) 
C12 0.0222(10) 0.0129(10) 0.0203(11) 0.0008(8) 0.0046(8) -0.0019(8) 
C13 0.0217(11) 0.0176(10) 0.0199(10) 0.0015(8) 0.0039(8) -0.0011(8) 
C14 0.0453(14) 0.0203(12) 0.0240(12) 0.0018(9) 0.0098(10) 0.0078(10) 
C15 0.0512(16) 0.0241(13) 0.0388(14) 0.0096(10) 0.0155(12) 0.0139(11) 
C16 0.0279(12) 0.0323(13) 0.0334(13) 0.0162(10) 0.0044(10) 0.0051(10) 
C17 0.0305(12) 0.0322(13) 0.0179(10) 0.0024(9) 0.0017(9) -0.0038(10) 
C18 0.0286(12) 0.0211(11) 0.0211(11) -0.0023(9) 0.0018(9) -0.0017(9) 
C19 0.0221(10) 0.0141(10) 0.0169(10) 0.0021(8) 0.0030(8) -0.0007(8) 
C20 0.0267(12) 0.0194(11) 0.0223(11) -0.0034(8) 0.0043(9) -0.0024(8) 
C21 0.0196(11) 0.0279(12) 0.0249(11) 0.0021(9) 0.0019(8) -0.0040(9) 
C22 0.0232(11) 0.0224(11) 0.0341(12) 0.0055(9) 0.0073(9) 0.0055(9) 
C23 0.0298(12) 0.0188(11) 0.0432(14) -0.0098(10) 0.0079(10) 0.0021(9) 
C24 0.0241(11) 0.0188(11) 0.0343(13) -0.0055(9) 0.0022(9) -0.0004(9) 
C25 0.0204(10) 0.0147(10) 0.0196(10) -0.0047(8) 0.0048(8) 0.0014(8) 
C26 0.0234(11) 0.0187(11) 0.0217(11) -0.0017(8) 0.0016(8) -0.0039(8) 
C27 0.0369(13) 0.0196(11) 0.0277(12) -0.0008(9) 0.0086(10) -0.0057(9) 
C28 0.0293(12) 0.0255(12) 0.0405(14) -0.0057(10) 0.0113(10) -0.0116(10) 
C29 0.0187(11) 0.0280(13) 0.0469(15) -0.0088(11) 0.0023(10) -0.0031(9) 
C30 0.0245(11) 0.0176(11) 0.0313(12) -0.0019(9) 0.0013(9) 0.0020(8) 
 
_geom_special_details 
; 
 All esds (except the esd in the dihedral angle between two l.s. planes) 
 are estimated using the full covariance matrix.  The cell esds are taken 
 into account individually in the estimation of esds in distances, angles 
 and torsion angles; correlations between esds in cell parameters are only 
 used when they are defined by crystal symmetry.  An approximate (isotropic) 
 treatment of cell esds is used for estimating esds involving l.s. planes. 
; 
 
loop_ 
 _geom_bond_atom_site_label_1 
 _geom_bond_atom_site_label_2 
 _geom_bond_distance 
 _geom_bond_site_symmetry_2 
 _geom_bond_publ_flag 
Si1 C12 1.839(2) . ? 
Si1 C13 1.864(2) . ? 
Si1 C19 1.867(2) . ? 
Si1 C25 1.875(2) . ? 
C1 C2 1.416(3) . ? 
C1 C10 1.417(3) 3_656 ? 
C1 C11 1.429(3) . ? 
C2 C3 1.423(3) . ? 
C2 C10 1.437(3) . ? 
C3 C4' 1.366(3) . ? 
C3 C4 1.366(3) . ? 
C3 H3 0.9300 . ? 
C4 C8 1.429(3) . ? 
C4 S5 1.721(2) . ? 
S5 C6 1.744(6) . ? 
C6 F1 1.334(6) . ? 
C6 C7 1.364(11) . ? 
C7 C8 1.412(7) . ? 
C7 H7 0.9300 . ? 
C8 C9 1.370(3) . ? 
C4' C8' 1.429(3) . ? 
C4' C5' 1.450(10) . ? 
C5' C6' 1.365(13) . ? 
C5' H5' 0.9300 . ? 
F1' C6' 1.342(7) . ? 
C6' S7' 1.740(6) . ? 
S7' C8' 1.765(2) . ? 
C8' C9 1.370(3) . ? 
C9 C10 1.421(3) . ? 
C9 H9 0.9300 . ? 
C10 C1 1.417(3) 3_656 ? 
C11 C12 1.203(3) . ? 
C13 C14 1.390(3) . ? 
C13 C18 1.394(3) . ? 
C14 C15 1.393(3) . ? 
C14 H14 0.9300 . ? 
C15 C16 1.375(4) . ? 
C15 H15 0.9300 . ? 
C16 C17 1.380(4) . ? 
C16 H16 0.9300 . ? 
C17 C18 1.387(3) . ? 
C17 H17 0.9300 . ? 
C18 H18 0.9300 . ? 
C19 C20 1.394(3) . ? 
C19 C24 1.395(3) . ? 
C20 C21 1.388(3) . ? 
C20 H20 0.9300 . ? 
C21 C22 1.382(3) . ? 
C21 H21 0.9300 . ? 
C22 C23 1.382(3) . ? 
C22 H22 0.9300 . ? 
C23 C24 1.385(3) . ? 
C23 H23 0.9300 . ? 
C24 H24 0.9300 . ? 
C25 C30 1.394(3) . ? 
C25 C26 1.402(3) . ? 
C26 C27 1.378(3) . ? 
C26 H26 0.9300 . ? 
C27 C28 1.388(3) . ? 
C27 H27 0.9300 . ? 
C28 C29 1.392(4) . ? 
C28 H28 0.9300 . ? 
C29 C30 1.376(3) . ? 
C29 H29 0.9300 . ? 
C30 H30 0.9300 . ? 
 
loop_ 
 _geom_angle_atom_site_label_1 
 _geom_angle_atom_site_label_2 
 _geom_angle_atom_site_label_3 
 _geom_angle 
 _geom_angle_site_symmetry_1 
 _geom_angle_site_symmetry_3 
 _geom_angle_publ_flag 
C12 Si1 C13 109.17(9) . . ? 
C12 Si1 C19 107.65(9) . . ? 
C13 Si1 C19 112.64(9) . . ? 
C12 Si1 C25 106.34(9) . . ? 
C13 Si1 C25 110.36(9) . . ? 
C19 Si1 C25 110.45(9) . . ? 
C2 C1 C10 121.25(18) . 3_656 ? 
C2 C1 C11 118.10(17) . . ? 
C10 C1 C11 120.65(17) 3_656 . ? 
C1 C2 C3 121.16(18) . . ? 
C1 C2 C10 119.69(18) . . ? 
C3 C2 C10 119.15(18) . . ? 
C4' C3 C2 119.87(18) . . ? 
C4 C3 C2 119.87(18) . . ? 
C4 C3 H3 120.1 . . ? 
C2 C3 H3 120.1 . . ? 
C3 C4 C8 121.03(17) . . ? 
C3 C4 S5 125.97(18) . . ? 
C8 C4 S5 113.00(17) . . ? 
C4 S5 C6 88.6(2) . . ? 
F1 C6 C7 127.7(5) . . ? 
F1 C6 S5 116.0(4) . . ? 
C7 C6 S5 116.2(5) . . ? 
C6 C7 C8 110.1(7) . . ? 
C6 C7 H7 124.9 . . ? 
C8 C7 H7 124.9 . . ? 
C9 C8 C7 127.3(5) . . ? 
C9 C8 C4 120.58(18) . . ? 
C7 C8 C4 112.1(4) . . ? 
C3 C4' C8' 121.03(17) . . ? 
C3 C4' C5' 127.0(6) . . ? 
C8' C4' C5' 112.0(6) . . ? 
C6' C5' C4' 110.1(9) . . ? 
C6' C5' H5' 125.0 . . ? 
C4' C5' H5' 125.0 . . ? 
F1' C6' C5' 127.0(6) . . ? 
F1' C6' S7' 116.1(4) . . ? 
C5' C6' S7' 116.9(6) . . ? 
C6' S7' C8' 88.8(2) . . ? 
C9 C8' C4' 120.58(18) . . ? 
C9 C8' S7' 127.24(17) . . ? 
C4' C8' S7' 112.18(16) . . ? 
C8' C9 C10 119.85(18) . . ? 
C8 C9 C10 119.85(18) . . ? 
C8 C9 H9 120.1 . . ? 
C10 C9 H9 120.1 . . ? 
C1 C10 C9 121.45(18) 3_656 . ? 
C1 C10 C2 119.07(18) 3_656 . ? 
C9 C10 C2 119.48(18) . . ? 
C12 C11 C1 174.7(2) . . ? 
C11 C12 Si1 169.87(18) . . ? 
C14 C13 C18 118.1(2) . . ? 
C14 C13 Si1 121.20(16) . . ? 
C18 C13 Si1 120.69(16) . . ? 
C13 C14 C15 121.0(2) . . ? 
C13 C14 H14 119.5 . . ? 
C15 C14 H14 119.5 . . ? 
C16 C15 C14 119.6(2) . . ? 
C16 C15 H15 120.2 . . ? 
C14 C15 H15 120.2 . . ? 
C15 C16 C17 120.5(2) . . ? 
C15 C16 H16 119.8 . . ? 
C17 C16 H16 119.8 . . ? 
C16 C17 C18 119.7(2) . . ? 
C16 C17 H17 120.2 . . ? 
C18 C17 H17 120.2 . . ? 
C17 C18 C13 121.1(2) . . ? 
C17 C18 H18 119.4 . . ? 
C13 C18 H18 119.4 . . ? 
C20 C19 C24 117.67(19) . . ? 
C20 C19 Si1 120.55(16) . . ? 
C24 C19 Si1 121.74(16) . . ? 
C21 C20 C19 121.6(2) . . ? 
C21 C20 H20 119.2 . . ? 
C19 C20 H20 119.2 . . ? 
C22 C21 C20 119.7(2) . . ? 
C22 C21 H21 120.1 . . ? 
C20 C21 H21 120.1 . . ? 
C21 C22 C23 119.6(2) . . ? 
C21 C22 H22 120.2 . . ? 
C23 C22 H22 120.2 . . ? 
C22 C23 C24 120.6(2) . . ? 
C22 C23 H23 119.7 . . ? 
C24 C23 H23 119.7 . . ? 
C23 C24 C19 120.8(2) . . ? 
C23 C24 H24 119.6 . . ? 
C19 C24 H24 119.6 . . ? 
C30 C25 C26 117.59(19) . . ? 
C30 C25 Si1 121.44(16) . . ? 
C26 C25 Si1 120.81(16) . . ? 
C27 C26 C25 121.2(2) . . ? 
C27 C26 H26 119.4 . . ? 
C25 C26 H26 119.4 . . ? 
C26 C27 C28 120.2(2) . . ? 
C26 C27 H27 119.9 . . ? 
C28 C27 H27 119.9 . . ? 
C27 C28 C29 119.3(2) . . ? 
C27 C28 H28 120.3 . . ? 
C29 C28 H28 120.3 . . ? 
C30 C29 C28 120.2(2) . . ? 
C30 C29 H29 119.9 . . ? 
C28 C29 H29 119.9 . . ? 
C29 C30 C25 121.5(2) . . ? 
C29 C30 H30 119.3 . . ? 
C25 C30 H30 119.3 . . ? 
 
loop_ 
 _geom_torsion_atom_site_label_1 
 _geom_torsion_atom_site_label_2 
 _geom_torsion_atom_site_label_3 
 _geom_torsion_atom_site_label_4 
 _geom_torsion 
 _geom_torsion_site_symmetry_1 
 _geom_torsion_site_symmetry_2 
 _geom_torsion_site_symmetry_3 
 _geom_torsion_site_symmetry_4 
 _geom_torsion_publ_flag 
C10 C1 C2 C3 -178.92(18) 3_656 . . . ? 
C11 C1 C2 C3 1.7(3) . . . . ? 
C10 C1 C2 C10 0.4(3) 3_656 . . . ? 
C11 C1 C2 C10 -178.98(17) . . . . ? 
C1 C2 C3 C4' -179.79(18) . . . . ? 
C10 C2 C3 C4' 0.9(3) . . . . ? 
C1 C2 C3 C4 -179.79(18) . . . . ? 
C10 C2 C3 C4 0.9(3) . . . . ? 
C2 C3 C4 C8 0.6(3) . . . . ? 
C2 C3 C4 S5 179.74(19) . . . . ? 
C3 C4 S5 C6 -177.7(4) . . . . ? 
C8 C4 S5 C6 1.6(4) . . . . ? 
C4 S5 C6 F1 -179.7(6) . . . . ? 
C4 S5 C6 C7 -1.3(8) . . . . ? 
F1 C6 C7 C8 178.8(7) . . . . ? 
S5 C6 C7 C8 0.6(11) . . . . ? 
C6 C7 C8 C9 179.0(5) . . . . ? 
C6 C7 C8 C4 0.6(9) . . . . ? 
C3 C4 C8 C9 -0.8(3) . . . . ? 
S5 C4 C8 C9 179.94(19) . . . . ? 
C3 C4 C8 C7 177.7(5) . . . . ? 
S5 C4 C8 C7 -1.6(5) . . . . ? 
C2 C3 C4' C8' 0.6(3) . . . . ? 
C2 C3 C4' C5' 179.6(8) . . . . ? 
C3 C4' C5' C6' -177.8(7) . . . . ? 
C8' C4' C5' C6' 1.3(13) . . . . ? 
C4' C5' C6' F1' 177.9(9) . . . . ? 
C4' C5' C6' S7' -1.6(14) . . . . ? 
F1' C6' S7' C8' -178.4(7) . . . . ? 
C5' C6' S7' C8' 1.1(10) . . . . ? 
C3 C4' C8' C9 -0.8(3) . . . . ? 
C5' C4' C8' C9 -180.0(7) . . . . ? 
C3 C4' C8' S7' 178.67(17) . . . . ? 
C5' C4' C8' S7' -0.5(7) . . . . ? 
C6' S7' C8' C9 179.1(4) . . . . ? 
C6' S7' C8' C4' -0.3(4) . . . . ? 
C4' C8' C9 C10 -0.5(3) . . . . ? 
S7' C8' C9 C10 -179.85(18) . . . . ? 
C7 C8 C9 C10 -178.7(6) . . . . ? 
C4 C8 C9 C10 -0.5(3) . . . . ? 
C8' C9 C10 C1 -179.17(18) . . . 3_656 ? 
C8 C9 C10 C1 -179.17(18) . . . 3_656 ? 
C8' C9 C10 C2 1.9(3) . . . . ? 
C8 C9 C10 C2 1.9(3) . . . . ? 
C1 C2 C10 C1 -0.4(3) . . . 3_656 ? 
C3 C2 C10 C1 178.94(17) . . . 3_656 ? 
C1 C2 C10 C9 178.55(17) . . . . ? 
C3 C2 C10 C9 -2.1(3) . . . . ? 
C13 Si1 C12 C11 -136.7(11) . . . . ? 
C19 Si1 C12 C11 100.7(11) . . . . ? 
C25 Si1 C12 C11 -17.7(11) . . . . ? 
C12 Si1 C13 C14 8.6(2) . . . . ? 
C19 Si1 C13 C14 128.10(19) . . . . ? 
C25 Si1 C13 C14 -107.9(2) . . . . ? 
C12 Si1 C13 C18 -173.67(17) . . . . ? 
C19 Si1 C13 C18 -54.1(2) . . . . ? 
C25 Si1 C13 C18 69.81(19) . . . . ? 
C18 C13 C14 C15 0.1(4) . . . . ? 
Si1 C13 C14 C15 177.9(2) . . . . ? 
C13 C14 C15 C16 -1.1(4) . . . . ? 
C14 C15 C16 C17 1.4(4) . . . . ? 
C15 C16 C17 C18 -0.7(4) . . . . ? 
C16 C17 C18 C13 -0.3(3) . . . . ? 
C14 C13 C18 C17 0.6(3) . . . . ? 
Si1 C13 C18 C17 -177.26(18) . . . . ? 
C12 Si1 C19 C20 28.74(19) . . . . ? 
C13 Si1 C19 C20 -91.66(18) . . . . ? 
C25 Si1 C19 C20 144.44(17) . . . . ? 
C12 Si1 C19 C24 -153.59(18) . . . . ? 
C13 Si1 C19 C24 86.01(19) . . . . ? 
C25 Si1 C19 C24 -37.9(2) . . . . ? 
C24 C19 C20 C21 -0.9(3) . . . . ? 
Si1 C19 C20 C21 176.91(16) . . . . ? 
C19 C20 C21 C22 -1.1(3) . . . . ? 
C20 C21 C22 C23 1.9(3) . . . . ? 
C21 C22 C23 C24 -0.8(4) . . . . ? 
C22 C23 C24 C19 -1.2(4) . . . . ? 
C20 C19 C24 C23 2.0(3) . . . . ? 
Si1 C19 C24 C23 -175.74(18) . . . . ? 
C12 Si1 C25 C30 -112.69(18) . . . . ? 
C13 Si1 C25 C30 5.6(2) . . . . ? 
C19 Si1 C25 C30 130.79(17) . . . . ? 
C12 Si1 C25 C26 62.75(19) . . . . ? 
C13 Si1 C25 C26 -178.97(16) . . . . ? 
C19 Si1 C25 C26 -53.77(19) . . . . ? 
C30 C25 C26 C27 0.4(3) . . . . ? 
Si1 C25 C26 C27 -175.18(17) . . . . ? 
C25 C26 C27 C28 0.2(3) . . . . ? 
C26 C27 C28 C29 -0.6(4) . . . . ? 
C27 C28 C29 C30 0.4(4) . . . . ? 
C28 C29 C30 C25 0.2(4) . . . . ? 
C26 C25 C30 C29 -0.6(3) . . . . ? 
Si1 C25 C30 C29 174.95(18) . . . . ? 
 
_refine_diff_density_max    0.379 
_refine_diff_density_min   -0.444 
_refine_diff_density_rms    0.057 
 
_iucr_refine_instructions_details 
; 
 
    x14456.res created by SHELXL-2014/7 
 
 
TITL x14456 - P2(1)/n 
CELL  1.54178  15.5057   8.3105  17.7097   90.000  101.117   90.000 
ZERR        2   0.0003   0.0002   0.0004    0.000    0.001    0.000 
LATT  1 
SYMM 1/2-X, 1/2+Y, 1/2-Z 
SFAC C H F SI S 
UNIT 116 72 4 4 4 
TEMP 183 
SIZE 0.25 0.02 0.02 
REM COLR red 
REM FORM needle 
L.S. 8 
BOND $H 
CONF 
ACTA 
LIST 4 
FMAP 2 
PLAN 5 
REM EXTI    0.00013(16) not significant. 
WGHT    0.062500    1.300600 
FVAR       0.14880   0.52230 
SI1   4    0.528490    0.237783    0.814178    11.00000    0.01964    0.01228 = 
         0.01477   -0.00149    0.00219   -0.00061 
C1    1    0.503291    0.038724    0.578230    11.00000    0.01566    0.01124 = 
         0.01534    0.00043    0.00128    0.00141 
C2    1    0.535270    0.150472    0.529848    11.00000    0.01517    0.01045 = 
         0.01711    0.00128    0.00009    0.00149 
C3    1    0.571826    0.300374    0.558830    11.00000    0.02011    0.01151 = 
         0.01561   -0.00128    0.00183    0.00103 
AFIX  43 
H3    2    0.575240    0.326373    0.610399    11.00000   -1.20000 
AFIX   0 
EXYZ C4 C4' 
EXYZ C8 C8' 
EADP C4 C4' 
EADP S5 C5' 
EADP C6 C6' 
EADP F1 F1' 
EADP C7 S7' 
EADP C8 C8' 
SAME C8' < C4' 
RIGU C4 > C8' 
PART 1 
C4    1    0.601900    0.406038    0.510760    21.00000    0.01630    0.01037 = 
         0.02293    0.00074    0.00017    0.00143 
S5    5    0.647421    0.591834    0.535976    21.00000    0.02215    0.00744 = 
         0.02524   -0.00011    0.00214   -0.00547 
C6    1    0.655974    0.620590    0.440123    21.00000    0.01992    0.01267 = 
         0.02351    0.00531    0.00107   -0.00461 
F1    3    0.691073    0.759936    0.423908    21.00000    0.03041    0.01535 = 
         0.03337    0.00544    0.00344   -0.00947 
C7    1    0.628033    0.496487    0.391077    21.00000    0.02287    0.01294 = 
         0.02302    0.00514    0.00337   -0.00523 
AFIX  43 
H7    2    0.629474    0.495782    0.338822    21.00000   -1.20000 
AFIX   0 
C8    1    0.596604    0.369251    0.431191    21.00000    0.01546    0.01287 = 
         0.02040    0.00330    0.00211    0.00068 
PART 2 
C4'   1    0.601900    0.406038    0.510760   -21.00000    0.01630    0.01037 = 
         0.02293    0.00074    0.00017    0.00143 
C5'   1    0.640321    0.563099    0.530579   -21.00000    0.02215    0.00744 = 
         0.02524   -0.00011    0.00214   -0.00547 
AFIX  43 
H5'   2    0.650387    0.607797    0.579638   -21.00000   -1.20000 
AFIX   0 
F1'   3    0.693259    0.783489    0.462366   -21.00000    0.03041    0.01535 = 
         0.03337    0.00544    0.00344   -0.00947 
C6'   1    0.659568    0.635815    0.466732   -21.00000    0.01992    0.01267 = 
         0.02351    0.00531    0.00107   -0.00461 
S7'   5    0.637494    0.526798    0.381267   -21.00000    0.02287    0.01294 = 
         0.02302    0.00514    0.00337   -0.00523 
C8'   1    0.596604    0.369251    0.431191   -21.00000    0.01546    0.01287 = 
         0.02040    0.00330    0.00211    0.00068 
PART 0 
C9    1    0.562045    0.225742    0.401486    11.00000    0.01755    0.01484 = 
         0.01587    0.00154    0.00238    0.00139 
AFIX  43 
H9    2    0.558413    0.203014    0.349549    11.00000   -1.20000 
AFIX   0 
C10   1    0.531770    0.111734    0.450208    11.00000    0.01655    0.01034 = 
         0.01698    0.00057    0.00240    0.00168 
C11   1    0.506511    0.082527    0.656768    11.00000    0.01730    0.00928 = 
         0.02044    0.00142    0.00278   -0.00047 
C12   1    0.511751    0.131378    0.721461    11.00000    0.02216    0.01290 = 
         0.02026    0.00084    0.00462   -0.00191 
C13   1    0.572402    0.093931    0.892955    11.00000    0.02170    0.01762 = 
         0.01991    0.00147    0.00394   -0.00108 
C14   1    0.598543   -0.060317    0.876971    11.00000    0.04530    0.02035 = 
         0.02398    0.00176    0.00978    0.00784 
AFIX  43 
H14   2    0.592303   -0.093670    0.826078    11.00000   -1.20000 
AFIX   0 
C15   1    0.633956   -0.165747    0.936026    11.00000    0.05120    0.02406 = 
         0.03884    0.00957    0.01551    0.01389 
AFIX  43 
H15   2    0.650264   -0.269278    0.924599    11.00000   -1.20000 
AFIX   0 
C16   1    0.644659   -0.115865    1.011299    11.00000    0.02789    0.03233 = 
         0.03344    0.01621    0.00443    0.00507 
AFIX  43 
H16   2    0.669481   -0.185257    1.050739    11.00000   -1.20000 
AFIX   0 
C17   1    0.618848    0.036360    1.028748    11.00000    0.03048    0.03221 = 
         0.01789    0.00238    0.00172   -0.00384 
AFIX  43 
H17   2    0.625604    0.069088    1.079770    11.00000   -1.20000 
AFIX   0 
C18   1    0.582782    0.140304    0.969818    11.00000    0.02855    0.02110 = 
         0.02108   -0.00229    0.00175   -0.00165 
AFIX  43 
H18   2    0.565226    0.242667    0.981781    11.00000   -1.20000 
AFIX   0 
C19   1    0.420814    0.326706    0.824539    11.00000    0.02207    0.01410 = 
         0.01694    0.00214    0.00302   -0.00070 
C20   1    0.342096    0.254359    0.789498    11.00000    0.02672    0.01942 = 
         0.02233   -0.00344    0.00429   -0.00241 
AFIX  43 
H20   2    0.343730    0.164062    0.758786    11.00000   -1.20000 
AFIX   0 
C21   1    0.261380    0.313852    0.799351    11.00000    0.01957    0.02793 = 
         0.02489    0.00211    0.00187   -0.00401 
AFIX  43 
H21   2    0.209649    0.264793    0.774728    11.00000   -1.20000 
AFIX   0 
C22   1    0.258193    0.446319    0.845909    11.00000    0.02320    0.02239 = 
         0.03406    0.00554    0.00733    0.00552 
AFIX  43 
H22   2    0.204419    0.484931    0.854010    11.00000   -1.20000 
AFIX   0 
C23   1    0.335435    0.521063    0.880362    11.00000    0.02981    0.01881 = 
         0.04317   -0.00984    0.00791    0.00213 
AFIX  43 
H23   2    0.333370    0.611007    0.911207    11.00000   -1.20000 
AFIX   0 
C24   1    0.415863    0.463241    0.869368    11.00000    0.02407    0.01883 = 
         0.03433   -0.00554    0.00217   -0.00041 
AFIX  43 
H24   2    0.467195    0.516042    0.892137    11.00000   -1.20000 
AFIX   0 
C25   1    0.610731    0.400670    0.808700    11.00000    0.02044    0.01474 = 
         0.01957   -0.00469    0.00476    0.00141 
C26   1    0.591814    0.524809    0.754419    11.00000    0.02344    0.01868 = 
         0.02169   -0.00173    0.00158   -0.00393 
AFIX  43 
H26   2    0.536193    0.530648    0.723423    11.00000   -1.20000 
AFIX   0 
C27   1    0.654089    0.638306    0.746143    11.00000    0.03694    0.01961 = 
         0.02767   -0.00079    0.00858   -0.00574 
AFIX  43 
H27   2    0.640182    0.719854    0.709875    11.00000   -1.20000 
AFIX   0 
C28   1    0.737520    0.631326    0.791764    11.00000    0.02927    0.02546 = 
         0.04051   -0.00567    0.01129   -0.01163 
AFIX  43 
H28   2    0.779802    0.707287    0.785959    11.00000   -1.20000 
AFIX   0 
C29   1    0.757259    0.509498    0.846285    11.00000    0.01869    0.02800 = 
         0.04692   -0.00878    0.00225   -0.00311 
AFIX  43 
H29   2    0.812885    0.504235    0.877303    11.00000   -1.20000 
AFIX   0 
C30   1    0.694681    0.396852    0.854397    11.00000    0.02454    0.01762 = 
         0.03130   -0.00189    0.00131    0.00204 
AFIX  43 
H30   2    0.708683    0.316335    0.891190    11.00000   -1.20000 
 
AFIX   0 
HKLF 4 
 
REM  x14456 - P2(1)/n 
REM R1 =  0.0418 for    3378 Fo > 4sig(Fo)  and  0.0526 for all    4039 data 
REM    302 parameters refined using     91 restraints 
 
END 
 
WGHT      0.0625      1.3052 
 
REM Highest difference peak  0.379,  deepest hole -0.444,  1-sigma level  0.057 
Q1    1   0.5459  0.1544  0.8594  11.00000  0.05    0.38 
Q2    1   0.5788  0.3430  0.8201  11.00000  0.05    0.35 
Q3    1   0.5227  0.1833  0.7632  11.00000  0.05    0.33 
Q4    1   0.4629  0.2799  0.8158  11.00000  0.05    0.32 
Q5    1   0.6118  0.2001  0.9285  11.00000  0.05    0.27 
; 
_shelx_res_checksum   36274 
 
_shelx_hkl_file
;
  -1   0   0   -0.26    0.26
  -1   0   0    0.12    0.24
  -1   0   0    0.15    0.17
  -1   0   0   -0.29    0.12
   1   0   0   -0.25    0.22
   1   0   0   -0.08    0.29
   1   0   0   -0.19    0.16
   1   0   0    0.03    0.12
  -2   0   0  112.05    6.29
   2   0   0  108.47    6.53
  -2   0   0  114.73    6.42
  -2   0   0  116.24    6.41
   2   0   0  116.70    6.47
   2   0   0  101.51    6.57
  -2   0   0  106.34    7.10
   2   0   0  106.72    6.28
   2   0   0  117.67    6.39
  -2   0   0  111.54    6.53
  -3   0   0   -0.23    0.70
  -3   0   0   -0.32    0.46
   3   0   0   -0.19    0.33
  -3   0   0    0.05    0.63
   3   0   0   -0.07    0.61
   3   0   0    0.80    0.82
   3   0   0   -0.13    0.43
  -3   0   0    0.07    0.42
  -3   0   0   -0.03    0.36
   3   0   0    0.26    0.28
   4   0   0  166.87    9.47
   4   0   0  161.88    9.62
  -4   0   0  169.06    9.52
  -4   0   0  157.30   10.45
  -4   0   0  161.95    9.28
  -4   0   0  163.02    9.63
   4   0   0  160.35    9.27
   4   0   0  159.85    9.61
   4   0   0  160.60    9.67
  -4   0   0  170.40    9.53
  -5   0   0   -0.44    0.65
   5   0   0   -0.30    0.33
   5   0   0   -0.19    0.57
  -5   0   0   -0.61    0.92
   5   0   0   -0.39    0.82
  -5   0   0    0.30    0.55
  -5   0   0   -1.25    0.49
  -5   0   0   -0.23    0.79
   5   0   0    0.86    1.09
   5   0   0   -0.47    0.45
  -6   0   0    0.06    0.50
   6   0   0   -0.11    0.49
  -6   0   0   -0.16    0.77
   6   0   0   -2.31    0.99
  -6   0   0   -0.19    0.47
  -6   0   0    0.90    0.75
   6   0   0    0.31    0.46
  -6   0   0   -0.08    0.55
   6   0   0    0.82    0.68
   6   0   0    0.57    0.29
  -7   0   0   -0.95    0.74
  -7   0   0    1.15    1.06
  -7   0   0    0.65    0.85
   7   0   0    0.47    1.09
   7   0   0   -0.11    0.97
  -7   0   0   -0.35    0.57
   7   0   0   -0.66    0.62
  -7   0   0    0.07    0.61
   7   0   0   -0.09    0.36
   7   0   0    0.27    0.50
   8   0   0   41.95    3.78
  -8   0   0   56.47    3.47
   8   0   0   50.14    3.31
   8   0   0   52.68    3.39
  -8   0   0   53.08    3.41
  -9   0   0   -0.09    0.65
  -9   0   0    1.45    0.96
 -11   0   0   -0.43    0.41
 -12   0   0   25.62    1.66
 -13   0   0    0.21    0.49
 -14   0   0    0.79    0.54
  15   0   0    0.42    0.40
 -15   0   0   -0.67    0.34
  16   0   0    7.21    0.64
 -17   0   0   -0.01    0.30
   0   1   0    0.11    0.25
   0   1   0   -0.34    0.29
   0   1   0    0.12    0.27
   0   1   0    0.05    0.28
   1  -1   0    2.12    0.36
  -1  -1   0    1.21    0.33
   1  -1   0    1.52    0.29
  -1  -1   0    1.44    0.30
  -1   1   0    1.79    0.23
  -1   1   0    1.36    0.17
   1   1   0    1.82    0.30
   1   1   0    1.45    0.36
   1   1   0    1.39    0.25
   1   1   0    1.35    0.26
   1   1   0    1.75    0.19
   1   1   0    1.60    0.21
  -1   1   0    1.74    0.25
  -1   1   0    1.47    0.20
   1   1   0    2.05    0.37
   1   1   0    1.57    0.41
  -1   1   0    1.31    0.44
  -1   1   0    1.88    0.32
  -1   1   0    1.66    0.21
  -1   1   0    2.11    0.37
   1   1   0    1.71    0.36
  -1   1   0    1.53    0.32
  -1   1   0    1.65    0.18
  -2  -1   0    7.38    0.65
  -2  -1   0    8.73    0.86
   2  -1   0    8.58    0.86
   2  -1   0    8.92    0.82
  -2  -1   0   10.49    0.89
  -2   1   0    8.46    0.64
   2   1   0    6.76    0.60
  -2   1   0    9.30    0.82
   2   1   0    9.46    0.71
  -2   1   0    8.05    0.66
   2   1   0    8.59    0.86
   2   1   0    8.14    0.89
   2   1   0    7.73    0.70
   2   1   0    7.72    0.81
  -2   1   0    7.88    0.62
  -2   1   0    8.77    0.82
   2   1   0    7.93    0.65
  -2   1   0    8.97    0.82
  -2   1   0    9.41    0.71
  -3  -1   0  616.98   33.80
   3  -1   0  618.06   33.85
  -3  -1   0  612.21   33.82
   3  -1   0  528.97   34.91
  -3  -1   0  572.41   33.59
  -3  -1   0  559.45   34.93
   3  -1   0  643.52   33.78
   3   1   0  619.19   34.93
   3   1   0  573.48   35.33
  -3   1   0  597.28   34.92
   3   1   0  621.89   33.58
   3   1   0  555.83   34.92
   3   1   0  600.15   33.86
  -3   1   0  604.18   38.08
   3   1   0  608.32   33.78
  -3   1   0  615.10   33.81
  -3   1   0  639.70   33.59
  -4  -1   0  666.91   42.29
   4  -1   0  681.53   42.27
   4  -1   0  748.48   41.02
  -4  -1   0  746.77   40.99
   4  -1   0  766.77   40.92
   4  -1   0  700.39   40.65
  -4  -1   0  715.15   40.94
  -4  -1   0  667.98   40.67
   4   1   0  682.30   40.99
   4   1   0  740.26   40.92
   4   1   0  741.79   42.28
  -4   1   0  732.43   46.09
   4   1   0  750.64   40.66
  -4   1   0  774.53   40.68
  -4   1   0  738.07   40.92
  -4   1   0  752.65   40.97
  -4   1   0  749.88   42.29
   4   1   0  690.67   42.75
  -5  -1   0   98.07    5.80
   5  -1   0   96.82    5.97
  -5  -1   0   87.93    5.69
   5  -1   0   95.43    5.80
  -5  -1   0   94.41    5.90
   5  -1   0   88.58    5.51
  -5  -1   0   85.45    5.57
   5  -1   0   92.56    5.68
   5   1   0   87.43    5.84
  -5   1   0   98.90    5.79
  -5   1   0   96.59    5.57
  -5   1   0  100.60    5.72
   5   1   0   97.03    5.82
  -5   1   0   96.10    6.27
   5   1   0   97.05    5.54
   5   1   0   96.20    5.75
   5   1   0   96.99    5.68
  -5   1   0   93.78    5.86
   6  -1   0  148.93    9.16
  -6  -1   0  149.38    9.29
  -6  -1   0  140.20    8.91
  -6  -1   0  142.11    9.18
   6  -1   0  140.26    8.84
   6  -1   0  149.24    9.28
  -6  -1   0  164.69    9.28
   6  -1   0  157.76    9.16
  -6   1   0  156.88    8.91
   6   1   0  160.69    9.17
  -6   1   0  160.74   10.04
  -6   1   0  158.76    9.19
   6   1   0  168.38    9.25
  -6   1   0  146.11    9.12
   6   1   0  163.56    8.88
   6   1   0  152.59    9.19
   6   1   0  148.01    9.32
  -6   1   0  151.97    9.22
  -7  -1   0    0.88    0.98
   7  -1   0    0.57    1.14
  -7   1   0    1.59    0.79
   7   1   0    0.45    0.68
  -7   1   0    1.88    1.08
   7   1   0   -0.01    0.99
  -7   1   0    0.31    0.60
   7   1   0    0.47    0.47
   7   1   0    0.43    0.53
  -7   1   0   -0.11    0.67
   7   1   0    0.03    0.97
  -8   1   0   -0.11    0.80
   8   1   0    1.40    0.76
   8   1   0    0.51    0.44
  -8   1   0    0.75    0.65
   8   1   0   -0.58    0.53
  -8   1   0   -0.21    0.86
   8   1   0    0.73    1.17
  -9   1   0    4.76    1.13
  -9   1   0    6.37    0.98
   9   1   0    6.79    0.94
   9   1   0    7.05    1.09
  -9   1   0    5.37    1.01
  10   1   0   11.05    0.83
 -10   1   0   12.18    1.37
 -10   1   0   12.63    1.41
 -10   1   0   12.97    0.93
 -11   1   0    4.08    0.44
 -11   1   0    4.14    1.24
 -11   1   0    1.74    0.92
  11   1   0    3.44    0.43
 -12   1   0   62.76    3.38
  12   1   0   57.63    3.31
  13   1   0    7.38    0.64
 -13   1   0    8.02    0.73
 -14   1   0   -0.18    0.47
 -14   1   0    0.14    0.65
  14   1   0    0.19    0.28
 -15  -1   0    3.27    0.61
 -15   1   0    2.10    0.74
  15   1   0    1.85    0.43
 -15   1   0    2.82    0.54
 -16  -1   0   -0.51    0.49
 -16   1   0   -0.90    0.42
  16   1   0    0.47    0.27
 -17  -1   0    5.99    0.67
 -17   1   0    7.61    0.61
  17   1   0    7.87    0.67
 -18  -1   0    0.45    0.25
 -18   1   0    0.67    0.41
  18   1   0    0.44    0.15
 -18   1   0    0.63    0.33
   0   2   0   37.08    2.42
   0   2   0   35.15    2.57
   0   2   0   34.54    2.29
   0   2   0   38.75    2.44
  -1  -2   0   73.83    4.09
   1  -2   0   74.63    4.01
  -1  -2   0   76.71    4.11
   1  -2   0   70.41    4.00
  -1   2   0   66.91    4.30
  -1   2   0   70.53    4.74
   1   2   0   66.84    4.63
  -1   2   0   74.07    3.99
  -1   2   0   71.66    4.14
   1   2   0   73.07    4.02
   1   2   0   75.36    4.10
  -1   2   0   71.04    4.01
   1   2   0   70.30    4.02
  -1   2   0   71.91    4.01
   1   2   0   71.36    4.17
  -1   2   0   71.53    4.14
   1   2   0   68.60    4.50
   1   2   0   66.42    4.51
   1   2   0   72.14    4.08
  -1   2   0   70.32    3.99
   1   2   0   73.25    4.17
  -1   2   0   66.75    4.50
   1   2   0   64.00    4.36
  -1   2   0   69.16    4.48
   2  -2   0   13.79    1.01
  -2  -2   0   14.50    1.11
  -2  -2   0   13.69    1.06
   2  -2   0   13.17    1.07
   2   2   0   13.02    0.94
  -2   2   0   12.59    0.90
   2   2   0   12.73    0.95
  -2   2   0   13.93    1.05
   2   2   0   12.37    1.21
  -2   2   0   13.41    0.87
  -2   2   0   11.89    0.91
   2   2   0   12.07    1.21
  -2   2   0   11.85    0.85
   2   2   0   12.53    0.86
   2   2   0   12.05    0.89
  -2   2   0   12.43    0.88
   2   2   0   12.44    1.20
  -2   2   0   13.05    1.02
  -2   2   0   14.22    1.16
  -2   2   0   12.51    1.37
   2   2   0   13.68    1.02
  -2   2   0   12.74    1.25
   2   2   0   11.76    0.95
   3  -2   0    1.88    0.65
  -3  -2   0    2.26    0.72
   3  -2   0    2.32    0.56
  -3  -2   0    2.89    0.78
  -3   2   0    1.85    0.44
   3   2   0    1.64    0.42
   3   2   0    1.06    0.66
   3   2   0    2.17    0.81
  -3   2   0    3.13    0.76
  -3   2   0    1.22    0.59
   3   2   0    1.66    0.33
   3   2   0    1.65    0.50
  -3   2   0    1.82    0.37
  -3   2   0    1.24    0.57
   3   2   0    1.43    0.62
   3   2   0    1.99    0.45
   3   2   0    1.79    0.61
  -3   2   0    1.75    0.51
  -3   2   0    1.46    0.41
  -3   2   0    1.41    0.37
   4  -2   0   93.59    5.43
  -4  -2   0   91.64    5.38
   4  -2   0   91.80    5.31
  -4  -2   0   88.70    5.42
   4   2   0   86.79    5.43
   4   2   0   82.41    5.26
   4   2   0   96.07    5.28
  -4   2   0   90.59    5.68
  -4   2   0   88.35    5.12
   4   2   0   73.57    5.11
  -4   2   0   87.54    5.35
  -4   2   0   81.16    5.08
  -4   2   0   81.43    5.24
   4   2   0   88.74    5.33
   4   2   0   84.36    5.41
  -4   2   0   92.84    5.27
  -4   2   0   89.12    5.88
   4   2   0   94.04    5.12
  -4   2   0   89.87    5.29
   5  -2   0   93.01    5.88
  -5  -2   0   93.87    5.84
  -5  -2   0   83.31    5.85
   5  -2   0   96.13    5.77
   5   2   0  101.14    5.54
  -5   2   0   82.01    5.48
   5   2   0   87.50    5.77
  -5   2   0   97.59    6.37
  -5   2   0   95.35    5.68
  -5   2   0   92.32    5.73
  -5   2   0   96.40    6.15
  -5   2   0   98.78    5.86
   5   2   0   92.60    5.82
   5   2   0  102.43    5.69
  -5   2   0   96.71    5.55
  -6  -2   0    6.50    1.20
   6   2   0    5.25    1.08
  -6   2   0    5.02    0.93
   6   2   0    5.29    1.13
  -6   2   0    6.51    0.79
   6   2   0    7.98    0.79
  -6   2   0    7.71    1.24
  -6   2   0    6.95    1.11
   6   2   0    6.27    0.74
  -6   2   0    5.85    0.90
   6   2   0    7.07    0.89
   7   2   0   22.62    1.63
  -7   2   0   20.34    1.64
  -7   2   0   18.93    2.04
  -7   2   0   20.18    1.78
   7   2   0   19.94    1.58
   7   2   0   21.80    1.74
   8   2   0  137.85    8.01
   8   2   0  133.26    8.29
  -8   2   0  126.66    9.07
   8   2   0  135.91    8.20
  -8   2   0  139.42    8.06
  -8   2   0  137.97    8.24
   9   2   0  101.38    6.14
   9   2   0  102.28    6.06
  -9   2   0   90.02    5.28
  -9   2   0  104.92    6.12
   9   2   0  101.76    6.13
  -9   2   0  102.47    6.84
   9   2   0   90.49    5.26
  -9   2   0  100.03    6.17
  10   2   0    2.21    0.45
 -10   2   0    2.93    0.42
 -10   2   0    4.90    1.35
 -10   2   0    2.98    0.85
 -10   2   0    3.18    1.08
 -10   2   0    2.32    0.58
  10   2   0    3.51    0.69
 -10   2   0    2.66    0.52
 -10   2   0    3.19    0.45
  10   2   0    3.19    0.37
  10   2   0    1.58    0.44
 -10   2   0    3.14    0.91
  10   2   0    1.76    0.97
 -11   2   0   27.08    1.80
  11   2   0   24.63    1.66
 -11   2   0   23.29    1.68
  11   2   0   21.48    2.14
 -11   2   0   31.28    2.56
 -11   2   0   25.38    2.02
  11   2   0   21.60    2.25
 -11   2   0   23.53    2.24
  11   2   0   26.50    1.51
 -11   2   0   27.38    1.56
 -11   2   0   26.39    2.72
  12   2   0   11.29    1.01
 -12   2   0   10.44    0.98
 -12   2   0    7.74    1.57
 -12   2   0    9.56    1.04
 -12   2   0   11.79    1.87
 -12   2   0   10.66    0.88
 -12   2   0    7.11    1.32
  12   2   0   10.96    0.82
  13   2   0    1.23    1.50
 -13   2   0    0.97    0.42
  13   2   0    0.28    0.50
 -13   2   0    1.83    1.80
  13   2   0    0.50    0.36
 -13   2   0    0.32    0.62
 -14   2   0    5.33    0.56
  14   2   0    4.48    0.68
 -14   2   0    5.17    0.81
  14   2   0    5.94    0.54
  15   2   0   19.77    1.48
 -15   2   0   19.35    1.23
 -15   2   0   19.34    1.58
  15   2   0   20.45    1.19
 -16   2   0    5.09    0.60
 -16   2   0    5.04    0.89
 -16   2   0    3.81    0.34
  16   2   0    4.01    0.51
 -17  -2   0    5.17    0.53
  17   2   0    7.71    0.73
 -17   2   0    6.05    0.60
  17   2   0    6.02    0.45
 -17   2   0    5.06    0.69
   0   3   0    0.33    0.62
   0   3   0   -0.57    0.50
   0   3   0    0.44    0.57
   0   3   0    0.78    0.63
  -1   3   0   48.08    3.13
   1   3   0   47.10    3.12
  -1   3   0   46.63    3.30
   1   3   0   48.52    3.13
   1   3   0   45.98    3.04
   1   3   0   43.10    3.19
  -1   3   0   46.52    2.94
  -1   3   0   43.88    3.09
  -2  -3   0    1.05    0.46
  -2  -3   0    1.04    0.41
   2   3   0    0.64    0.28
   2   3   0    0.79    0.65
   2   3   0    0.55    0.19
   2   3   0    0.96    0.26
   2   3   0    1.18    0.35
   2   3   0    1.09    0.43
   2   3   0    0.55    0.66
   2   3   0    0.88    0.29
  -2   3   0    1.31    0.73
   2   3   0    0.40    0.36
  -2   3   0    1.15    0.59
  -2   3   0    0.86    0.34
  -2   3   0    0.15    0.80
  -3  -3   0    5.30    0.79
   3  -3   0    4.96    0.65
   3  -3   0    4.79    0.65
  -3  -3   0    6.55    0.84
  -3   3   0    5.48    0.52
  -3   3   0    6.15    0.54
   3   3   0    6.05    0.57
  -3   3   0    4.40    0.95
   3   3   0    5.01    0.76
  -3   3   0    6.65    1.09
   3   3   0    4.81    0.76
   3   3   0    6.34    0.60
   3   3   0    5.66    0.59
  -3   3   0    5.60    0.52
  -3   3   0    5.64    0.71
  -3   3   0    5.45    0.50
  -3   3   0    4.68    0.48
   3   3   0    5.76    0.91
   3   3   0    4.61    0.83
  -3   3   0    5.95    0.68
   3   3   0    4.91    0.53
  -4  -3   0    8.38    1.18
   4  -3   0    9.75    0.98
  -4   3   0    9.03    1.27
  -4   3   0   10.59    1.11
   4   3   0    9.85    0.88
  -4   3   0    9.83    0.74
  -4   3   0   11.89    1.10
   4   3   0    9.66    1.05
   4   3   0    9.03    0.81
  -4   3   0    8.32    0.97
   4   3   0   10.59    1.01
  -4   3   0   10.63    0.86
   4   3   0    7.97    0.82
  -4   3   0    9.63    0.86
  -4   3   0   11.33    0.86
   4   3   0   11.43    1.23
   4   3   0    9.22    1.07
   4   3   0    6.15    1.04
   5   3   0    1.95    0.89
   5   3   0    1.76    0.71
   5   3   0    0.52    0.52
  -5   3   0    1.21    0.62
   5   3   0    0.81    0.41
  -5   3   0    1.00    0.40
  -5   3   0    1.66    0.70
  -5   3   0    0.89    0.92
   6   3   0    4.16    1.05
  -6   3   0    3.34    1.06
   6   3   0    2.91    0.58
   6   3   0    3.74    0.67
  -6   3   0    2.49    0.77
  -6   3   0    3.48    0.59
   6   3   0    3.58    0.72
  -6   3   0    2.91    1.08
  -7   3   0   16.00    1.46
  -7   3   0   18.42    1.99
  -7   3   0   17.07    1.57
   7   3   0   17.56    1.45
   7   3   0   18.14    1.58
  -7   3   0   19.11    1.87
   7   3   0   17.56    1.68
   7   3   0   19.95    2.02
  -8   3   0   45.51    2.80
   8   3   0   49.23    3.16
   8   3   0   50.02    3.50
   8   3   0   42.48    2.77
  -8   3   0   47.74    3.15
  -8   3   0   48.47    3.12
  -8   3   0   44.03    2.61
   8   3   0   49.31    3.12
   8   3   0   41.97    3.08
   8   3   0   51.20    3.29
  -8   3   0   44.64    3.72
  -8   3   0   42.66    3.29
  -8   3   0   52.15    3.07
  -8   3   0   52.04    3.81
   8   3   0   41.74    2.50
  -8   3   0   46.03    2.50
  -9   3   0    8.92    1.55
   9   3   0    8.20    0.82
   9   3   0    8.22    0.62
  -9   3   0   10.36    1.85
   9   3   0    7.21    1.13
  -9   3   0    8.47    1.11
   9   3   0   13.14    1.56
   9   3   0    8.55    0.77
   9   3   0    8.18    1.06
  -9   3   0    8.73    0.95
  -9   3   0    9.47    0.85
  -9   3   0    9.47    0.64
  -9   3   0    8.62    0.77
  -9   3   0    8.20    1.22
   9   3   0    8.47    0.80
   9   3   0    9.28    1.26
 -10   3   0    8.51    0.95
  10   3   0    8.21    0.70
  10   3   0    7.77    0.79
  10   3   0   11.21    1.79
  10   3   0    8.00    0.61
  10   3   0    6.41    0.95
 -10   3   0    6.97    1.11
  10   3   0    8.32    1.29
 -10   3   0    7.54    0.67
 -10   3   0    9.99    1.98
 -10   3   0    8.06    0.63
  10   3   0    7.09    0.68
 -10   3   0    7.98    1.30
 -10   3   0    7.36    1.52
 -10   3   0    7.86    0.77
  10   3   0    7.62    1.12
 -11   3   0    7.28    1.35
 -11   3   0    3.04    1.01
  11   3   0    5.05    0.63
  11   3   0    4.91    0.45
 -11   3   0    5.61    0.83
 -11   3   0    5.19    0.68
  11   3   0    5.71    0.54
 -11   3   0    2.37    1.84
 -11   3   0    3.77    1.38
 -11   3   0    5.57    0.70
  11   3   0    3.19    0.81
  11   3   0    5.66    1.31
  11   3   0    5.78    1.25
 -11   3   0    5.78    0.51
  11   3   0    6.03    0.66
 -12   3   0   46.86    3.46
  12   3   0   44.90    3.32
  12   3   0   49.54    2.78
 -12   3   0   41.53    4.04
 -12   3   0   50.99    3.05
  12   3   0   49.74    2.67
 -12   3   0   51.62    2.89
  12   3   0   45.27    2.97
 -12   3   0   49.79    2.67
  13   3   0    7.86    0.77
 -13   3   0    9.94    1.01
 -13   3   0    6.39    0.82
 -13   3   0    7.19    0.84
  13   3   0    7.81    0.64
 -13   3   0    7.07    0.96
 -13   3   0    7.03    0.60
 -14   3   0    6.14    0.67
 -14   3   0    6.43    0.79
  14   3   0    6.58    0.57
  14   3   0    5.60    0.62
 -14   3   0    7.25    1.06
 -15   3   0    1.23    0.43
 -15   3   0    1.73    0.63
  15   3   0    0.90    0.36
 -15   3   0    0.84    0.60
 -16   3   0    5.91    0.61
 -16   3   0    4.75    0.53
  16   3   0    4.91    0.75
 -16   3   0    5.59    0.73
  16   3   0    5.72    0.62
  17   3   0   10.65    0.81
 -17   3   0    8.40    0.65
   0   4   0    1.76    0.63
   0   4   0    1.63    0.74
   0   4   0    2.37    0.72
   0   4   0    2.19    0.74
  -1   4   0   12.77    1.28
  -1   4   0   11.50    1.13
   1   4   0   10.89    1.23
  -1   4   0   12.59    1.24
  -1   4   0   12.54    1.39
   1   4   0   12.28    1.19
   1   4   0   11.60    1.24
   1   4   0   10.98    1.18
   2   4   0    2.06    0.75
   2   4   0    0.97    0.70
  -2   4   0    1.53    0.42
  -2   4   0    1.88    0.93
  -2   4   0    2.43    0.70
   2   4   0    1.52    0.42
  -2   4   0    3.20    0.83
  -3  -4   0    0.08    0.33
   3   4   0   -0.49    0.36
   3   4   0    0.63    0.26
   3   4   0    0.00    0.70
   3   4   0    0.57    0.73
   3   4   0    0.80    0.22
   3   4   0    0.81    0.22
  -3   4   0    0.11    0.88
  -3   4   0   -0.88    0.74
   3   4   0    0.31    0.26
   4   4   0   18.87    1.33
   4   4   0   20.33    1.67
   4   4   0   23.66    1.37
  -4   4   0   19.78    1.20
  -4   4   0   22.27    1.95
  -4   4   0   21.73    2.20
   4   4   0   19.74    1.90
   4   4   0   18.99    1.32
  -4   4   0   19.28    1.20
   4   4   0   19.87    1.36
  -5   4   0   19.06    1.98
   5   4   0   19.96    1.83
   5   4   0   19.23    1.43
  -5   4   0   18.42    1.32
  -5   4   0   19.53    1.33
   5   4   0   21.90    2.00
   5   4   0   21.22    1.45
  -5   4   0   17.93    1.26
  -5   4   0   19.08    1.36
  -5   4   0   19.09    2.08
   6   4   0    1.76    1.05
  -6   4   0    1.25    0.29
  -6   4   0    2.51    0.61
  -6   4   0    1.07    0.28
  -6   4   0    1.88    1.17
  -6   4   0    1.83    0.50
   6   4   0    1.33    0.67
   6   4   0    1.11    0.26
  -6   4   0    1.91    0.57
  -6   4   0    1.35    0.37
   6   4   0    0.98    0.28
   6   4   0    1.32    0.60
   6   4   0    1.39    0.46
   6   4   0    2.75    0.62
   6   4   0    1.60    0.47
  -6   4   0    1.66    1.09
   7   4   0    1.60    0.89
   7   4   0    2.53    0.70
  -7   4   0    1.64    0.61
  -7   4   0    1.41    1.18
  -7   4   0    3.41    1.31
  -7   4   0    0.33    0.68
   7   4   0    0.87    0.82
   7   4   0    1.60    0.46
  -7   4   0    0.74    0.54
   7   4   0    1.29    0.33
  -7   4   0    1.09    0.34
   7   4   0    1.02    0.44
   7   4   0    1.16    0.30
   7   4   0    1.88    0.58
  -7   4   0    1.05    0.64
  -7   4   0    0.58    0.43
  -7   4   0    0.94    0.34
   7   4   0    1.68    0.50
  -7   4   0    1.29    0.50
   7   4   0    1.55    0.42
   8   4   0    1.93    0.40
   8   4   0    2.57    0.80
  -8   4   0    2.58    0.55
   8   4   0    3.22    0.50
  -8   4   0    2.93    1.08
  -8   4   0    1.99    0.59
   8   4   0    2.96    0.65
  -8   4   0    3.32    0.46
   8   4   0    3.82    0.99
  -8   4   0    1.26    0.86
  -8   4   0    3.42    0.59
  -8   4   0    3.20    0.78
   8   4   0    3.34    1.34
   8   4   0    2.96    0.27
  -8   4   0    2.99    0.40
   8   4   0    2.27    0.39
  -8   4   0    4.32    0.78
   8   4   0    2.18    0.56
  -8   4   0    3.35    1.12
   8   4   0    2.85    0.68
  -9   4   0    2.81    0.62
  -9   4   0    2.68    0.39
   9   4   0    2.59    0.87
   9   4   0    3.20    0.57
  -9   4   0    2.49    0.71
   9   4   0    3.28    0.99
   9   4   0    3.32    1.16
   9   4   0    2.65    0.37
  -9   4   0    2.73    1.40
   9   4   0    3.04    0.27
   9   4   0    2.55    0.78
  -9   4   0    2.16    0.44
   9   4   0    3.33    0.45
  -9   4   0    2.82    0.73
  -9   4   0    3.30    1.61
  -9   4   0    1.67    0.81
   9   4   0    2.47    0.46
  -9   4   0    1.79    0.83
 -10   4   0    0.04    0.64
 -10   4   0    1.42    1.36
 -10   4   0    0.38    1.69
  10   4   0    0.47    0.72
 -10   4   0    0.61    0.51
  10   4   0    0.48    0.47
 -10   4   0    0.76    0.48
  10   4   0    0.47    0.87
 -10   4   0    0.32    0.39
  10   4   0    0.76    0.53
  10   4   0   -1.70    0.93
  10   4   0    0.26    0.18
 -10   4   0    1.23    0.54
  10   4   0    0.08    0.42
 -10   4   0    1.07    0.82
  10   4   0   -0.28    0.37
 -10   4   0   -0.19    0.84
  10   4   0    1.73    0.92
 -11   4   0    5.77    0.68
  11   4   0    4.56    0.59
 -11   4   0    3.87    1.56
  11   4   0    4.07    1.82
 -11   4   0    4.21    1.63
 -11   4   0    5.30    0.62
  11   4   0    5.07    0.62
 -11   4   0    5.61    0.78
  11   4   0    5.05    0.40
 -11   4   0    4.99    1.04
  11   4   0    4.48    0.68
  11   4   0    5.74    0.62
  12   4   0    5.78    0.66
 -12   4   0    7.47    0.71
 -12   4   0    5.62    0.97
  12   4   0    7.14    0.78
 -12   4   0    6.83    0.75
 -12   4   0    6.25    1.09
  12   4   0    7.35    0.79
  12   4   0    6.15    0.59
  12   4   0    5.72    0.38
 -13   4   0    8.23    0.75
 -13   4   0    7.27    0.88
 -13   4   0    7.35    0.97
  13   4   0    7.54    0.66
  13   4   0    7.01    0.70
 -13   4   0    7.17    0.82
  13   4   0    6.54    0.94
 -14   4   0    3.20    0.90
  14   4   0    3.33    0.58
  14   4   0    2.13    0.38
 -14   4   0    2.44    0.48
  14   4   0    2.07    0.41
 -14   4   0    2.48    0.64
 -14   4   0    0.96    0.57
  15   4   0    1.70    0.43
 -15   4   0    1.85    0.61
 -15   4   0    1.01    0.39
 -15   4   0    2.74    0.47
  15   4   0    1.65    0.65
  16   4   0    2.45    0.36
 -16   4   0    2.36    0.54
  16   4   0    1.16    0.33
  16   4   0    2.09    0.58
   0   5   0    0.32    0.73
   0   5   0   -0.38    0.67
   0   5   0    0.47    0.63
   0   5   0    0.21    0.76
   1   5   0    0.79    0.78
   1   5   0    2.10    0.77
  -1   5   0    2.03    0.78
  -1   5   0    1.63    0.91
   1   5   0    0.61    0.74
  -1   5   0    2.21    0.83
  -1   5   0    2.02    0.48
   1   5   0    1.54    0.61
  -2   5   0    5.71    1.22
   2   5   0    6.91    1.02
  -2   5   0    5.62    0.97
  -2   5   0    4.12    0.97
   2   5   0    6.29    1.06
   2   5   0    5.62    0.62
  -2   5   0    3.87    0.61
  -3   5   0   32.09    2.57
  -3   5   0   32.38    2.22
   3   5   0   33.63    2.20
  -3   5   0   34.14    2.25
  -3   5   0   31.88    2.91
   3   5   0   31.37    1.76
   3   5   0   29.40    2.28
   3   5   0   33.17    2.61
   3   5   0   31.01    2.27
  -3   5   0   31.83    2.36
   3   5   0   35.62    2.59
  -4   5   0   -0.22    0.56
  -4   5   0    0.23    0.54
   4   5   0    0.35    0.35
   4   5   0    0.89    0.47
  -4   5   0    0.26    0.37
  -4   5   0    0.05    0.88
   4   5   0   -0.32    0.90
  -4   5   0   -0.86    1.00
   4   5   0    0.36    0.30
   4   5   0    0.21    0.57
  -4   5   0   -0.09    0.15
  -4   5   0    0.99    0.48
  -4   5   0   -0.35    0.38
   4   5   0    0.22    0.46
   4   5   0   -0.42    0.51
   4   5   0    0.17    0.21
   5   5   0    7.40    0.76
  -5   5   0    6.80    0.64
  -5   5   0    7.21    0.72
   5   5   0    6.56    0.72
  -5   5   0    6.53    0.52
   5   5   0    7.48    0.77
  -5   5   0    5.25    1.49
   5   5   0    8.68    1.37
   5   5   0    7.84    1.22
   5   5   0    6.91    0.76
   5   5   0    5.96    0.56
  -5   5   0    6.36    0.67
  -5   5   0    5.08    1.23
  -5   5   0    6.35    0.87
  -5   5   0    5.93    0.71
   6   5   0    3.55    0.52
   6   5   0    3.97    0.38
   6   5   0    4.04    0.54
  -6   5   0    3.80    0.41
   6   5   0    5.23    1.35
  -6   5   0    3.22    1.25
  -6   5   0    4.45    0.66
   6   5   0    4.09    0.54
   6   5   0    5.11    0.53
  -6   5   0    3.76    1.18
   6   5   0    3.56    0.58
   6   5   0    3.43    0.55
  -6   5   0    3.84    0.74
  -6   5   0    3.34    0.75
   6   5   0    5.53    1.11
   6   5   0    3.37    0.34
  -6   5   0    4.04    0.58
  -7   5   0    1.64    0.33
   7   5   0    2.06    0.30
   7   5   0    2.06    0.56
   7   5   0    1.39    1.29
  -7   5   0    1.50    0.72
   7   5   0    2.24    0.52
   7   5   0    2.52    0.57
  -7   5   0    2.10    0.59
   7   5   0    1.38    0.33
  -7   5   0    1.51    0.66
  -7   5   0    0.72    1.25
   7   5   0    3.26    0.67
   7   5   0    0.56    0.98
  -7   5   0    2.15    1.08
   7   5   0    1.14    0.60
   7   5   0    1.97    0.58
  -7   5   0    1.54    0.72
   8   5   0   20.79    2.51
  -8   5   0   15.80    2.43
   8   5   0   21.99    1.79
  -8   5   0   23.90    1.39
   8   5   0   22.18    1.64
   8   5   0   23.34    1.38
  -8   5   0   20.34    2.42
   8   5   0   20.11    1.75
  -8   5   0   23.81    2.03
  -8   5   0   19.94    1.97
  -8   5   0   24.69    1.76
   8   5   0   21.34    1.73
   8   5   0   23.27    1.44
  -8   5   0   21.62    1.69
   8   5   0   21.76    2.29
   8   5   0   22.43    1.80
  -9   5   0    0.45    0.39
  -9   5   0   -0.03    0.77
   9   5   0    0.07    0.96
   9   5   0   -0.68    0.80
   9   5   0    0.51    0.38
   9   5   0    0.49    0.41
  -9   5   0    2.72    1.87
   9   5   0    0.69    0.69
  -9   5   0    0.78    0.64
  -9   5   0    0.39    1.44
   9   5   0    0.47    0.36
  -9   5   0   -0.04    0.81
  -9   5   0   -0.16    0.42
  -9   5   0    0.15    0.21
   9   5   0    0.77    1.59
 -10   5   0    8.15    1.02
  10   5   0   10.38    0.75
  10   5   0    8.26    0.93
  10   5   0    8.81    1.03
 -10   5   0    8.14    0.76
 -10   5   0    8.25    0.93
  10   5   0    8.43    0.71
 -10   5   0    8.62    0.63
  10   5   0    9.25    1.73
 -10   5   0    9.31    1.03
  11   5   0    0.83    0.44
  11   5   0    0.74    0.36
 -11   5   0    0.38    0.91
 -11   5   0   -0.07    0.48
 -11   5   0    0.85    0.22
  11   5   0    1.17    0.75
 -11   5   0    1.35    0.60
 -11   5   0    0.29    0.61
  11   5   0    0.90    0.45
 -12   5   0    0.09    0.51
 -12   5   0    0.24    0.67
  12   5   0    0.40    0.58
 -12   5   0    0.94    0.87
  12   5   0    0.77    0.53
  12   5   0    0.10    0.44
  12   5   0    0.70    0.37
 -13   5   0   14.48    1.42
 -13   5   0   14.83    1.39
  13   5   0   14.97    1.03
  13   5   0   16.40    1.28
 -13   5   0   16.02    1.19
  13   5   0   16.89    1.15
  13   5   0   13.64    1.18
  14   5   0    0.39    0.28
 -14   5   0    0.84    0.35
 -14   5   0    0.33    0.52
  14   5   0    0.49    0.49
 -14   5   0    0.67    0.55
  15   5   0    4.22    0.53
 -15   5   0    2.54    0.54
  15   5   0    4.28    0.40
   0   6   0   26.61    2.40
   0   6   0   30.19    2.09
   0   6   0   31.79    2.10
   0   6   0   30.20    2.12
   0   6   0   27.98    2.05
   0   6   0   28.78    2.04
   0   6   0   28.72    2.30
   0   6   0   27.18    1.90
   0   6   0   28.05    2.01
   0   6   0   27.93    2.21
   1   6   0    3.29    0.75
   1   6   0    3.60    0.58
  -1   6   0    3.43    0.48
  -1   6   0    3.03    0.58
  -1   6   0    4.43    0.60
  -1   6   0    4.15    0.67
  -1   6   0    3.49    0.62
  -1   6   0    3.30    0.57
  -1   6   0    2.50    0.94
   1   6   0    4.20    0.64
   1   6   0    5.00    0.67
   1   6   0    4.37    0.59
   1   6   0    2.05    0.97
   1   6   0    4.97    0.68
  -1   6   0    3.30    0.46
   1   6   0    4.03    0.62
   1   6   0    3.81    0.58
   1   6   0    3.98    0.60
  -1   6   0    2.76    1.06
  -1   6   0    3.79    0.68
   2   6   0   11.98    1.09
  -2   6   0   11.17    0.90
   2   6   0   10.75    1.00
  -2   6   0   12.05    0.98
  -2   6   0   11.22    0.94
   2   6   0   11.14    1.04
   2   6   0    9.84    1.10
  -2   6   0   10.09    1.05
   2   6   0   12.11    1.03
   2   6   0    8.30    1.38
  -2   6   0    9.62    1.02
   2   6   0   12.01    1.42
   2   6   0   12.44    1.13
  -2   6   0   10.80    1.04
   2   6   0   13.08    1.17
  -2   6   0   12.45    1.66
  -2   6   0   11.56    0.93
  -2   6   0   12.10    1.13
   3   6   0    6.93    0.81
   3   6   0    6.58    0.71
  -3   6   0    5.84    0.72
  -3   6   0    6.14    0.64
  -3   6   0    5.74    0.81
  -3   6   0    6.92    0.67
   3   6   0    5.20    1.26
   3   6   0    5.88    0.74
   3   6   0    6.89    1.03
  -3   6   0    5.21    1.44
  -3   6   0    5.34    0.75
   3   6   0    7.18    0.83
  -3   6   0    5.77    0.65
  -3   6   0    6.26    0.78
   3   6   0    6.44    0.68
   4   6   0    2.04    1.12
  -4   6   0    2.58    0.41
  -4   6   0    1.88    0.70
   4   6   0    2.40    0.63
  -4   6   0    1.58    0.74
   4   6   0    2.48    0.62
  -4   6   0    0.53    1.28
   4   6   0    2.21    0.72
   4   6   0    1.95    0.58
   4   6   0    2.81    0.46
   4   6   0    2.45    0.22
  -4   6   0    1.30    0.64
   4   6   0    2.98    1.07
  -4   6   0    1.85    0.61
   5   6   0    0.69    0.37
  -5   6   0    0.78    0.35
  -5   6   0    0.44    0.49
  -5   6   0   -0.07    1.38
   5   6   0    0.85    0.61
  -5   6   0    0.47    0.64
  -5   6   0    0.62    0.57
   5   6   0    0.82    0.43
   5   6   0    0.04    0.98
   5   6   0    0.07    0.58
  -5   6   0    0.19    0.73
   5   6   0    0.40    0.21
   6   6   0   20.26    1.83
   6   6   0   22.87    2.38
  -6   6   0   22.08    1.28
   6   6   0   23.94    1.68
  -6   6   0   25.71    1.92
  -6   6   0   25.05    1.93
   6   6   0   21.39    1.82
   6   6   0   21.94    1.31
  -6   6   0   20.21    2.45
  -6   6   0   25.92    1.79
  -6   6   0   20.48    1.92
   6   6   0   21.69    1.78
   7   6   0   24.26    1.85
  -7   6   0   18.64    2.47
  -7   6   0   23.72    1.42
  -7   6   0   24.49    1.82
   7   6   0   25.24    1.93
   7   6   0   21.15    2.21
  -7   6   0   25.46    1.87
   7   6   0   27.94    1.89
  -7   6   0   25.20    2.20
   7   6   0   23.85    1.84
   7   6   0   25.93    1.44
  -7   6   0   23.16    2.09
  -8   6   0    2.00    0.86
  -8   6   0    0.16    0.33
  -8   6   0    0.03    1.14
  -8   6   0    0.58    0.72
  -8   6   0    0.86    0.48
   8   6   0    1.00    0.73
   8   6   0    0.26    0.30
   8   6   0    0.97    0.45
   8   6   0    1.93    0.60
  -8   6   0    0.87    0.87
   9   6   0    1.32    0.75
  -9   6   0    2.06    0.68
   9   6   0    1.75    0.36
   9   6   0    1.03    0.66
  -9   6   0    2.03    0.36
  -9   6   0    0.51    0.63
  -9   6   0    1.87    0.56
   9   6   0    2.04    0.58
  10   6   0    1.87    0.51
 -10   6   0    1.24    0.69
  10   6   0    1.34    0.59
 -10   6   0    2.61    0.47
 -10   6   0    2.13    0.55
  10   6   0    1.58    0.39
 -10   6   0    2.36    0.93
  11   6   0    4.31    0.42
  11   6   0    4.96    0.62
 -11   6   0    4.05    0.79
  11   6   0    2.99    0.84
 -11   6   0    4.51    0.48
 -11   6   0    4.14    0.78
  12   6   0    2.26    0.58
 -12   6   0    2.19    0.90
  12   6   0    1.65    0.61
  12   6   0    2.12    0.40
 -12   6   0    2.43    0.65
  13   6   0   -0.10    0.46
  13   6   0    0.55    0.47
 -13   6   0    0.45    0.57
  13   6   0    0.10    0.34
 -13   6   0    0.49    0.51
 -14   6   0    0.71    0.37
 -14   6   0    1.33    0.60
  14   6   0    0.60    0.36
 -14   6   0    1.57    0.20
   0   7   0    0.87    0.65
   0   7   0    0.36    0.63
   0   7   0    0.35    0.39
   0   7   0   -0.05    0.50
   0   7   0   -0.16    0.54
   0   7   0   -0.13    0.57
   0   7   0    0.47    0.51
   0   7   0    0.05    0.50
   1   7   0    7.68    0.75
   1   7   0    6.40    0.87
   1   7   0    6.25    0.76
  -1   7   0    6.25    0.86
  -1   7   0    6.80    0.80
  -1   7   0    8.00    0.84
   1   7   0    6.28    0.72
  -1   7   0    6.84    0.88
  -1   7   0    7.86    0.78
   1   7   0    5.99    0.77
  -1   7   0    6.36    0.79
  -1   7   0    8.01    0.86
   1   7   0    6.68    0.75
  -1   7   0    7.71    0.74
   1   7   0    7.04    0.80
  -2   7   0   15.90    1.12
  -2   7   0   13.34    1.24
   2   7   0    8.27    1.51
   2   7   0   16.84    1.44
  -2   7   0   14.04    1.23
   2   7   0   14.25    1.36
   2   7   0   15.14    1.40
   2   7   0   14.89    1.26
  -2   7   0   14.37    1.27
  -2   7   0   12.81    1.41
  -2   7   0   14.65    1.25
  -2   7   0   13.24    1.32
  -2   7   0   14.96    1.21
   2   7   0   15.96    1.32
  -3   7   0    0.57    0.68
  -3   7   0    0.80    0.51
   3   7   0   -0.60    0.72
  -3   7   0   -0.48    0.76
  -3   7   0   -0.47    1.37
   3   7   0    0.11    0.38
  -3   7   0    0.04    0.58
   3   7   0   -0.43    0.55
  -3   7   0   -0.14    0.69
   3   7   0   -0.74    0.70
   3   7   0    0.18    0.43
   3   7   0    0.61    0.66
  -3   7   0    0.04    0.44
  -3   7   0    0.34    0.45
  -4   7   0   66.09    4.37
  -4   7   0   71.58    4.43
   4   7   0   64.26    4.46
   4   7   0   54.86    4.54
  -4   7   0   70.48    4.18
   4   7   0   71.52    4.43
  -4   7   0   62.39    4.44
  -4   7   0   69.01    4.76
   4   7   0   67.76    4.46
  -4   7   0   51.73    5.20
   4   7   0   64.47    4.22
  -5   7   0    1.26    0.87
   5   7   0    0.56    0.66
   5   7   0    1.14    0.67
  -5   7   0    0.98    0.55
   5   7   0    0.56    0.47
  -5   7   0    0.74    0.75
  -5   7   0    1.65    0.50
   5   7   0    1.60    0.58
   6   7   0    8.70    0.88
   6   7   0    7.09    0.93
  -6   7   0    7.20    1.16
   6   7   0    7.44    0.93
  -6   7   0    8.18    0.91
   6   7   0    7.81    0.84
  -6   7   0    8.07    0.88
  -6   7   0    7.30    0.83
  -7   7   0    0.56    0.54
  -7   7   0    0.02    0.57
  -7   7   0   -0.12    0.89
  -7   7   0    0.19    0.47
   7   7   0   -0.35    0.50
   7   7   0    0.63    0.47
   7   7   0    0.27    0.67
   7   7   0    0.08    0.13
  -8   7   0    6.01    1.07
   8   7   0    7.50    1.01
   8   7   0    9.01    0.54
  -8   7   0    8.12    1.00
   8   7   0    6.55    0.92
  -8   7   0    6.99    0.99
  -9   7   0    0.07    0.51
   9   7   0    0.15    0.20
  -9   7   0    0.71    0.92
   9   7   0    0.05    0.74
   9   7   0    0.10    0.46
  -9   7   0    0.29    0.59
 -10   7   0   10.96    1.11
  10   7   0    8.99    0.99
 -10   7   0   10.04    1.01
  10   7   0    9.70    1.04
 -10   7   0    9.43    1.10
 -11   7   0    3.72    0.72
  11   7   0    3.47    0.55
 -11   7   0    1.95    0.54
  11   7   0    2.52    0.48
  11   7   0    2.56    0.25
  12   7   0   13.54    1.08
 -12   7   0   17.15    1.15
  12   7   0   13.75    1.18
 -13   7   0    0.06    0.41
   0   8   0   44.62    3.15
   0   8   0   48.82    3.12
   0   8   0   44.95    2.85
   0   8   0   40.93    2.94
   0   8   0   42.83    3.00
   0   8   0   48.96    3.01
   0   8   0   42.87    3.06
   0   8   0   40.16    2.96
   1   8   0   11.14    1.13
  -1   8   0    8.84    0.90
  -1   8   0    9.54    0.99
  -1   8   0    9.70    0.98
  -1   8   0    7.41    0.88
   1   8   0    8.48    0.87
  -1   8   0    8.72    0.94
   1   8   0    9.93    1.08
   1   8   0    9.39    0.99
  -1   8   0   10.13    1.03
  -1   8   0    8.50    0.98
  -1   8   0    7.91    1.05
   1   8   0    9.82    0.91
   2   8   0    2.51    0.54
  -2   8   0    2.56    0.53
  -2   8   0    1.51    0.42
  -2   8   0    2.03    0.69
   2   8   0    2.33    0.49
  -2   8   0    2.13    0.41
  -2   8   0    1.83    0.56
   2   8   0    2.00    0.63
  -2   8   0    2.11    0.60
   2   8   0    2.87    0.72
  -2   8   0    2.10    0.60
  -3   8   0    0.31    0.66
   3   8   0   -0.10    0.66
   3   8   0    0.95    0.56
  -3   8   0    1.16    0.56
  -3   8   0    0.73    0.40
  -3   8   0    0.75    0.82
   3   8   0    0.80    0.68
  -3   8   0    0.79    0.46
   3   8   0   -0.45    0.61
  -4   8   0    0.16    0.61
  -4   8   0    0.86    0.50
   4   8   0    0.56    0.51
  -4   8   0    1.21    0.56
   4   8   0   -0.56    0.65
   4   8   0   -0.04    0.45
  -4   8   0    0.37    0.65
   4   8   0    0.45    0.40
  -5   8   0   -0.36    0.62
   5   8   0   -0.01    0.66
   5   8   0    0.08    0.46
  -5   8   0   -0.09    0.47
  -5   8   0    0.01    0.52
  -5   8   0    0.02    0.46
   5   8   0    0.46    0.48
   6   8   0   18.52    1.44
  -6   8   0   17.72    1.49
   6   8   0   20.44    1.67
  -6   8   0   19.66    1.87
  -6   8   0   20.73    1.56
   6   8   0   18.16    1.64
   7   8   0   20.90    1.62
   7   8   0   20.80    1.57
  -7   8   0   20.47    1.60
  -7   8   0   18.66    1.71
  -7   8   0   19.27    1.64
   8   8   0    1.16    0.63
   8   8   0    1.09    0.48
  -8   8   0   -0.85    0.64
  -8   8   0    0.52    0.46
  -9   8   0   10.89    1.19
   9   8   0   13.41    1.08
   9   8   0   14.28    1.05
  10   8   0    2.43    0.38
  10   8   0    2.20    0.42
 -10   8   0    1.09    0.79
 -11   8   0    1.48    0.44
   0   9   0    0.41    0.50
   0   9   0    0.84    0.50
   1   9   0    0.82    0.56
  -1   9   0   -0.08    0.46
   1   9   0    0.52    0.38
  -1   9   0    0.76    0.33
  -1   9   0   -0.67    0.48
  -2   9   0    1.90    0.65
   2   9   0    1.84    0.46
   2   9   0    0.91    0.45
  -2   9   0    2.25    0.58
  -2   9   0    1.87    0.42
  -3   9   0   16.18    1.26
  -3   9   0   14.81    1.30
   3   9   0   16.39    1.29
   4   9   0    2.90    0.51
  -4   9   0    2.74    0.56
  -4   9   0    2.73    0.53
   5   9   0    6.12    0.68
  -5   9   0    6.00    0.75
   6   9   0    5.76    0.59
  -6   9   0    2.59    0.79
   7   9   0    6.23    0.66
  18   0  -1    0.34    0.22
  16   0  -1    0.12    0.28
 -15   0   1   12.90    1.14
  15   0  -1   12.99    1.01
 -14   0   1    0.24    0.37
 -13   0   1   24.67    1.55
 -12   0   1    0.59    0.33
 -11   0   1   26.10    1.68
  -9   0   1    5.73    0.95
  -9   0   1    5.86    1.10
   8   0  -1   -1.05    0.51
  -8   0   1    0.08    0.63
   8   0  -1    0.59    1.18
   8   0  -1   -0.53    0.48
  -8   0   1   -0.71    0.80
  -8   0   1    0.10    0.55
  -7   0   1   44.20    3.33
  -7   0   1   41.33    3.29
   7   0  -1   46.13    2.97
   7   0  -1   45.59    2.99
  -7   0   1   45.36    3.02
  -7   0   1   48.12    3.17
  -7   0   1   45.83    3.07
   7   0  -1   46.15    3.27
   7   0  -1   43.00    3.60
   6   0  -1   -0.60    0.60
  -6   0   1    0.44    0.51
  -6   0   1   -0.19    0.45
   6   0  -1   -0.08    0.43
  -6   0   1    0.65    0.81
   6   0  -1   -0.14    0.47
   6   0  -1   -1.43    1.06
  -6   0   1    1.73    0.75
  -6   0   1   -0.12    0.55
  -5   0   1  245.86   14.54
  -5   0   1  244.02   15.04
  -5   0   1  271.60   16.36
   5   0  -1  251.55   15.04
   5   0  -1  259.68   14.90
  -5   0   1  254.36   14.76
  -5   0   1  248.40   14.81
   5   0  -1  266.91   15.14
   5   0  -1  252.74   14.76
   5   0  -1  260.68   14.51
  -4   0   1   -0.34    0.41
  -4   0   1   -0.66    0.60
  -4   0   1   -0.24    0.45
   4   0  -1    0.00    0.32
  -4   0   1    0.33    0.74
   4   0  -1   -0.88    0.75
   4   0  -1    0.23    0.53
  -4   0   1    0.41    0.85
   3   0  -1   94.69    5.74
  -3   0   1  105.81    5.92
   3   0  -1   93.70    5.94
  -3   0   1  106.35    6.47
  -3   0   1   98.20    5.95
   3   0  -1  103.80    5.97
   3   0  -1  102.04    5.88
  -3   0   1   92.64    5.77
   3   0  -1  107.55    6.01
  -3   0   1  101.38    5.91
  -2   0   1   -1.00    0.35
  -2   0   1   -0.27    0.46
   2   0  -1   -0.69    0.54
   2   0  -1   -0.80    0.48
  -2   0   1   -0.69    0.26
   2   0  -1   -0.81    0.24
  -2   0   1   -0.84    0.52
   2   0  -1   -1.01    0.32
  -2   0   1   -1.07    0.27
  -1   0   1   86.44    4.91
   1   0  -1   82.99    5.09
   1   0  -1   83.91    4.90
  -1   0   1   86.06    4.99
   1   0  -1   86.76    4.98
   1   0  -1   90.02    4.99
  -1   0   1   91.94    4.98
  -1   0   1   86.85    5.09
   0   0  -1    0.14    0.16
   0   0   1   -0.17    0.11
   0   0  -1   -0.22    0.10
   0   0  -1   -0.06    0.24
   0   0  -1   -0.18    0.11
   0   0   1   -0.06    0.17
   0   0   1   -0.16    0.21
   0   0   1   -0.19    0.11
  -1   0  -1   44.71    2.75
   1   0   1   43.46    2.75
  -1   0  -1   45.23    2.66
   1   0   1   43.66    2.66
  -1   0  -1   47.21    2.76
   1   0   1   46.71    2.77
   1   0   1   49.19    2.74
  -1   0  -1   49.61    2.77
   2   0   1   -0.21    0.55
   2   0   1   -0.61    0.19
   2   0   1   -0.21    0.42
  -2   0  -1   -0.12    0.22
  -2   0  -1   -0.29    0.41
   2   0   1   -0.22    0.37
  -2   0  -1   -0.33    0.36
   2   0   1   -0.43    0.24
  -2   0  -1    0.51    0.71
  -2   0  -1   -0.24    0.33
  -3   0  -1    2.58    0.49
  -3   0  -1    2.20    0.49
  -3   0  -1    3.85    0.62
  -3   0  -1    2.37    1.00
   3   0   1    3.71    0.39
   3   0   1    3.47    0.57
  -3   0  -1    4.29    0.80
   3   0   1    3.86    0.81
   3   0   1    2.67    0.89
   3   0   1    3.22    0.47
   4   0   1   -0.23    0.78
   4   0   1    0.44    0.69
  -4   0  -1   -0.66    0.54
   4   0   1    0.30    0.31
   4   0   1   -0.05    0.55
  -4   0  -1   -0.01    0.34
   4   0   1   -0.38    0.29
  -4   0  -1   -0.31    0.43
   5   0   1    2.11    1.06
  -5   0  -1    0.20    0.81
  -5   0  -1   -0.05    0.47
   5   0   1    0.48    0.32
  -5   0  -1    0.84    0.48
   5   0   1    0.64    0.48
  -5   0  -1   -0.03    0.52
   5   0   1    0.44    0.44
   5   0   1    0.42    0.64
  -5   0  -1    0.53    0.73
  -6   0  -1   -0.55    0.38
  -6   0  -1   -0.02    0.53
  -6   0  -1    0.06    0.49
   6   0   1   -0.29    0.33
   6   0   1   -0.38    0.68
  -6   0  -1    0.32    1.01
   6   0   1   -0.48    0.35
   6   0   1    0.66    0.63
  -6   0  -1   -0.32    0.69
   6   0   1    0.67    0.94
   7   0   1    9.78    1.11
   7   0   1   10.48    0.99
  -7   0  -1   10.35    1.68
   7   0   1    8.42    1.45
  -7   0  -1    9.24    1.27
  -7   0  -1   12.41    1.29
  -7   0  -1   14.42    1.27
  -7   0  -1   11.60    1.08
   7   0   1    8.03    1.31
  -8   0  -1   -0.23    0.61
  -8   0  -1    0.05    0.81
 -11   0  -1   47.79    2.74
 -12   0  -1    0.44    0.48
 -13   0  -1   13.00    0.99
 -14   0  -1    0.06    0.52
  15   0   1    0.13    0.40
 -15   0  -1    0.10    0.37
  16   0   1   -0.02    0.27
 -16   0  -1   -0.20    0.33
  17   0   1    0.96    0.28
 -17   0  -1    1.30    0.42
 -18   0  -1   -0.10    0.23
  18   0   1   -0.16    0.17
 -18   1   1    9.49    0.89
 -17   1   1    0.92    0.45
 -16   1   1    9.31    0.90
  16   1  -1    8.19    0.68
 -15  -1   1    1.32    0.41
 -15   1   1    1.30    0.37
 -15   1   1    1.68    0.54
  15   1  -1    0.72    0.41
 -14   1   1    1.84    0.53
 -14   1   1    2.33    0.55
  14   1  -1    2.26    0.45
 -13   1   1    1.51    1.72
  13   1  -1    1.08    0.39
 -13   1   1    0.70    0.48
  12   1  -1    0.53    0.26
 -12   1   1    0.16    0.44
 -11   1   1    6.93    1.05
 -11   1   1    8.10    0.70
  11   1  -1    9.24    0.71
 -11   1   1    9.19    1.46
 -10   1   1   12.73    1.53
  10   1  -1   12.48    1.40
 -10   1   1   12.04    1.36
 -10   1   1   11.81    0.93
   9   1  -1   -1.00    0.72
   9   1  -1    0.42    0.58
  -9   1   1    0.28    0.70
  -9   1   1    0.52    0.70
  -9   1   1    0.26    0.59
  -8  -1   1    3.94    1.11
   8   1  -1    7.27    0.78
  -8   1   1    6.16    0.99
  -8   1   1    5.40    0.99
   8   1  -1    7.51    1.01
  -8   1   1    3.64    1.35
  -8   1   1    5.18    0.86
   8   1  -1    4.37    1.35
   8   1  -1    5.27    0.68
  -7  -1   1   24.67    2.41
   7  -1  -1   23.33    2.50
  -7   1   1   27.22    1.96
   7   1  -1   21.27    2.42
   7   1  -1   26.15    1.99
  -7   1   1   26.22    2.18
   7   1  -1   27.94    1.87
  -7   1   1   25.73    2.23
   7   1  -1   23.35    2.38
   7   1  -1   28.59    1.87
  -7   1   1   29.03    2.08
  -7   1   1   26.90    2.49
   6  -1  -1    4.20    0.89
  -6  -1   1    5.72    0.68
   6  -1  -1    6.13    0.72
   6  -1  -1    5.75    0.70
  -6  -1   1    5.75    0.91
  -6  -1   1    5.73    1.25
  -6  -1   1    5.08    1.15
   6  -1  -1    6.21    1.41
  -6   1   1    7.14    1.07
   6   1  -1    6.75    0.71
  -6   1   1    5.42    0.91
   6   1  -1    8.93    1.25
  -6   1   1    5.65    0.77
  -6   1   1    5.39    0.77
   6   1  -1    4.99    1.06
  -6   1   1    5.39    0.96
   6   1  -1    6.35    0.86
   6   1  -1    6.62    0.68
   5  -1  -1   -0.24    1.02
   5  -1  -1    0.95    0.57
  -5  -1   1   -0.04    0.50
  -5  -1   1    1.17    0.65
   5  -1  -1    0.58    0.81
   5  -1  -1   -0.24    0.41
  -5  -1   1    0.11    0.89
  -5  -1   1   -0.32    0.64
   5   1  -1   -0.95    0.57
   5   1  -1    0.81    0.47
  -5   1   1   -1.32    0.61
  -5   1   1    1.09    0.65
   5   1  -1   -0.93    0.63
   5   1  -1    0.15    0.47
  -5   1   1    0.99    0.88
  -5   1   1   -0.27    0.65
  -5   1   1    0.48    0.50
   5   1  -1   -0.47    0.82
   4  -1  -1  868.07   54.51
  -4  -1   1  980.07   52.77
   4  -1  -1  990.87   52.71
  -4  -1   1  958.32   52.73
  -4  -1   1  861.20   52.44
   4  -1  -1  890.48   52.41
   4  -1  -1  939.34   52.79
  -4  -1   1  872.15   54.53
  -4   1   1  828.14   54.51
   4   1  -1  980.56   52.71
   4   1  -1  956.67   54.53
  -4   1   1  921.36   52.69
  -4   1   1  913.41   59.41
  -4   1   1  959.07   52.44
   4   1  -1  953.87   52.82
   4   1  -1  988.79   55.14
   4   1  -1 1000.00   52.43
  -4   1   1  953.46   52.73
  -4   1   1  961.52   54.52
   3  -1  -1    6.94    0.88
   3  -1  -1    6.34    0.65
  -3  -1   1    6.77    0.73
  -3  -1   1    7.41    0.91
  -3  -1   1    6.22    0.64
   3  -1  -1    7.99    0.99
  -3  -1   1    6.16    0.95
   3   1  -1    6.47    0.69
   3   1  -1    7.44    1.04
  -3   1   1    7.58    0.71
   3   1  -1    6.15    0.67
  -3   1   1    6.99    0.68
   3   1  -1    6.39    0.88
   3   1  -1    6.46    0.63
   3   1  -1    6.26    0.68
  -3   1   1    6.90    0.85
  -3   1   1    7.79    0.94
  -2  -1   1   23.77    1.62
   2  -1  -1   25.02    1.60
   2  -1  -1   24.53    1.56
  -2  -1   1   21.14    1.42
  -2  -1   1   25.16    1.57
   2   1  -1   23.73    1.43
  -2   1   1   23.34    1.51
  -2   1   1   21.03    1.40
  -2   1   1   23.32    1.42
   2   1  -1   21.77    1.61
  -2   1   1   23.21    1.43
  -2   1   1   22.62    1.56
  -2   1   1   19.62    1.38
  -2   1   1   22.32    1.71
   2   1  -1   22.39    1.43
   2   1  -1   22.35    1.60
   2   1  -1   20.68    1.42
   2   1  -1   24.28    1.57
   2   1  -1   23.75    1.48
  -2   1   1   22.68    1.67
  -2   1   1   23.41    1.40
  -1  -1   1  205.42   10.99
   1  -1  -1  199.92   10.95
  -1  -1   1  210.92   10.97
   1  -1  -1  207.01   10.96
   1   1  -1  201.12   10.97
   1   1  -1  202.33   11.49
  -1   1   1  183.44   12.38
   1   1  -1  190.13   12.34
  -1   1   1  192.41   11.85
   1   1  -1  190.23   10.89
  -1   1   1  197.81   11.31
  -1   1   1  197.13   10.94
   1   1  -1  197.35   10.88
  -1   1   1  205.85   11.87
  -1   1   1  171.60   11.45
  -1   1   1  199.05   10.97
   1   1  -1  190.46   11.31
  -1   1   1  176.92   11.30
   1   1  -1  207.75   10.98
  -1   1   1  182.64   10.87
  -1   1   1  189.27   10.88
   1   1  -1  186.11   11.31
   1   1  -1  176.60   11.90
   0  -1  -1   70.33    3.85
   0  -1  -1   70.53    3.84
   0  -1   1   70.51    3.83
   0  -1   1   69.20    3.85
   0   1   1   70.53    4.34
   0   1   1   65.74    3.78
   0   1  -1   64.65    4.18
   0   1  -1   65.13    3.92
   0   1   1   68.33    3.85
   0   1   1   66.98    4.18
   0   1   1   61.16    4.02
   0   1  -1   68.34    3.84
   0   1  -1   69.20    3.85
   0   1  -1   71.48    4.02
   0   1  -1   63.07    4.35
   0   1  -1   67.36    3.78
   0   1   1   67.16    3.79
   0   1   1   65.77    3.93
   0   1  -1   66.79    3.79
   0   1  -1   67.07    3.93
   0   1   1   60.19    4.13
   0   1  -1   63.91    4.11
   0   1   1   68.92    3.83
   0   1   1   65.34    3.93
   1  -1   1  194.56   10.04
  -1  -1  -1  179.82   10.07
   1  -1   1  191.36   10.02
  -1  -1  -1  179.23   10.04
  -1   1  -1  161.38   11.31
  -1   1  -1  171.06    9.94
   1   1   1  183.39   10.83
   1   1   1  176.27    9.94
  -1   1  -1  189.03   10.03
  -1   1  -1  187.35   10.05
  -1   1  -1  179.89   10.88
   1   1   1  175.21   10.33
   1   1   1  170.51    9.94
   1   1   1  179.49   10.03
  -1   1  -1  181.14   10.33
  -1   1  -1  172.67    9.94
   1   1   1  174.09   10.49
  -1   1  -1  159.41   10.77
  -1   1  -1  159.89   10.32
   1   1   1  166.86   10.33
   1   1   1  182.46   10.05
   2  -1   1    9.13    0.73
   2  -1   1    8.76    0.92
  -2  -1  -1   10.69    1.07
  -2  -1  -1   11.64    1.04
  -2  -1  -1    8.55    0.76
   2  -1   1   10.85    0.97
  -2   1  -1   10.50    1.01
  -2   1  -1    8.34    0.79
  -2   1  -1    9.88    0.76
   2   1   1    9.56    0.81
   2   1   1   10.40    1.00
  -2   1  -1    9.10    0.72
  -2   1  -1   10.15    0.89
   2   1   1    9.91    0.75
  -2   1  -1   10.19    1.09
   2   1   1   10.39    0.82
  -2   1  -1    9.83    0.83
   3  -1   1  187.51   10.34
  -3  -1  -1  190.27   10.31
  -3  -1  -1  186.71   10.39
  -3  -1  -1  166.40   10.49
   3  -1   1  164.64   10.47
   3  -1   1  186.78   10.29
  -3  -1  -1  165.90   10.10
   3  -1   1  163.82   10.09
  -3   1  -1  176.39   10.48
   3   1   1  179.65   10.10
   3   1   1  183.18   10.62
   3   1   1  185.17   10.28
  -3   1  -1  190.53   10.12
  -3   1  -1  179.46   11.49
  -3   1  -1  175.18   10.36
   3   1   1  174.01   10.34
   3   1   1  179.45   10.48
  -4  -1  -1  520.03   29.40
  -4  -1  -1  472.73   30.21
   4  -1   1  543.19   29.40
  -4  -1  -1  498.41   29.08
  -4  -1  -1  476.92   32.78
   4  -1   1  494.64   30.20
   4  -1   1  467.81   29.05
   4  -1   1  533.41   29.32
  -4  -1  -1  511.83   29.32
  -4   1  -1  538.43   29.31
   4   1   1  528.15   30.21
  -4   1  -1  512.16   29.36
  -4   1  -1  526.95   30.22
  -4   1  -1  560.11   29.08
   4   1   1  516.61   30.55
  -4   1  -1  546.66   32.96
   4   1   1  505.89   29.38
   4   1   1  539.84   29.34
   4   1   1  534.81   29.07
   5  -1   1  221.03   12.35
  -5  -1  -1  207.14   12.09
  -5  -1  -1  212.15   12.44
  -5  -1  -1  217.73   12.37
   5  -1   1  197.74   12.50
  -5  -1  -1  200.25   12.52
   5  -1   1  187.59   12.05
  -5  -1  -1  185.00   13.48
   5  -1   1  224.26   12.48
  -5   1  -1  211.72   12.41
   5   1   1  212.47   12.65
   5   1   1  209.08   12.34
  -5   1  -1  235.40   12.10
   5   1   1  220.11   12.08
   5   1   1  225.49   12.51
  -5   1  -1  218.35   12.36
  -5   1  -1  223.81   13.70
  -5   1  -1  217.91   12.53
   5   1   1  206.97   12.42
  -6  -1  -1    2.73    1.03
  -6  -1  -1    1.88    1.08
  -6  -1  -1    1.84    0.61
   6  -1   1    0.13    0.97
  -6  -1  -1    1.65    0.76
   6  -1   1    0.34    0.90
   6   1   1    2.85    0.60
  -6   1  -1    1.52    0.60
   6   1   1    2.42    0.71
  -6   1  -1    2.44    1.07
   6   1   1    0.80    0.94
   6   1   1    1.42    0.93
   6   1   1    1.64    0.53
  -6   1  -1    1.41    0.74
  -6   1  -1    2.48    0.78
  -6   1  -1    1.65    0.79
  -7  -1  -1   23.07    2.23
   7  -1   1   16.43    2.08
   7   1   1   20.85    1.59
  -7   1  -1   21.06    1.85
   7   1   1   20.39    1.97
  -7   1  -1   22.37    1.61
   7   1   1   23.89    1.67
   7   1   1   17.03    2.09
  -7   1  -1   17.33    2.16
  -7   1  -1   21.64    1.93
   7   1   1   21.81    1.62
   8   1   1   16.19    1.48
  -8   1  -1   16.94    1.75
   8   1   1   17.82    1.41
   8   1   1   17.84    1.52
  -8   1  -1   17.76    1.46
  -8   1  -1   18.37    1.70
  -9   1  -1    4.35    0.90
   9   1   1    5.22    1.01
  -9   1  -1    4.07    0.98
  -9   1  -1    6.25    0.97
   9   1   1    5.01    0.86
 -10   1  -1    3.58    0.40
 -10   1  -1    1.38    0.81
  10   1   1    3.17    0.40
  11   1   1   -0.24    0.32
 -11   1  -1    0.01    0.29
 -11   1  -1    1.14    1.12
 -11   1  -1    1.33    0.89
 -11   1  -1    0.17    0.47
 -12   1  -1    9.95    0.84
  12   1   1   11.26    0.86
  13   1   1    0.41    0.38
 -13   1  -1    0.54    0.47
 -14   1  -1   32.57    2.23
  14   1   1   33.87    1.98
 -14   1  -1   34.10    1.98
 -15  -1  -1    3.63    0.60
 -15   1  -1    3.24    0.54
  15   1   1    2.77    0.47
 -15   1  -1    3.69    0.76
 -16  -1  -1   -0.39    0.49
 -16   1  -1   -0.50    0.44
 -16   1  -1    0.02    0.28
  16   1   1    0.15    0.26
 -17  -1  -1    4.12    0.55
 -17   1  -1    5.96    0.48
  17   1   1    4.09    0.44
 -18  -1  -1    0.94    0.22
  18   1   1    0.60    0.19
 -18   2   1    3.77    0.50
 -17   2   1    5.67    0.59
 -17   2   1    5.07    0.69
 -16   2   1    4.88    0.94
 -16   2   1    6.37    0.68
  16   2  -1    5.10    0.58
  15   2  -1    2.63    0.46
  15   2  -1    2.08    0.40
 -15   2   1    2.61    0.55
  14   2  -1    3.97    0.42
 -14   2   1    4.54    0.53
 -14   2   1    4.29    0.78
  14   2  -1    5.32    0.58
  13   2  -1    5.17    1.27
  13   2  -1    2.91    0.50
 -13   2   1    1.89    1.43
  13   2  -1    3.75    0.39
 -13   2   1    4.04    0.53
 -13   2   1    4.95    0.61
 -12   2   1   23.20    1.28
  12   2  -1   20.16    2.43
  12   2  -1   21.46    1.29
 -12   2   1   13.88    1.85
 -12   2   1   23.40    1.60
 -12   2   1   17.75    2.14
  12   2  -1   19.49    1.50
 -12   2   1   15.60    2.57
 -11   2   1   50.22    2.91
 -11   2   1   53.73    4.36
 -11   2   1   47.34    3.11
  11   2  -1   45.98    3.04
 -11   2   1   50.76    3.49
 -11   2   1   47.60    3.50
  11   2  -1   52.86    3.47
  11   2  -1   52.67    3.67
  11   2  -1   52.43    2.77
 -11   2   1   51.06    2.80
  10   2  -1   35.13    2.64
 -10   2   1   28.32    1.91
 -10   2   1   36.54    2.72
  10   2  -1   32.53    1.84
  10   2  -1   30.97    2.07
 -10   2   1   35.82    2.87
 -10   2   1   30.63    2.40
 -10   2   1   37.90    3.04
  10   2  -1   35.39    2.49
 -10   2   1   32.66    1.88
 -10   2   1   32.54    2.51
 -10   2   1   33.05    2.13
   9   2  -1   16.18    1.42
  -9   2   1   14.62    1.70
  -9   2   1   16.16    2.02
  -9   2   1   13.21    0.90
  -9   2   1   15.04    1.51
   9   2  -1   15.13    1.43
   9   2  -1   14.65    1.50
  -9   2   1   15.07    1.58
   8   2  -1  138.31    8.42
   8   2  -1  144.84    8.66
  -8   2   1  143.50    9.30
  -8   2   1  140.93    8.46
  -8   2   1  144.57    8.68
   8   2  -1  146.96    8.75
  -8   2   1  140.99    9.56
  -7   2   1   28.31    2.58
   7   2  -1   33.72    2.28
  -7   2   1   30.39    2.20
   7   2  -1   32.25    2.25
   7   2  -1   31.43    2.19
  -7   2   1   32.44    2.76
  -7   2   1   31.81    2.29
  -6  -2   1   76.20    5.08
  -6   2   1   76.06    5.41
   6   2  -1   84.17    4.93
   6   2  -1   71.53    4.95
   6   2  -1   82.28    4.83
  -6   2   1   75.49    5.00
  -6   2   1   69.82    4.92
  -6   2   1   83.18    5.34
  -6   2   1   80.79    4.78
   6   2  -1   65.03    5.07
  -6   2   1   83.20    4.83
   6   2  -1   84.49    4.74
   5  -2  -1   11.46    1.28
   5  -2  -1   10.88    1.44
  -5  -2   1   12.16    1.33
  -5  -2   1   11.80    1.37
   5   2  -1   11.75    1.15
   5   2  -1   14.72    1.30
  -5   2   1   13.26    1.31
   5   2  -1   13.22    1.06
  -5   2   1   12.34    1.24
   5   2  -1   12.70    1.23
  -5   2   1   12.85    1.05
  -5   2   1    9.23    1.29
  -5   2   1   11.07    0.96
  -5   2   1   14.15    1.20
  -5   2   1   11.82    1.35
  -5   2   1   10.91    1.00
   4  -2  -1  257.51   13.89
   4  -2  -1  230.72   13.94
  -4  -2   1  242.62   13.92
  -4  -2   1  251.49   13.97
   4   2  -1  229.54   13.96
  -4   2   1  211.36   13.63
  -4   2   1  224.34   14.16
   4   2  -1  205.17   13.66
   4   2  -1  245.32   13.90
  -4   2   1  235.97   15.58
  -4   2   1  235.30   13.85
  -4   2   1  243.75   14.18
   4   2  -1  255.35   14.19
  -4   2   1  254.60   14.94
   4   2  -1  253.79   13.68
   4   2  -1  260.81   14.99
   4   2  -1  249.93   14.42
  -4   2   1  260.29   13.69
  -4   2   1  254.22   13.91
   4   2  -1  230.07   14.18
   3  -2  -1   -0.32    0.62
   3  -2  -1    0.44    0.65
  -3  -2   1   -0.14    0.55
  -3  -2   1    0.64    0.66
  -3   2   1   -0.45    0.72
  -3   2   1    0.50    0.36
  -3   2   1    0.28    0.32
  -3   2   1    0.58    0.32
  -3   2   1    0.13    0.47
   3   2  -1    0.77    0.29
   3   2  -1    0.75    0.40
  -3   2   1    0.03    0.43
   3   2  -1   -1.38    0.62
   3   2  -1    0.80    0.68
  -3   2   1    0.71    0.76
  -3   2   1    0.09    0.20
   3   2  -1   -0.36    0.57
   3   2  -1    0.65    0.56
  -3   2   1    0.91    0.68
   3   2  -1    0.05    0.45
   3   2  -1    0.16    0.42
  -2  -2   1    0.47    0.51
   2  -2  -1    0.26    0.52
  -2  -2   1    0.11    0.51
   2  -2  -1    0.67    0.45
   2   2  -1    0.43    0.23
   2   2  -1    0.14    0.63
   2   2  -1    0.95    0.37
  -2   2   1    0.75    0.48
  -2   2   1    0.36    0.34
  -2   2   1    0.08    0.29
  -2   2   1    0.38    0.28
   2   2  -1    0.15    0.52
   2   2  -1    0.56    0.46
  -2   2   1    0.40    0.23
   2   2  -1    0.13    0.30
  -2   2   1    0.62    0.72
  -2   2   1   -0.17    0.68
  -2   2   1   -0.06    0.24
  -2   2   1    0.52    0.40
   1  -2  -1   10.38    0.84
  -1  -2   1   12.11    0.94
  -1  -2   1   12.79    0.91
   1  -2  -1   12.46    0.85
  -1   2   1   11.90    1.26
   1   2  -1   12.32    0.79
   1   2  -1   12.01    0.94
  -1   2   1   12.46    0.78
   1   2  -1   12.42    1.05
  -1   2   1   12.31    1.02
  -1   2   1   12.92    0.77
  -1   2   1   10.82    1.24
  -1   2   1   11.96    1.00
   1   2  -1   12.20    0.80
   1   2  -1   12.28    1.05
   1   2  -1   11.47    1.15
   1   2  -1   12.01    0.79
   1   2  -1   13.29    1.11
   1   2  -1   11.53    0.88
  -1   2   1   12.20    0.75
  -1   2   1   13.18    0.77
  -1   2   1   12.65    0.86
   1   2  -1   12.71    0.79
  -1   2   1   12.45    0.81
   0  -2  -1    3.48    0.35
   0  -2   1    3.46    0.33
   0  -2  -1    3.26    0.36
   0  -2   1    3.65    0.34
   0   2  -1    3.90    0.68
   0   2   1    3.32    0.33
   0   2   1    2.91    0.70
   0   2   1    3.19    0.27
   0   2  -1    4.22    0.54
   0   2   1    3.31    0.32
   0   2  -1    4.45    0.67
   0   2  -1    3.70    0.32
   0   2  -1    3.38    0.33
   0   2   1    3.76    0.51
   0   2  -1    3.82    0.35
   0   2   1    3.52    0.57
   0   2   1    3.15    0.30
   0   2   1    3.29    0.29
   0   2  -1    3.12    0.27
   0   2   1    3.31    0.70
   0   2  -1    3.65    0.52
   0   2   1    3.02    0.28
   0   2  -1    3.74    0.34
   0   2  -1    3.15    0.27
  -1  -2  -1   10.78    0.93
   1  -2   1    9.82    0.76
   1  -2   1    8.99    0.73
   1   2   1    9.92    0.92
   1   2   1   10.05    0.69
  -1   2  -1   10.78    0.67
   1   2   1   10.11    0.71
  -1   2  -1    9.77    0.71
   1   2   1   11.32    1.14
   1   2   1    9.92    0.72
   1   2   1    9.60    0.87
   1   2   1   10.63    0.73
  -1   2  -1   10.03    0.80
  -1   2  -1    9.83    0.97
  -1   2  -1   10.05    0.83
   1   2   1    8.67    0.91
  -1   2  -1    8.99    0.66
  -1   2  -1   10.13    0.82
  -1   2  -1   10.36    0.92
  -1   2  -1   10.64    0.69
  -1   2  -1   12.36    1.23
   1   2   1   10.91    0.97
   1   2   1    9.18    0.81
  -2  -2  -1  113.34    6.56
  -2  -2  -1  111.33    6.53
   2  -2   1  112.17    6.47
   2  -2   1  112.85    6.50
  -2   2  -1  112.93    6.49
  -2   2  -1  114.12    7.38
  -2   2  -1  118.35    6.61
   2   2   1  103.16    6.37
   2   2   1  111.07    6.37
   2   2   1  110.09    6.79
   2   2   1  107.50    7.00
  -2   2  -1  105.72    6.36
   2   2   1  107.60    6.60
  -2   2  -1  126.10    7.06
   2   2   1  113.82    6.50
  -2   2  -1  109.36    6.98
   2   2   1  113.66    6.54
   2   2   1  115.69    6.62
  -3  -2  -1   31.22    2.10
   3  -2   1   29.36    1.98
   3  -2   1   27.26    2.01
  -3  -2  -1   29.89    2.13
   3   2   1   23.69    1.83
  -3   2  -1   29.34    2.06
   3   2   1   29.56    2.03
  -3   2  -1   32.73    1.81
  -3   2  -1   29.60    2.31
  -3   2  -1   28.93    2.10
  -3   2  -1   29.04    2.04
   3   2   1   29.39    2.07
  -3   2  -1   29.67    1.86
   3   2   1   28.31    2.06
  -3   2  -1   25.93    1.79
   3   2   1   27.82    1.82
   3   2   1   28.04    2.07
  -3   2  -1   27.07    1.83
   3   2   1   28.24    1.83
   3   2   1   27.62    1.81
   4  -2   1   16.18    1.59
   4  -2   1   18.20    1.69
  -4  -2  -1   19.06    1.70
  -4  -2  -1   17.91    1.74
   4   2   1   18.05    1.55
  -4   2  -1   17.07    1.66
  -4   2  -1   20.01    1.32
   4   2   1   16.50    1.26
  -4   2  -1   20.32    1.56
   4   2   1   13.57    1.29
  -4   2  -1   15.65    1.35
   4   2   1   19.91    1.38
   4   2   1   20.33    1.32
  -4   2  -1   15.74    1.24
  -4   2  -1   18.38    1.68
   4   2   1   17.68    1.62
   4   2   1   17.61    1.62
  -4   2  -1   20.45    1.37
  -4   2  -1   19.50    1.80
   5  -2   1    0.21    0.74
   5  -2   1    0.34    0.83
  -5  -2  -1    2.48    0.94
  -5  -2  -1    3.00    1.04
   5   2   1    1.60    0.63
   5   2   1    2.34    0.54
  -5   2  -1    2.62    0.54
  -5   2  -1    1.64    0.89
  -5   2  -1    1.73    0.73
   5   2   1    0.72    0.53
  -5   2  -1    1.24    0.86
  -5   2  -1    2.09    0.67
   5   2   1    2.12    0.86
   5   2   1    2.92    0.70
  -6   2  -1   31.87    2.73
  -6   2  -1   33.62    2.35
  -6   2  -1   33.29    2.30
  -6   2  -1   31.57    2.75
   6   2   1   32.66    2.39
   6   2   1   29.82    2.65
   6   2   1   36.87    2.30
   6   2   1   36.44    2.33
  -7   2  -1  216.98   12.32
   7   2   1  198.87   12.43
   7   2   1  210.88   12.30
   7   2   1  214.82   11.91
  -7   2  -1  203.84   11.93
  -7   2  -1  191.83   13.49
  -8   2  -1  238.68   16.62
   8   2   1  264.07   14.67
  -8   2  -1  256.10   14.72
   8   2   1  261.13   15.16
   8   2   1  255.78   15.32
  -8   2  -1  250.53   15.17
  -9   2  -1   83.53    5.76
   9   2   1   87.39    5.37
  -9   2  -1   89.17    5.41
  -9   2  -1   87.22    5.38
   9   2   1   80.19    4.54
  -9   2  -1   78.38    4.98
   9   2   1   91.47    5.38
  -9   2  -1   79.69    5.97
  -9   2  -1   82.08    4.56
   9   2   1   89.12    5.31
 -10   2  -1   19.97    1.66
 -10   2  -1   19.89    1.44
  10   2   1   19.12    1.18
  10   2   1   16.59    1.82
  10   2   1   18.91    1.47
 -10   2  -1   20.15    2.17
 -10   2  -1   17.61    1.33
  10   2   1   19.06    1.36
 -10   2  -1   18.38    1.21
  10   2   1   20.21    1.83
 -10   2  -1   20.76    1.90
 -10   2  -1   19.66    1.97
 -11   2  -1    0.48    1.55
 -11   2  -1    0.31    0.41
  11   2   1    0.20    0.40
 -11   2  -1    0.06    1.04
 -11   2  -1    0.92    0.51
  11   2   1   -0.80    0.65
  11   2   1   -0.30    0.27
 -11   2  -1    0.05    0.37
  11   2   1    0.21    0.23
 -11   2  -1   -0.23    0.52
 -11   2  -1    0.30    0.86
  11   2   1    0.62    0.61
 -12   2  -1   -0.74    1.17
 -12   2  -1    0.11    0.92
 -12   2  -1   -0.51    1.63
  12   2   1    0.06    0.33
 -12   2  -1   -0.32    0.56
 -12   2  -1    0.08    0.60
  12   2   1    0.28    0.34
 -12   2  -1   -0.08    0.41
 -13   2  -1    1.98    0.52
  13   2   1    1.56    0.30
 -13   2  -1    1.49    0.65
 -13   2  -1    0.90    0.43
  13   2   1    1.59    0.41
  14   2   1    0.84    0.36
 -14   2  -1    0.94    0.48
 -14   2  -1    0.65    0.41
  14   2   1    0.54    0.37
  15   2   1    0.91    0.26
 -15   2  -1    0.87    0.31
 -15   2  -1    0.94    0.65
  15   2   1    0.79    0.52
 -16   2  -1    0.77    0.74
  16   2   1    0.34    0.33
 -16   2  -1    0.15    0.16
 -16   2  -1    0.73    0.43
  16   2   1    0.54    0.28
 -17  -2  -1    0.68    0.33
  17   2   1    0.51    0.30
  17   2   1    0.99    0.17
  17   2   1    0.98    0.39
 -17   2  -1    1.30    0.38
 -17   2  -1    1.58    0.49
 -17   3   1   18.69    1.45
  17   3  -1   19.20    1.33
 -16   3   1    2.62    0.44
 -16   3   1    2.83    0.63
 -16   3   1    3.17    0.50
  16   3  -1    2.37    0.67
 -15   3   1   40.18    2.50
 -15   3   1   42.55    2.90
 -15   3   1   39.25    2.60
  15   3  -1   40.53    2.57
  15   3  -1   41.11    2.77
 -14   3   1    0.78    0.62
 -14   3   1   -0.11    0.41
 -14   3   1    0.60    0.86
  14   3  -1    0.28    0.28
  14   3  -1    0.34    0.52
 -13   3   1   18.64    1.57
 -13   3   1   13.86    1.34
  13   3  -1   18.12    1.06
 -13   3   1   16.69    1.25
  13   3  -1   15.26    1.30
 -13   3   1   14.61    1.53
  12   3  -1    6.32    0.69
 -12   3   1    6.28    0.55
  12   3  -1    7.30    0.72
  12   3  -1    6.21    1.79
 -12   3   1    5.64    0.88
 -12   3   1    7.40    0.80
 -12   3   1    8.32    2.12
  12   3  -1    6.65    0.62
 -12   3   1    7.30    0.79
 -11   3   1   15.99    2.18
  11   3  -1   20.93    1.33
 -11   3   1   23.32    2.55
  11   3  -1   18.67    1.95
 -11   3   1   21.33    1.29
  11   3  -1   17.31    1.95
 -11   3   1   21.65    1.38
  11   3  -1   21.85    1.26
  11   3  -1   24.01    2.56
 -11   3   1   24.03    2.27
 -11   3   1   18.66    1.94
  11   3  -1   20.82    1.50
 -11   3   1   19.28    1.78
 -11   3   1   22.96    1.46
 -10   3   1    1.03    1.49
  10   3  -1   -0.15    0.38
 -10   3   1   -0.19    0.31
  10   3  -1   -0.22    0.89
  10   3  -1    0.70    0.40
  10   3  -1    0.04    0.25
  10   3  -1   -0.25    0.43
 -10   3   1   -1.13    0.70
  10   3  -1   -0.33    1.27
 -10   3   1    0.61    0.45
 -10   3   1    1.40    0.97
  10   3  -1   -0.14    0.28
 -10   3   1    0.55    0.57
 -10   3   1    0.25    0.45
 -10   3   1    0.70    1.13
  10   3  -1   -0.67    0.66
   9   3  -1   10.67    1.32
  -9   3   1   11.47    1.23
   9   3  -1    9.88    0.91
  -9   3   1   11.06    0.73
  -9   3   1   10.78    0.95
  -9   3   1   11.52    1.20
   9   3  -1   10.90    0.78
   9   3  -1    9.52    0.90
   9   3  -1   11.96    1.20
   9   3  -1   13.39    1.26
  -9   3   1   13.38    2.01
   9   3  -1   14.09    1.61
   9   3  -1   11.12    0.72
  -9   3   1   12.32    1.69
  -9   3   1   10.30    0.91
  -9   3   1   12.93    1.49
  -8   3   1    2.70    0.78
   8   3  -1    3.19    1.16
  -8   3   1    2.03    0.69
  -8   3   1    2.89    1.32
   8   3  -1    2.24    0.60
   8   3  -1    2.51    0.27
  -8   3   1    1.87    0.41
  -8   3   1    2.09    0.27
   8   3  -1    2.52    0.66
   8   3  -1    3.32    0.88
  -8   3   1    2.47    0.42
   8   3  -1    1.99    0.38
  -8   3   1    1.12    0.79
  -7   3   1    2.42    0.89
   7   3  -1    2.75    0.76
   7   3  -1    3.98    1.13
   7   3  -1    3.01    0.79
  -7   3   1    2.96    0.65
   7   3  -1    4.45    0.67
  -7   3   1    3.49    0.87
  -7   3   1    5.62    1.21
  -6   3   1   11.96    1.58
   6   3  -1   17.23    1.75
   6   3  -1   14.40    1.27
  -6   3   1   13.75    1.18
  -6   3   1   15.77    1.31
   6   3  -1   14.09    1.17
   6   3  -1   13.03    1.30
  -6   3   1   12.97    1.45
   5   3  -1   90.89    5.67
   5   3  -1   87.38    5.15
  -5   3   1   89.61    5.16
  -5   3   1   79.00    5.88
   5   3  -1   90.05    5.06
  -5   3   1   97.61    5.04
  -5   3   1   78.01    4.96
   5   3  -1   88.03    5.34
  -5   3   1   79.59    5.22
  -5   3   1   88.09    5.67
  -5   3   1   71.37    5.10
   4  -3  -1   63.05    4.21
  -4  -3   1   63.79    4.34
   4   3  -1   76.70    4.19
   4   3  -1   71.29    4.64
  -4   3   1   62.67    4.22
   4   3  -1   68.02    4.17
   4   3  -1   61.51    4.32
   4   3  -1   62.84    4.07
   4   3  -1   68.16    4.32
  -4   3   1   64.76    4.13
   4   3  -1   73.87    4.38
  -4   3   1   69.34    4.19
  -4   3   1   64.58    4.84
  -4   3   1   75.28    4.07
  -4   3   1   73.76    4.17
  -4   3   1   73.92    4.67
   4   3  -1   74.76    4.08
  -4   3   1   69.23    4.02
   3  -3  -1   22.69    1.68
  -3  -3   1   24.65    1.88
   3  -3  -1   26.07    1.73
  -3  -3   1   25.62    1.77
  -3   3   1   26.46    1.58
   3   3  -1   24.59    1.80
   3   3  -1   24.64    1.59
  -3   3   1   25.13    1.67
   3   3  -1   24.61    2.05
  -3   3   1   27.85    1.57
  -3   3   1   23.46    1.72
  -3   3   1   26.47    1.55
   3   3  -1   28.37    1.61
  -3   3   1   23.93    2.16
  -3   3   1   24.77    1.55
   3   3  -1   19.92    1.71
  -3   3   1   23.49    1.63
   3   3  -1   25.89    1.92
  -3   3   1   26.21    2.09
   3   3  -1   23.24    1.60
   3   3  -1   21.98    1.75
   3   3  -1   27.62    1.62
  -2  -3   1   13.23    1.05
  -2  -3   1   13.69    1.12
  -2   3   1   14.12    1.53
   2   3  -1   13.64    1.06
   2   3  -1   15.71    1.35
   2   3  -1   14.25    0.92
   2   3  -1   14.07    0.91
  -2   3   1   12.48    1.07
   2   3  -1   13.66    0.93
   2   3  -1   13.84    0.91
   2   3  -1   14.02    1.11
   2   3  -1   11.63    1.17
   2   3  -1   12.97    1.25
  -2   3   1   13.30    1.39
  -2   3   1   14.96    1.22
  -1   3   1   -0.38    0.49
  -1   3   1    1.49    0.72
  -1   3   1   -0.59    0.68
   1   3  -1    0.19    0.54
  -1   3   1    0.19    0.35
   1   3  -1    0.08    0.54
   1   3  -1    0.27    0.46
   1   3  -1    0.41    0.67
   0   3  -1   18.76    1.47
   0   3   1   17.89    1.46
   0   3   1   20.01    1.42
   0   3   1   17.84    1.58
   0   3  -1   19.50    1.46
   0   3  -1   19.12    1.65
   0   3   1   17.85    1.61
   0   3  -1   18.48    1.59
  -1  -3  -1   14.07    0.90
  -1  -3  -1   14.86    0.91
  -1   3  -1   13.81    1.29
   1   3   1   15.05    0.90
  -1   3  -1   14.89    1.17
   1   3   1   14.26    0.86
   1   3   1   15.41    0.87
   1   3   1   15.55    0.89
   1   3   1   15.21    0.89
   1   3   1   14.18    1.32
  -1   3  -1   14.79    1.40
   1   3   1   13.89    1.28
  -1   3  -1   14.86    1.55
   1   3   1   14.97    1.44
   1   3   1   14.22    0.90
   1   3   1   14.66    1.25
   2  -3   1   12.52    0.89
  -2  -3  -1   12.02    1.14
   2  -3   1   13.16    0.89
  -2  -3  -1   12.36    1.10
   2   3   1   16.00    1.41
   2   3   1   14.49    0.92
   2   3   1   13.25    1.38
  -2   3  -1   13.48    0.86
   2   3   1   13.24    0.90
  -2   3  -1   14.00    1.18
   2   3   1   13.35    1.07
   2   3   1   14.01    1.05
  -2   3  -1   12.73    1.35
   2   3   1   13.09    1.26
   2   3   1   13.01    0.88
   2   3   1   12.63    0.93
  -2   3  -1   12.92    0.94
  -2   3  -1   12.79    1.29
  -2   3  -1   13.57    0.84
  -2   3  -1   13.74    0.84
  -2   3  -1   12.92    0.86
  -2   3  -1   11.90    0.97
  -2   3  -1   12.17    0.94
  -3  -3  -1    1.64    0.72
   3  -3   1    0.15    0.43
  -3  -3  -1    0.46    0.53
   3  -3   1    0.67    0.48
   3   3   1    0.91    0.57
   3   3   1    0.12    0.48
  -3   3  -1    1.34    0.53
  -3   3  -1    0.95    0.38
  -3   3  -1    0.78    0.33
  -3   3  -1    0.93    0.25
  -3   3  -1    0.82    0.47
   3   3   1    0.34    0.29
   3   3   1    0.39    0.37
   3   3   1    1.25    0.40
   3   3   1    1.18    0.60
  -3   3  -1    0.43    0.33
  -3   3  -1    0.63    0.89
  -3   3  -1    0.29    0.68
   3   3   1    1.04    0.46
   3   3   1    0.70    0.66
   4  -3   1   12.19    1.22
  -4  -3  -1   12.76    1.38
   4   3   1   13.31    1.33
   4   3   1   16.32    1.10
  -4   3  -1   16.67    1.07
  -4   3  -1   13.75    1.09
  -4   3  -1   13.11    1.33
  -4   3  -1   14.05    1.10
  -4   3  -1   14.30    1.32
   4   3   1   15.49    1.48
   4   3   1   13.54    1.34
  -4   3  -1   13.81    1.30
   4   3   1   14.22    1.13
  -4   3  -1   14.21    1.56
  -4   3  -1   12.64    0.98
   4   3   1   13.82    1.03
   4   3   1   13.31    1.07
   4   3   1   13.63    1.35
  -5   3  -1   30.59    2.71
  -5   3  -1   32.46    2.12
  -5   3  -1   33.94    2.54
   5   3   1   34.81    2.15
   5   3   1   32.07    2.52
   5   3   1   28.29    2.37
  -5   3  -1   31.39    2.17
   5   3   1   31.27    2.16
  -6   3  -1    0.17    0.56
   6   3   1   -0.66    0.45
  -6   3  -1   -0.16    0.64
  -6   3  -1    0.46    0.47
   6   3   1    0.47    0.90
   6   3   1   -0.51    0.67
   6   3   1    0.23    0.59
  -6   3  -1    0.72    0.99
   7   3   1    0.65    0.54
  -7   3  -1   -0.06    0.67
   7   3   1   -0.06    0.64
   7   3   1   -0.62    0.45
  -7   3  -1    0.29    0.55
   7   3   1    0.47    0.95
  -7   3  -1    0.97    1.04
  -7   3  -1    1.31    1.04
  -8   3  -1    2.52    0.84
   8   3   1    2.51    0.40
   8   3   1    2.82    0.41
   8   3   1    1.27    0.80
   8   3   1    1.92    0.32
  -8   3  -1    2.37    0.63
   8   3   1    2.41    0.69
  -8   3  -1    2.60    0.45
   8   3   1    2.26    0.83
  -8   3  -1    2.15    1.17
   8   3   1    2.10    0.28
   8   3   1    2.46    1.18
  -8   3  -1    3.76    1.37
  -8   3  -1    2.29    0.43
  -8   3  -1    3.00    0.52
  -8   3  -1    3.52    0.76
  -8   3  -1    2.39    0.33
   9   3   1    4.89    0.64
   9   3   1    5.00    0.55
  -9   3  -1    8.53    1.71
   9   3   1    6.82    1.15
   9   3   1    5.60    1.01
  -9   3  -1    5.19    0.59
   9   3   1    5.55    0.48
  -9   3  -1    5.67    0.80
  -9   3  -1    5.02    0.47
   9   3   1    4.37    0.88
  -9   3  -1    5.70    1.09
  -9   3  -1    5.66    0.93
  -9   3  -1    5.00    1.37
   9   3   1    5.25    0.57
  -9   3  -1    6.33    0.63
   9   3   1    6.34    1.47
 -10   3  -1    0.24    0.91
  10   3   1    0.09    0.53
 -10   3  -1    0.44    1.19
  10   3   1   -0.08    0.26
 -10   3  -1    0.09    0.46
  10   3   1    1.73    1.01
 -10   3  -1    1.34    0.65
  10   3   1   -0.50    0.39
 -10   3  -1    0.37    0.45
  10   3   1    0.31    0.26
 -10   3  -1    0.73    0.78
 -10   3  -1   -0.02    0.27
 -10   3  -1    2.62    1.53
  10   3   1    2.34    1.41
  10   3   1    0.36    0.67
  10   3   1   -0.16    0.44
  11   3   1   82.93    4.68
 -11   3  -1   71.46    5.68
 -11   3  -1   75.93    5.77
  11   3   1   77.59    5.18
 -11   3  -1   75.63    4.35
 -11   3  -1   81.40    5.47
  11   3   1   87.70    5.87
  11   3   1   74.11    5.13
 -11   3  -1   78.00    4.66
 -11   3  -1   77.00    5.19
 -11   3  -1   73.09    5.13
  11   3   1   71.44    4.33
  11   3   1   78.12    4.22
 -11   3  -1   82.20    4.23
 -12   3  -1   68.55    3.92
  12   3   1   65.07    4.60
  12   3   1   71.42    3.77
  12   3   1   72.57    5.43
 -12   3  -1   72.39    4.23
  12   3   1   68.30    4.20
 -12   3  -1   68.99    4.91
 -12   3  -1   68.86    3.75
 -13   3  -1   53.84    3.29
 -13   3  -1   52.01    2.84
  13   3   1   54.44    2.89
 -13   3  -1   57.53    3.67
 -13   3  -1   46.44    3.73
 -13   3  -1   53.56    3.12
  13   3   1   50.36    3.25
 -14   3  -1    7.64    1.02
 -14   3  -1    9.36    0.92
 -14   3  -1    9.88    0.90
  14   3   1   10.68    0.69
 -14   3  -1    8.54    1.16
  14   3   1    9.98    0.99
 -15   3  -1   16.16    1.40
 -15   3  -1   15.32    1.17
  15   3   1   15.71    0.90
 -15   3  -1   15.71    1.26
  15   3   1   15.15    1.12
  16   3   1    0.79    0.45
 -16   3  -1    0.35    0.40
  16   3   1    0.46    0.41
 -16   3  -1    0.50    0.34
 -16   3  -1    0.71    0.53
 -17   3  -1    7.09    0.70
  17   3   1    6.46    0.55
 -17   3  -1    6.97    0.55
  16   4  -1    0.69    0.43
 -16   4   1    0.18    0.50
 -15   4   1   48.88    2.53
 -15   4   1   41.19    2.91
 -15   4   1   37.63    2.50
  14   4  -1    1.64    0.49
 -14   4   1    1.76    0.48
  14   4  -1    2.12    0.57
 -14   4   1    1.37    0.47
  14   4  -1    1.65    0.53
 -14   4   1    2.92    0.57
 -14   4   1    2.86    0.94
 -13   4   1   19.06    1.88
  13   4  -1   23.76    1.49
 -13   4   1   19.79    1.50
 -13   4   1   21.38    1.44
  13   4  -1   22.41    1.64
 -13   4   1   22.92    1.87
  13   4  -1   21.99    1.51
 -12   4   1   15.55    1.48
  12   4  -1   15.61    1.16
  12   4  -1   16.12    1.22
 -12   4   1   17.58    1.26
 -12   4   1   16.91    1.18
 -12   4   1   18.55    1.86
  12   4  -1   14.75    1.36
  12   4  -1   17.22    1.37
  11   4  -1   12.50    0.97
  11   4  -1   15.34    1.42
  11   4  -1   12.44    1.91
 -11   4   1   11.60    2.45
  11   4  -1   15.31    1.11
 -11   4   1   14.81    1.17
  11   4  -1   12.25    1.24
 -11   4   1   14.13    1.11
 -11   4   1   14.15    1.34
 -11   4   1   16.55    1.50
 -11   4   1   11.36    1.83
  10   4  -1   -0.21    0.18
  10   4  -1   -0.16    0.65
 -10   4   1   -0.63    1.22
  10   4  -1   -1.33    0.78
  10   4  -1   -0.72    0.47
 -10   4   1   -0.24    0.64
 -10   4   1    1.40    1.68
 -10   4   1   -0.56    0.84
  10   4  -1    0.28    0.41
  10   4  -1    0.40    0.65
 -10   4   1    0.15    0.33
 -10   4   1    0.56    0.82
 -10   4   1    0.55    0.48
  10   4  -1   -2.00    0.81
 -10   4   1   -0.18    0.39
  10   4  -1    0.69    1.49
  10   4  -1   -0.48    0.37
 -10   4   1    0.13    0.51
  -9   4   1    2.14    1.37
   9   4  -1    2.82    0.46
  -9   4   1    5.99    1.75
   9   4  -1    3.22    0.79
   9   4  -1    2.68    0.36
  -9   4   1    3.62    0.74
  -9   4   1    2.54    1.02
   9   4  -1    3.48    0.97
   9   4  -1    2.88    0.69
   9   4  -1    2.75    0.45
   9   4  -1    2.82    0.25
  -9   4   1    3.50    0.72
   9   4  -1    2.69    1.02
   9   4  -1    3.79    1.51
  -9   4   1    2.90    0.62
  -9   4   1    2.95    0.49
  -9   4   1    2.06    0.42
  -9   4   1    5.43    0.88
  -8   4   1   13.70    1.46
   8   4  -1   15.97    1.01
   8   4  -1   15.24    1.28
   8   4  -1   15.05    1.32
  -8   4   1   15.48    1.82
  -8   4   1   15.85    1.33
   8   4  -1   15.10    1.54
   8   4  -1   14.85    1.40
   8   4  -1   17.62    1.92
  -8   4   1   13.19    2.07
  -8   4   1   14.05    1.04
   8   4  -1   16.12    1.05
   8   4  -1   14.06    0.84
  -8   4   1   18.39    1.30
   8   4  -1   12.78    1.37
  -8   4   1   15.79    1.35
  -8   4   1   14.06    1.03
  -8   4   1   15.23    1.35
  -8   4   1   15.15    1.31
   8   4  -1   12.62    1.13
  -7   4   1   14.82    1.12
   7   4  -1   14.66    1.52
  -7   4   1   15.17    1.22
  -7   4   1   14.39    1.27
   7   4  -1   13.56    0.94
  -7   4   1   14.36    1.92
   7   4  -1   14.25    1.25
  -7   4   1   12.81    1.25
   7   4  -1   14.52    1.11
  -7   4   1   14.23    1.25
   7   4  -1   13.93    0.98
  -7   4   1   14.61    1.42
  -7   4   1   13.03    0.95
   7   4  -1   13.37    1.23
   7   4  -1   17.00    1.31
  -7   4   1   15.14    1.00
  -7   4   1   13.75    1.88
   7   4  -1   14.82    1.86
   7   4  -1   16.63    1.50
  -6   4   1    1.70    0.49
  -6   4   1    1.34    0.30
   6   4  -1    1.69    0.49
   6   4  -1    2.18    0.66
   6   4  -1    1.23    0.26
   6   4  -1    2.62    1.05
   6   4  -1    0.49    0.75
  -6   4   1    2.01    0.59
  -6   4   1    1.99    0.50
  -6   4   1    2.86    1.15
  -6   4   1   -0.30    1.03
  -6   4   1    0.97    0.56
   6   4  -1    1.69    0.29
   6   4  -1    1.70    0.35
  -5   4   1   46.47    3.63
  -5   4   1   52.17    2.98
  -5   4   1   49.25    2.90
   5   4  -1   45.79    3.57
   5   4  -1   48.55    3.36
   5   4  -1   49.69    2.97
  -5   4   1   48.26    2.88
  -5   4   1   46.50    3.80
  -5   4   1   44.46    2.93
   5   4  -1   50.60    3.05
  -4   4   1   25.86    2.19
   4   4  -1   28.55    2.05
   4   4  -1   28.36    1.78
   4   4  -1   27.58    2.30
   4   4  -1   24.73    1.72
   4   4  -1   30.48    1.74
  -4   4   1   26.85    2.50
   4   4  -1   25.30    1.71
  -3   4   1   15.93    1.70
  -3   4   1   12.35    1.10
   3   4  -1   15.73    0.98
   3   4  -1   16.16    1.46
  -3   4   1   15.80    1.66
   3   4  -1   16.00    1.52
   3   4  -1   15.90    0.98
   3   4  -1   14.91    0.98
   3   4  -1   15.34    0.99
   3   4  -1   15.68    1.13
  -2   4   1    6.08    0.81
   2   4  -1    8.17    1.05
  -2   4   1    4.95    0.64
   2   4  -1    5.28    0.73
  -2   4   1    5.07    1.05
  -2   4   1    6.82    1.05
   2   4  -1    3.31    0.62
   1   4  -1  104.96    6.66
   1   4  -1  110.23    6.49
  -1   4   1  111.65    6.76
  -1   4   1   98.47    6.44
  -1   4   1  106.21    6.67
   1   4  -1   96.29    6.94
  -1   4   1  103.55    7.03
   1   4  -1  107.49    6.77
   0   4   1    0.08    0.75
   0   4  -1   -0.83    0.73
   0   4   1    0.77    0.58
   0   4  -1    0.11    0.58
   0   4   1   -0.03    0.61
   0   4   1    0.21    0.79
   0   4  -1   -0.27    0.36
   0   4  -1   -1.07    0.65
  -1   4  -1   20.64    1.99
   1   4   1   20.80    1.67
  -1   4  -1   19.42    1.64
  -1   4  -1   19.10    1.52
   1   4   1   21.47    1.69
   1   4   1   19.04    1.73
  -1   4  -1   18.89    1.75
   1   4   1   20.35    1.79
   2   4   1   40.48    2.94
  -2   4  -1   38.72    3.12
  -2   4  -1   37.28    2.65
  -2   4  -1   43.18    2.94
   2   4   1   44.13    2.95
   2   4   1   44.69    3.03
  -2   4  -1   44.16    2.98
  -3   4  -1   23.60    2.28
   3   4   1   22.55    1.37
   3   4   1   20.52    1.86
   3   4   1   18.22    1.50
   3   4   1   21.26    1.38
  -3   4  -1   19.91    1.84
   3   4   1   22.34    1.37
   3   4   1   23.28    1.39
   3   4   1   23.90    1.94
  -4   4  -1    1.41    0.32
   4   4   1    1.54    0.44
  -4   4  -1    0.86    0.33
  -4   4  -1    1.44    0.25
  -4   4  -1    2.52    0.83
   4   4   1    1.35    0.38
   4   4   1    1.02    0.27
   4   4   1    1.69    0.84
  -4   4  -1    0.60    0.78
   4   4   1    0.25    0.78
   4   4   1    1.40    0.40
  -4   4  -1    1.56    0.25
  -4   4  -1    0.80    0.49
  -5   4  -1   43.66    2.90
  -5   4  -1   53.53    3.00
   5   4   1   50.96    3.07
  -5   4  -1   52.42    2.95
  -5   4  -1   42.47    2.94
   5   4   1   46.56    3.41
   5   4   1   49.00    3.55
  -5   4  -1   46.91    3.86
  -5   4  -1   46.00    3.52
   5   4   1   50.54    2.99
   6   4   1    0.35    0.40
  -6   4  -1    0.73    0.56
   6   4   1   -1.03    0.75
   6   4   1   -0.57    0.93
  -6   4  -1    0.52    0.22
  -6   4  -1   -1.55    0.67
  -6   4  -1    0.33    0.51
  -6   4  -1    0.29    0.45
   6   4   1   -0.50    0.65
   6   4   1    0.55    0.29
   6   4   1    0.46    0.45
   6   4   1    0.71    0.48
  -6   4  -1    0.72    0.48
  -6   4  -1    0.45    0.97
   6   4   1    0.52    0.24
  -6   4  -1    0.59    0.27
  -6   4  -1    0.98    0.57
   7   4   1   25.45    2.12
  -7   4  -1   24.78    1.97
  -7   4  -1   25.50    2.60
   7   4   1   22.36    1.85
   7   4   1   26.47    1.61
  -7   4  -1   28.31    1.86
  -7   4  -1   24.09    1.53
   7   4   1   29.14    2.58
   7   4   1   28.41    1.84
  -7   4  -1   25.79    1.91
   7   4   1   23.79    1.52
  -7   4  -1   25.43    1.62
  -7   4  -1   28.44    1.99
  -7   4  -1   25.59    2.00
  -7   4  -1   25.19    2.78
   7   4   1   24.38    1.91
   7   4   1   22.84    1.82
   7   4   1   28.45    1.98
  -7   4  -1   25.04    1.85
   7   4   1   27.74    1.93
  -8   4  -1    3.22    0.77
   8   4   1    2.37    0.96
  -8   4  -1    2.55    0.43
   8   4   1    3.07    0.73
  -8   4  -1    1.49    0.97
  -8   4  -1    2.68    0.73
   8   4   1    2.10    0.38
   8   4   1    2.24    0.21
  -8   4  -1    2.10    0.46
   8   4   1    2.09    0.40
  -8   4  -1    2.45    0.70
   8   4   1    1.27    0.76
   8   4   1    1.94    0.55
  -8   4  -1    2.71    0.39
  -8   4  -1    2.07    1.36
  -8   4  -1    3.39    0.79
   8   4   1    2.25    0.49
   8   4   1    1.44    1.29
  -8   4  -1    2.08    0.56
   8   4   1    1.95    0.49
   9   4   1    0.62    0.18
   9   4   1    0.62    0.85
  -9   4  -1    0.74    0.38
  -9   4  -1    0.02    0.42
  -9   4  -1   -2.84    1.18
   9   4   1    0.28    0.38
   9   4   1    0.06    0.87
   9   4   1    0.91    1.42
   9   4   1    0.91    0.62
  -9   4  -1    0.04    0.61
   9   4   1    1.25    0.53
  -9   4  -1    0.79    0.55
   9   4   1    0.59    0.35
  -9   4  -1   -0.08    0.72
   9   4   1    1.12    0.70
  -9   4  -1    1.49    0.81
  -9   4  -1   -1.69    1.33
  -9   4  -1    0.68    0.69
 -10   4  -1    1.47    0.83
 -10   4  -1    1.44    0.50
  10   4   1    1.27    0.41
 -10   4  -1    1.48    0.42
  10   4   1    2.09    0.69
 -10   4  -1   -0.31    1.41
 -10   4  -1    1.28    1.68
  10   4   1    0.53    0.68
 -10   4  -1    1.96    0.95
 -10   4  -1    0.89    0.85
  10   4   1    0.94    1.51
  10   4   1    1.05    0.20
  10   4   1    1.26    0.91
  10   4   1    1.16    0.41
  10   4   1    0.85    0.72
  10   4   1    0.70    0.43
 -10   4  -1    1.18    0.75
 -10   4  -1    2.08    0.47
  11   4   1    6.68    0.76
  11   4   1    4.76    0.62
 -11   4  -1    5.58    0.64
 -11   4  -1    1.67    1.54
 -11   4  -1    6.05    0.72
  11   4   1    7.35    1.58
 -11   4  -1    5.39    1.62
  11   4   1    5.33    0.75
  11   4   1    6.38    0.65
 -11   4  -1    4.51    0.94
  11   4   1    5.81    0.42
 -11   4  -1    4.87    1.02
 -12   4  -1    5.50    0.72
  12   4   1    4.94    0.71
 -12   4  -1    4.99    0.64
 -12   4  -1    5.70    0.81
  12   4   1    5.59    0.65
  12   4   1    4.93    0.62
 -12   4  -1    6.58    1.05
  12   4   1    4.85    0.62
 -13   4  -1    2.46    0.89
  13   4   1    3.56    0.77
  13   4   1    2.95    0.56
 -13   4  -1    3.05    0.53
  13   4   1    1.69    0.59
 -13   4  -1    2.47    0.64
  13   4   1    1.96    0.51
 -13   4  -1    4.45    0.95
  14   4   1   15.75    1.07
 -14   4  -1   15.42    1.57
  14   4   1   16.29    1.14
 -14   4  -1   14.42    1.11
 -14   4  -1   14.38    1.14
  14   4   1   16.76    1.25
 -14   4  -1   13.68    1.33
  15   4   1   29.34    2.11
 -15   4  -1   31.61    1.93
 -15   4  -1   33.57    1.92
  15   4   1   33.78    1.93
  16   4   1   16.17    0.97
  16   4   1   11.73    0.84
 -16   4  -1   10.96    1.03
  16   4   1   14.14    1.00
 -16   4  -1   14.13    0.93
  16   5  -1    5.82    0.58
 -15   5   1    2.26    0.58
  15   5  -1    3.18    0.50
  14   5  -1    3.80    0.60
 -14   5   1    2.38    0.67
 -14   5   1    2.18    0.74
  13   5  -1    2.29    0.40
  13   5  -1    1.75    0.42
 -13   5   1    2.58    0.98
 -13   5   1    2.92    0.56
 -13   5   1    1.79    0.83
  13   5  -1    3.29    0.61
  12   5  -1   13.27    1.36
 -12   5   1   14.22    1.39
  12   5  -1   12.96    0.88
  12   5  -1   10.39    0.88
 -12   5   1   11.67    1.07
  12   5  -1    9.35    1.00
 -12   5   1   11.09    1.29
 -11   5   1    0.23    0.82
  11   5  -1    0.03    0.41
 -11   5   1    0.19    0.41
 -11   5   1   -0.18    0.48
  11   5  -1    1.62    0.59
  11   5  -1    0.75    0.37
 -11   5   1    0.63    0.98
  11   5  -1    1.02    0.54
  10   5  -1    6.99    0.61
  10   5  -1    6.15    1.99
 -10   5   1    6.96    0.66
  10   5  -1    5.76    0.57
  10   5  -1    5.48    0.92
 -10   5   1    5.18    1.00
 -10   5   1    6.93    0.93
 -10   5   1    6.54    1.80
 -10   5   1    7.01    0.84
  10   5  -1    5.70    0.81
 -10   5   1    3.71    2.24
  -9   5   1   24.04    1.46
  -9   5   1   22.57    1.82
  -9   5   1   26.02    2.12
   9   5  -1   23.00    1.43
   9   5  -1   27.07    1.77
  -9   5   1   20.53    2.64
   9   5  -1   23.26    1.71
  -9   5   1   18.40    2.78
   9   5  -1   22.87    1.47
   9   5  -1   21.20    2.11
   9   5  -1   20.46    2.67
  -9   5   1   22.75    2.06
   9   5  -1   20.25    1.84
   9   5  -1   20.49    1.71
  -8   5   1    0.29    1.54
   8   5  -1   -0.56    0.91
   8   5  -1   -0.16    0.32
  -8   5   1    0.43    0.60
   8   5  -1    0.13    0.31
  -8   5   1    1.36    1.04
  -8   5   1    0.42    0.58
  -8   5   1   -0.01    0.49
   8   5  -1   -0.32    1.02
   8   5  -1    0.32    0.54
   8   5  -1    0.43    0.64
  -8   5   1   -0.31    0.32
   8   5  -1    0.27    0.49
   8   5  -1    0.60    0.49
   8   5  -1    0.14    0.70
  -8   5   1    0.17    0.55
   7   5  -1   43.08    2.44
   7   5  -1   41.67    2.68
   7   5  -1   40.36    2.67
   7   5  -1   42.65    3.61
   7   5  -1   40.14    2.87
  -7   5   1   38.37    3.61
  -7   5   1   40.96    3.01
  -7   5   1   42.32    2.78
  -7   5   1   41.20    2.33
  -7   5   1   43.12    2.99
   7   5  -1   40.72    3.19
   7   5  -1   40.02    2.88
   7   5  -1   38.00    2.31
  -7   5   1   43.47    2.88
   7   5  -1   40.01    2.69
  -7   5   1   38.96    3.48
  -6   5   1    1.76    0.63
   6   5  -1    2.04    0.50
  -6   5   1    2.44    0.70
   6   5  -1    1.78    0.42
  -6   5   1    1.87    0.55
  -6   5   1    0.99    1.23
   6   5  -1    2.34    0.44
  -6   5   1    1.94    0.29
   6   5  -1    1.76    0.43
   6   5  -1    2.54    0.94
   6   5  -1    1.42    0.58
   6   5  -1    2.78    1.27
   6   5  -1    1.48    0.21
  -6   5   1    1.74    0.51
  -6   5   1    0.62    1.19
   6   5  -1    2.08    0.50
   6   5  -1    1.45    0.34
  -5   5   1    3.91    1.22
  -5   5   1    4.77    0.39
   5   5  -1    4.36    0.65
  -5   5   1    4.23    0.72
   5   5  -1    2.52    1.15
  -5   5   1    4.77    0.70
   5   5  -1    4.29    0.37
   5   5  -1    4.80    0.53
   5   5  -1    5.08    0.57
  -5   5   1    5.28    0.66
  -5   5   1    3.67    1.30
  -5   5   1    3.43    0.73
  -5   5   1    3.90    0.54
   5   5  -1    4.96    0.65
   5   5  -1    5.04    1.04
  -4   5   1   54.42    3.56
   4   5  -1   55.57    3.64
   4   5  -1   49.98    3.40
   4   5  -1   56.88    3.97
  -4   5   1   49.51    3.33
   4   5  -1   54.85    3.57
  -4   5   1   52.65    3.57
   4   5  -1   55.83    3.64
  -4   5   1   57.81    4.24
  -4   5   1   54.62    3.82
  -4   5   1   49.56    2.90
   4   5  -1   54.99    2.92
  -4   5   1   56.48    3.89
   4   5  -1   55.16    3.57
   4   5  -1   58.47    3.79
  -4   5   1   50.24    3.61
   3   5  -1    4.75    0.54
  -3   5   1    6.48    1.29
  -3   5   1    5.17    1.13
  -3   5   1    4.82    0.71
   3   5  -1    3.64    1.07
   3   5  -1    5.90    0.67
  -3   5   1    5.52    0.70
  -3   5   1    5.75    0.65
   3   5  -1    5.32    0.38
   3   5  -1    4.81    0.56
   3   5  -1    5.50    0.62
  -3   5   1    4.98    0.64
   3   5  -1    5.15    0.96
  -2   5   1    1.40    0.91
   2   5  -1   -0.56    0.66
  -2   5   1   -0.06    0.43
   2   5  -1    1.09    0.85
  -2   5   1   -0.04    0.89
  -1   5   1   56.66    3.96
  -1   5   1   58.74    4.10
  -1   5   1   55.56    3.81
   1   5  -1   50.59    3.92
   1   5  -1   57.30    3.74
  -1   5   1   53.89    3.66
   1   5  -1   57.84    3.96
   0   5  -1   34.82    2.42
   0   5   1   33.20    2.63
   0   5   1   32.74    2.50
   0   5  -1   31.47    2.47
   0   5  -1   33.65    2.63
   0   5   1   35.73    2.40
   0   5  -1   30.94    2.69
   0   5   1   31.76    2.63
  -1   5  -1    0.86    0.80
   1   5   1    0.31    0.64
   1   5   1    0.27    0.72
   1   5   1    0.76    0.82
  -1   5  -1   -0.44    0.62
  -1   5  -1    0.05    0.50
  -1   5  -1    1.18    0.94
   2   5   1   44.64    3.03
  -2   5  -1   43.44    3.48
   2   5   1   41.99    3.12
   2   5   1   40.86    2.85
  -2   5  -1   43.49    2.90
  -2   5  -1   38.00    3.05
  -2   5  -1   47.20    2.93
   2   5   1   41.75    2.95
  -2   5  -1   43.04    3.15
   3   5   1    4.17    0.91
  -3   5  -1    5.40    1.34
  -3   5  -1    4.32    0.46
   3   5   1    4.80    0.59
   3   5   1    3.89    0.31
  -3   5  -1    3.28    0.87
   3   5   1    2.79    0.57
   3   5   1    4.52    0.85
   3   5   1    4.34    0.53
  -3   5  -1    3.20    0.55
  -3   5  -1    4.74    0.63
   3   5   1    4.40    0.63
  -3   5  -1    3.55    0.66
  -4   5  -1    1.90    0.54
  -4   5  -1    1.53    0.21
   4   5   1    0.47    0.55
   4   5   1    1.00    0.21
  -4   5  -1    2.44    0.63
   4   5   1    1.05    0.85
  -4   5  -1    0.57    0.42
  -4   5  -1    0.99    1.17
   4   5   1   -0.06    0.50
  -4   5  -1    0.93    0.79
   4   5   1    1.16    0.47
   4   5   1    1.40    0.90
   4   5   1    0.70    0.45
   4   5   1    1.45    0.50
  -4   5  -1    1.31    0.43
  -4   5  -1    1.16    0.51
   5   5   1   40.93    2.31
  -5   5  -1   42.82    2.69
   5   5   1   39.26    2.37
   5   5   1   38.39    2.59
   5   5   1   38.96    2.77
  -5   5  -1   38.59    2.94
  -5   5  -1   41.26    2.19
  -5   5  -1   36.13    2.75
   5   5   1   40.90    3.14
  -5   5  -1   41.61    2.55
   5   5   1   39.84    2.70
  -5   5  -1   40.33    3.37
  -5   5  -1   39.83    2.71
   5   5   1   41.01    2.19
   5   5   1   37.80    2.29
   5   5   1   44.02    3.13
   5   5   1   37.85    2.76
  -5   5  -1   31.03    3.00
   5   5   1   37.25    2.38
   6   5   1   -0.18    0.18
  -6   5  -1    0.17    0.98
  -6   5  -1   -0.18    0.46
   6   5   1    0.06    0.49
   6   5   1    0.52    0.48
   6   5   1   -0.33    0.34
   6   5   1    1.28    0.96
  -6   5  -1    0.55    0.44
  -6   5  -1   -0.43    0.56
   6   5   1    0.32    0.45
   6   5   1   -0.68    1.04
   6   5   1    0.53    0.37
   6   5   1   -0.10    0.26
  -6   5  -1   -0.35    0.24
   6   5   1    0.16    0.45
  -6   5  -1   -1.12    0.81
  -6   5  -1   -0.05    0.36
   7   5   1    0.18    0.99
  -7   5  -1   -0.26    0.52
   7   5   1    0.13    0.30
  -7   5  -1    0.33    0.71
   7   5   1    0.18    0.51
  -7   5  -1    0.79    0.65
   7   5   1    0.08    0.21
   7   5   1    0.51    0.55
   7   5   1    0.38    0.39
   7   5   1    0.03    0.44
   7   5   1   -0.08    0.50
  -7   5  -1   -0.42    0.60
  -7   5  -1    0.13    0.97
   7   5   1   -0.34    0.54
   7   5   1   -1.58    1.05
  -7   5  -1   -0.02    0.30
   8   5   1    9.94    1.12
   8   5   1   11.03    0.81
   8   5   1   11.79    0.78
   8   5   1    5.72    1.78
   8   5   1   11.69    1.05
  -8   5  -1   11.39    0.87
   8   5   1   11.61    1.08
  -8   5  -1   11.53    1.19
  -8   5  -1   10.74    1.08
   8   5   1   11.91    1.23
   8   5   1   12.08    1.42
   8   5   1   11.39    1.14
  -8   5  -1   11.39    1.25
  -8   5  -1    8.99    1.92
  -8   5  -1   12.99    1.18
  -9   5  -1   16.67    1.34
  -9   5  -1   12.35    1.99
  -9   5  -1   14.90    1.13
  -9   5  -1   16.27    1.52
   9   5   1   15.56    1.46
   9   5   1   17.74    1.10
   9   5   1   14.26    1.83
   9   5   1   15.57    1.46
  -9   5  -1   16.22    1.00
   9   5   1   14.17    1.24
   9   5   1   17.14    1.11
  -9   5  -1   14.01    1.22
  -9   5  -1   17.54    1.72
  10   5   1   24.06    1.56
 -10   5  -1   23.66    2.16
  10   5   1   22.06    1.90
  10   5   1   25.13    1.48
  10   5   1   23.22    1.93
 -10   5  -1   24.87    2.04
 -10   5  -1   24.26    1.47
 -10   5  -1   25.75    1.59
 -10   5  -1   24.73    1.91
  11   5   1   35.43    2.09
 -11   5  -1   37.60    2.71
  11   5   1   35.06    2.48
 -11   5  -1   29.48    1.97
  11   5   1   34.87    2.33
 -11   5  -1   32.27    2.32
  11   5   1   33.93    2.03
 -11   5  -1   35.67    2.62
 -11   5  -1   35.11    2.08
  12   5   1   15.83    1.39
  12   5   1   18.12    1.19
  12   5   1   17.66    1.26
 -12   5  -1   17.91    1.62
  12   5   1   22.03    1.63
 -12   5  -1   17.10    1.31
 -12   5  -1   16.96    1.57
 -13   5  -1    1.37    0.60
  13   5   1    1.04    0.39
 -13   5  -1   -0.62    0.84
  13   5   1    0.99    0.68
  13   5   1    0.64    0.33
 -13   5  -1    0.68    0.37
  13   5   1    0.54    0.31
  14   5   1    0.63    0.20
 -14   5  -1   -0.25    0.47
 -14   5  -1    1.08    0.70
  14   5   1    1.21    0.43
 -14   5  -1    1.21    0.53
  14   5   1    1.26    0.44
  15   5   1    2.43    0.32
  15   5   1    1.42    0.38
 -15   5  -1    1.54    0.39
 -15   5  -1    2.24    0.34
 -15   5  -1    1.87    0.41
 -14   6   1    4.90    0.60
 -14   6   1    3.05    0.50
  14   6  -1    3.78    0.53
 -13   6   1    6.90    0.97
  13   6  -1    7.24    0.67
  13   6  -1    5.94    0.57
  13   6  -1    9.38    0.80
 -13   6   1    7.12    1.01
 -12   6   1    2.42    0.66
  12   6  -1    1.83    0.44
 -12   6   1    1.18    0.93
  12   6  -1    2.61    0.60
  12   6  -1    1.54    0.39
 -11   6   1   14.74    1.48
  11   6  -1   14.42    1.55
 -11   6   1   16.29    1.04
  11   6  -1   16.51    1.06
  11   6  -1   13.74    1.36
 -11   6   1   13.72    1.40
 -11   6   1   14.04    1.65
 -10   6   1    8.53    1.04
  10   6  -1    7.66    0.92
 -10   6   1    7.98    1.04
 -10   6   1   10.00    0.76
  10   6  -1    8.82    0.97
  10   6  -1    9.66    0.79
 -10   6   1    8.66    1.00
   9   6  -1    3.00    0.57
   9   6  -1    3.14    0.50
   9   6  -1    3.35    0.43
  -9   6   1    2.92    0.76
  -9   6   1    3.58    0.41
   9   6  -1    2.65    0.84
  -9   6   1    3.67    0.80
  -9   6   1    3.46    0.94
  -8   6   1    2.37    0.36
   8   6  -1    2.55    0.60
   8   6  -1    1.57    0.35
  -8   6   1    2.40    0.89
  -8   6   1    2.49    0.59
  -8   6   1    2.31    0.67
   8   6  -1    2.38    0.89
   8   6  -1    3.05    0.63
   8   6  -1    0.77    1.25
   8   6  -1    2.52    0.67
  -8   6   1    2.76    1.65
  -7   6   1    3.74    1.68
  -7   6   1   10.17    1.14
  -7   6   1    9.12    1.11
  -7   6   1    8.99    0.90
   7   6  -1    7.38    0.68
  -7   6   1    7.95    0.99
  -7   6   1    7.46    0.59
   7   6  -1    7.50    0.89
   7   6  -1    5.86    1.15
   7   6  -1    8.57    0.98
   7   6  -1    7.50    0.91
   7   6  -1    6.82    1.52
  -6   6   1   36.67    2.81
  -6   6   1   35.41    3.34
   6   6  -1   35.97    3.38
   6   6  -1   41.14    2.65
   6   6  -1   37.85    2.66
  -6   6   1   38.35    2.60
  -6   6   1   37.65    2.73
  -6   6   1   37.11    2.07
   6   6  -1   38.42    2.61
   6   6  -1   37.69    2.11
   6   6  -1   36.94    2.95
   6   6  -1   37.14    2.71
  -6   6   1   35.97    2.93
   5   6  -1    2.57    1.30
  -5   6   1    2.23    0.76
  -5   6   1    1.30    0.89
  -5   6   1    2.22    0.49
   5   6  -1    1.65    1.02
   5   6  -1    1.58    0.22
   5   6  -1    2.10    0.55
   5   6  -1    2.02    0.49
   5   6  -1    0.86    0.59
  -5   6   1    0.89    1.34
  -5   6   1    1.63    0.71
   5   6  -1    1.79    0.60
  -5   6   1    2.01    0.49
  -5   6   1    1.72    0.54
  -4   6   1    0.06    1.05
   4   6  -1    0.59    0.63
   4   6  -1    0.18    0.48
   4   6  -1    0.53    0.16
   4   6  -1   -0.65    0.83
  -4   6   1    0.65    0.43
  -4   6   1   -1.07    1.16
  -4   6   1    0.83    0.40
  -4   6   1    0.54    0.32
   4   6  -1    0.18    0.39
  -4   6   1    1.09    0.65
  -4   6   1    0.35    0.69
   4   6  -1    0.83    0.54
   4   6  -1    0.86    1.14
   4   6  -1    0.12    0.54
  -4   6   1    1.09    0.65
   3   6  -1    0.84    0.55
  -3   6   1    0.51    0.60
   3   6  -1    1.28    0.92
  -3   6   1    0.99    0.62
   3   6  -1    0.26    0.46
  -3   6   1    0.84    0.49
  -3   6   1    0.47    0.41
  -3   6   1   -0.29    0.74
  -3   6   1    0.44    0.51
   3   6  -1    0.13    1.07
   3   6  -1    0.53    0.53
  -3   6   1   -0.07    0.43
   3   6  -1    0.72    0.55
  -3   6   1   -0.49    0.98
   3   6  -1    0.29    0.52
   3   6  -1    0.29    0.44
  -2   6   1   14.50    1.24
  -2   6   1   11.67    1.27
  -2   6   1   13.00    1.12
   2   6  -1   12.25    1.32
  -2   6   1   12.20    1.58
   2   6  -1   11.06    1.07
   2   6  -1   12.18    1.18
  -2   6   1    8.77    1.54
   2   6  -1   12.41    1.05
   2   6  -1    9.99    1.52
  -2   6   1   12.09    1.08
   2   6  -1   12.35    1.15
  -2   6   1   11.68    1.10
  -2   6   1   12.04    1.05
  -2   6   1   11.93    1.32
   2   6  -1   11.48    0.99
  -2   6   1   11.38    1.00
   2   6  -1   12.22    0.98
  -1   6   1    2.28    1.05
   1   6  -1    5.71    1.18
  -1   6   1    3.90    0.74
  -1   6   1    3.31    0.53
  -1   6   1    2.14    1.00
  -1   6   1    4.84    0.57
  -1   6   1    3.79    0.57
  -1   6   1    3.49    0.58
   1   6  -1    2.99    0.87
   1   6  -1    2.90    0.61
   1   6  -1    2.89    0.59
  -1   6   1    4.28    0.53
   1   6  -1    3.03    0.59
  -1   6   1    4.20    0.57
   1   6  -1    3.73    0.63
   1   6  -1    3.73    0.53
   1   6  -1    4.03    0.58
   1   6  -1    3.80    0.52
  -1   6   1    4.25    0.52
   1   6  -1    3.85    0.63
   0   6  -1   10.92    0.96
   0   6   1   10.07    0.85
   0   6  -1   11.22    1.04
   0   6   1    9.89    1.45
   0   6  -1    9.96    1.02
   0   6   1    9.41    0.90
   0   6   1    8.67    1.21
   0   6   1   10.25    0.89
   0   6   1    9.78    0.96
   0   6   1   10.67    1.04
   0   6  -1    9.78    0.85
   0   6  -1   10.28    0.97
   0   6  -1    9.17    0.89
   0   6  -1    9.46    0.96
   0   6   1    9.14    0.99
   0   6   1   10.48    1.14
   0   6  -1    8.33    1.12
   0   6  -1   10.08    0.97
   0   6  -1   10.53    1.43
   0   6   1    9.11    0.92
   1   6   1    0.73    0.84
   1   6   1    0.41    0.35
   1   6   1    0.94    0.56
   1   6   1    0.62    0.39
   1   6   1    0.67    0.41
  -1   6  -1    0.57    0.52
   1   6   1    0.04    0.44
  -1   6  -1    0.68    0.30
   1   6   1    0.04    0.40
  -1   6  -1    1.18    0.44
  -1   6  -1    0.16    0.44
  -1   6  -1    0.27    0.60
   1   6   1    0.78    0.48
   1   6   1    0.43    0.44
  -1   6  -1    0.25    0.50
  -1   6  -1    0.78    0.48
  -1   6  -1    0.32    0.35
  -1   6  -1   -0.48    0.96
  -1   6  -1   -0.08    0.85
  -2   6  -1   -0.67    1.07
  -2   6  -1    0.22    0.41
   2   6   1   -0.34    0.62
   2   6   1    0.20    0.48
  -2   6  -1    0.13    0.46
  -2   6  -1   -0.48    0.61
   2   6   1   -0.21    0.32
   2   6   1    0.25    0.54
  -2   6  -1    0.72    0.53
   2   6   1   -0.27    0.56
  -2   6  -1    0.44    0.37
   2   6   1    0.28    0.38
  -2   6  -1    0.13    0.38
  -2   6  -1    0.39    0.46
   2   6   1    0.22    0.51
  -2   6  -1    0.68    0.44
   3   6   1   58.35    3.90
  -3   6  -1   62.40    3.84
  -3   6  -1   55.82    3.80
   3   6   1   63.43    3.86
   3   6   1   60.68    4.03
  -3   6  -1   56.49    4.10
  -3   6  -1   56.81    4.59
  -3   6  -1   59.69    3.63
   3   6   1   56.30    3.92
   3   6   1   53.13    3.06
  -3   6  -1   60.78    3.83
   3   6   1   57.52    3.84
  -3   6  -1   53.40    3.83
   3   6   1   52.53    3.63
   3   6   1   54.35    4.00
   4   6   1    8.74    1.24
  -4   6  -1    9.53    1.00
   4   6   1    7.57    0.82
  -4   6  -1    7.84    0.84
  -4   6  -1    9.58    0.94
  -4   6  -1    7.98    1.03
   4   6   1    8.09    0.88
   4   6   1    8.35    0.85
   4   6   1   11.96    1.04
  -4   6  -1    8.13    0.80
   4   6   1    8.35    0.54
  -4   6  -1    6.09    1.62
  -4   6  -1    6.82    0.90
   4   6   1    8.59    0.87
   5   6   1    2.85    0.31
  -5   6  -1    3.06    0.25
   5   6   1    2.85    0.69
  -5   6  -1    3.53    0.84
   5   6   1    3.24    0.52
   5   6   1    2.36    0.68
  -5   6  -1    2.96    0.57
   5   6   1    4.66    0.56
   5   6   1    3.05    1.16
  -5   6  -1    2.73    1.53
  -5   6  -1    2.90    0.62
  -5   6  -1    3.41    0.69
  -5   6  -1    3.89    0.59
  -6   6  -1    0.61    0.52
  -6   6  -1    1.28    0.64
  -6   6  -1    0.46    0.68
   6   6   1    0.42    0.24
   6   6   1   -1.20    0.99
  -6   6  -1    2.15    1.54
  -6   6  -1    0.54    0.79
   6   6   1    0.51    0.44
   6   6   1    0.84    0.39
   6   6   1    1.18    0.62
  -6   6  -1    0.41    0.22
   6   6   1    1.19    0.63
  -7   6  -1    0.17    0.82
   7   6   1    0.68    0.61
  -7   6  -1   -0.49    0.72
  -7   6  -1   -0.54    1.53
   7   6   1    0.82    0.52
  -7   6  -1    0.33    0.73
   7   6   1   -0.07    0.26
  -7   6  -1    0.37    0.45
   7   6   1    0.33    0.59
  -7   6  -1    0.50    0.27
   7   6   1   -0.42    1.07
   7   6   1    0.81    0.65
   8   6   1   23.86    1.79
  -8   6  -1   22.69    2.05
  -8   6  -1   26.27    1.88
  -8   6  -1   24.11    2.19
   8   6   1   24.74    1.75
  -8   6  -1   23.78    1.98
   8   6   1   22.26    1.92
   8   6   1   22.01    1.42
  -8   6  -1   24.53    1.45
  -9   6  -1    3.16    0.83
   9   6   1    4.44    0.64
   9   6   1    4.25    0.80
  -9   6  -1    3.80    0.44
  -9   6  -1    4.04    0.91
  -9   6  -1    3.29    0.98
   9   6   1    4.37    0.57
   9   6   1    3.87    0.45
  10   6   1    1.10    0.73
 -10   6  -1    0.50    0.66
 -10   6  -1    0.58    0.36
  10   6   1    0.78    0.47
  10   6   1    0.29    0.34
 -10   6  -1    0.17    0.82
  11   6   1    3.99    0.47
 -11   6  -1    3.84    0.47
 -11   6  -1    3.47    0.68
 -11   6  -1    4.73    0.81
  11   6   1    3.45    0.62
  11   6   1    5.44    0.62
 -12   6  -1    4.35    0.85
 -12   6  -1    4.95    1.01
  12   6   1    4.74    0.60
  12   6   1    4.76    0.43
  12   6   1    4.51    0.78
 -13   6  -1   -0.60    0.57
 -13   6  -1    0.74    0.29
 -13   6  -1    0.66    0.42
  13   6   1   -0.12    0.32
  13   6   1    0.05    0.35
  13   6   1    0.98    0.61
  14   6   1    2.84    0.32
 -14   6  -1    1.39    0.42
  12   7  -1    1.25    0.46
 -12   7   1    2.08    0.75
 -12   7   1    1.83    0.51
  12   7  -1    1.32    0.35
 -11   7   1    0.24    0.60
 -11   7   1    0.18    0.57
  11   7  -1    1.45    0.73
  11   7  -1    0.32    0.39
  10   7  -1    7.66    0.85
 -10   7   1    7.32    0.96
  10   7  -1    8.38    0.88
 -10   7   1    8.58    0.96
   9   7  -1    1.60    0.51
   9   7  -1    1.15    0.58
  -9   7   1    0.83    0.95
   9   7  -1    1.40    0.62
  -9   7   1    1.72    0.67
  -9   7   1    1.87    0.55
   8   7  -1   -0.27    0.42
  -8   7   1    0.76    0.63
  -8   7   1    0.19    0.52
  -8   7   1   -0.55    0.89
   8   7  -1   -1.03    0.75
   8   7  -1    0.36    0.46
   7   7  -1    9.41    1.02
  -7   7   1   10.43    1.07
  -7   7   1    9.90    1.11
   7   7  -1    9.00    1.02
  -7   7   1    9.72    1.26
   7   7  -1   10.51    1.09
  -6   7   1    5.34    0.84
  -6   7   1    4.31    0.87
   6   7  -1    4.65    0.71
  -6   7   1    5.73    0.71
   6   7  -1    4.32    0.68
   6   7  -1    5.53    0.81
  -6   7   1    6.11    0.99
   5   7  -1   17.82    1.47
   5   7  -1   19.95    1.68
  -5   7   1   19.15    1.63
  -5   7   1   19.92    1.89
  -5   7   1   17.29    1.54
   5   7  -1   22.28    1.59
  -5   7   1   18.97    1.62
   5   7  -1   17.44    1.65
   4   7  -1   -0.78    0.59
  -4   7   1   -0.09    0.45
   4   7  -1    0.12    0.45
  -4   7   1   -1.05    0.79
   4   7  -1   -0.24    0.62
  -4   7   1   -0.25    0.58
  -4   7   1    0.12    0.35
  -4   7   1   -0.21    0.73
   4   7  -1    0.18    0.38
  -4   7   1    1.31    0.72
  -3   7   1    0.79    0.57
   3   7  -1    0.93    0.61
   3   7  -1    1.31    0.57
   3   7  -1    1.89    0.67
  -3   7   1    1.58    0.60
  -3   7   1    0.50    0.51
  -3   7   1    0.72    0.50
   3   7  -1    1.00    0.65
   3   7  -1    1.19    0.51
  -3   7   1    1.49    0.70
  -3   7   1    1.02    0.38
   2   7  -1    6.92    0.88
   2   7  -1    6.75    0.82
  -2   7   1    6.25    0.73
  -2   7   1    6.28    0.98
  -2   7   1    7.05    0.77
  -2   7   1    5.93    0.75
  -2   7   1    5.82    0.65
   2   7  -1    7.25    0.72
   2   7  -1    7.74    0.78
  -2   7   1    5.27    0.74
  -2   7   1    7.17    0.79
   2   7  -1    7.04    0.74
  -2   7   1    7.65    0.82
   2   7  -1    6.62    0.84
  -1   7   1   26.66    2.06
  -1   7   1   29.51    1.99
  -1   7   1   28.50    2.03
   1   7  -1   28.55    2.03
  -1   7   1   25.83    2.07
   1   7  -1   26.24    2.06
  -1   7   1   29.29    2.24
   1   7  -1   27.83    2.02
  -1   7   1   27.42    2.01
   1   7  -1   26.86    1.96
  -1   7   1   28.46    2.03
   1   7  -1   29.82    2.09
   1   7  -1   25.45    2.02
  -1   7   1   26.97    1.91
   1   7  -1   26.45    2.02
   0   7  -1   -0.41    0.55
   0   7   1   -1.15    0.54
   0   7  -1    0.29    0.48
   0   7  -1    0.01    0.53
   0   7  -1    0.60    0.45
   0   7   1    0.15    0.56
   0   7  -1    0.20    0.54
   0   7   1    0.15    0.49
   0   7  -1   -0.76    0.60
   0   7   1   -0.33    0.36
   0   7   1   -0.21    0.65
   0   7   1   -0.32    0.48
   0   7  -1   -0.05    0.58
   0   7   1    0.40    0.39
   0   7  -1   -0.15    0.38
   0   7   1   -0.73    0.66
  -1   7  -1    1.20    0.41
  -1   7  -1    1.31    0.36
  -1   7  -1    1.59    0.62
   1   7   1    1.25    0.49
   1   7   1    1.50    0.68
  -1   7  -1    0.93    0.52
   1   7   1    1.23    0.59
  -1   7  -1    0.74    0.50
   1   7   1    1.14    0.68
   1   7   1    1.30    0.41
   1   7   1    0.86    0.57
  -1   7  -1    0.69    0.45
  -1   7  -1    0.98    0.41
  -1   7  -1    1.12    0.67
   1   7   1    0.64    0.67
  -2   7  -1   -0.21    0.59
   2   7   1   -0.04    0.64
  -2   7  -1   -0.28    0.51
  -2   7  -1    1.06    0.52
   2   7   1    0.32    0.38
   2   7   1   -0.27    0.68
   2   7   1    0.27    1.02
  -2   7  -1   -0.32    0.51
  -2   7  -1    0.47    0.53
   2   7   1   -0.06    0.41
   2   7   1   -0.62    0.52
  -2   7  -1    0.20    0.45
  -2   7  -1    1.49    0.64
  -2   7  -1    0.23    0.45
   2   7   1    0.17    0.62
  -3   7  -1    1.61    0.81
  -3   7  -1    1.64    0.62
   3   7   1    2.16    0.60
  -3   7  -1    0.71    0.52
   3   7   1    2.04    0.59
  -3   7  -1    1.81    0.56
  -3   7  -1    0.70    0.65
   3   7   1    1.06    0.63
  -3   7  -1    1.03    1.44
   3   7   1    0.45    0.75
  -3   7  -1    2.21    0.57
   3   7   1    1.83    0.52
   3   7   1    0.94    0.58
   4   7   1    4.33    0.57
  -4   7  -1    3.30    0.51
  -4   7  -1    3.35    0.71
  -4   7  -1   -0.99    1.46
  -4   7  -1    4.16    0.62
  -4   7  -1    2.77    0.66
   4   7   1    3.22    0.73
  -4   7  -1    3.23    0.61
   4   7   1    3.51    0.76
   4   7   1    3.49    0.69
   4   7   1    5.10    1.07
   5   7   1    0.00    0.46
  -5   7  -1    0.20    0.68
  -5   7  -1    0.72    0.47
  -5   7  -1   -0.62    0.58
   5   7   1    1.04    0.50
   5   7   1    0.59    0.62
   5   7   1    1.17    0.58
  -5   7  -1   -0.04    0.74
   6   7   1    1.82    0.70
   6   7   1    1.74    0.53
   6   7   1    1.63    0.62
  -6   7  -1    1.63    0.80
  -6   7  -1    1.93    0.54
   6   7   1    2.05    0.69
  -6   7  -1    2.04    0.95
  -6   7  -1    0.88    0.72
  -7   7  -1   -0.18    0.64
   7   7   1   -0.42    0.44
  -7   7  -1   -1.10    0.71
   7   7   1    0.21    0.67
   7   7   1    0.04    0.16
  -7   7  -1    0.18    0.47
  -7   7  -1   -0.19    0.75
   8   7   1    0.43    0.22
   8   7   1    0.43    0.49
   8   7   1   -0.08    0.63
  -8   7  -1    0.57    0.54
  -8   7  -1   -0.08    0.53
  -8   7  -1    0.91    0.69
  -9   7  -1    1.57    0.94
   9   7   1    1.02    0.50
   9   7   1    0.00    0.22
   9   7   1    1.18    0.48
  -9   7  -1    0.52    0.51
  10   7   1    0.21    0.45
 -10   7  -1    0.59    0.65
 -10   7  -1   -0.01    0.46
  10   7   1    1.35    0.63
  10   7   1    0.19    0.17
  11   7   1    5.33    0.73
  11   7   1    3.82    0.60
  11   7   1    6.90    0.43
 -11   7  -1    6.54    0.86
  12   7   1    0.39    0.35
 -12   7  -1   -0.49    0.71
 -11   8   1   -0.24    0.39
  10   8  -1   -0.06    0.38
 -10   8   1    0.18    0.39
 -10   8   1    0.61    0.57
  10   8  -1    0.39    0.36
  -9   8   1   14.51    1.19
  -9   8   1   13.12    1.26
   9   8  -1   14.77    1.29
   9   8  -1   13.66    1.14
  -8   8   1    2.30    0.92
   8   8  -1    2.68    0.68
   8   8  -1    2.53    0.77
  -8   8   1    1.12    0.74
  -7   8   1    0.57    0.90
   7   8  -1   -1.55    0.60
   7   8  -1    0.91    0.46
  -7   8   1    0.43    0.54
   7   8  -1    1.24    0.55
  -7   8   1    0.23    0.51
  -6   8   1    3.42    0.82
   6   8  -1    4.41    0.83
   6   8  -1    3.60    0.76
   6   8  -1    4.44    0.61
  -6   8   1    4.21    0.86
  -6   8   1    2.84    0.97
  -5   8   1   12.87    1.39
   5   8  -1   13.49    1.19
   5   8  -1   13.83    1.36
  -5   8   1   11.99    1.22
  -5   8   1   13.56    1.55
   5   8  -1   12.48    1.17
  -4   8   1    1.05    0.73
   4   8  -1    0.74    0.48
  -4   8   1    0.66    0.62
  -4   8   1    0.38    0.74
   4   8  -1   -0.20    0.65
  -4   8   1    0.25    0.43
   4   8  -1    0.18    0.48
  -3   8   1    4.49    0.98
  -3   8   1    6.18    0.65
   3   8  -1    6.55    0.77
   3   8  -1    6.18    0.72
   3   8  -1    6.17    0.83
  -3   8   1    5.31    0.74
  -3   8   1    4.83    0.56
  -3   8   1    5.76    0.80
   3   8  -1    5.87    0.72
  -3   8   1    6.53    0.90
  -2   8   1    1.70    0.61
   2   8  -1    2.10    0.51
  -2   8   1    2.81    0.57
   2   8  -1    2.14    0.52
  -2   8   1    2.48    0.44
   2   8  -1    1.53    0.67
   2   8  -1    1.70    0.59
  -2   8   1    1.57    0.54
  -2   8   1    2.76    0.77
  -2   8   1    1.23    0.61
  -2   8   1    1.54    0.40
   1   8  -1    2.91    0.55
   1   8  -1    2.37    0.62
  -1   8   1    2.77    0.60
   1   8  -1    2.15    0.69
  -1   8   1    3.15    0.62
  -1   8   1    2.39    0.61
   1   8  -1    3.11    0.60
  -1   8   1    2.58    0.69
  -1   8   1    2.14    0.62
   1   8  -1    2.61    0.52
  -1   8   1    3.03    0.49
  -1   8   1    1.52    0.75
   1   8  -1    2.29    0.66
  -1   8   1    3.10    0.46
   0   8   1    0.15    0.53
   0   8   1    0.96    0.56
   0   8  -1    1.76    0.64
   0   8  -1    0.26    0.43
   0   8  -1    1.90    0.61
   0   8   1    0.41    0.57
   0   8   1    1.50    0.55
   0   8   1    0.92    0.61
   0   8  -1    1.91    0.58
   0   8  -1    0.84    0.45
   0   8   1    0.87    0.76
   0   8  -1    0.96    0.37
   0   8   1    0.85    0.41
   0   8  -1    1.11    0.47
   1   8   1    3.05    0.80
  -1   8  -1    1.62    0.64
   1   8   1    1.38    0.58
  -1   8  -1    2.20    0.53
  -1   8  -1    1.44    0.45
  -1   8  -1    1.17    0.60
   1   8   1    2.51    0.57
   1   8   1    1.48    0.64
   1   8   1    1.30    0.51
  -1   8  -1    1.10    0.47
  -1   8  -1    1.35    0.51
  -1   8  -1    1.52    0.46
  -1   8  -1    1.17    0.54
   1   8   1    1.67    0.70
   2   8   1    2.36    0.62
  -2   8  -1    2.13    0.62
   2   8   1    2.15    0.55
  -2   8  -1    2.15    0.45
   2   8   1    0.94    0.42
   2   8   1    2.92    0.62
  -2   8  -1    1.71    0.58
  -2   8  -1    1.88    0.68
  -2   8  -1    2.37    0.55
  -2   8  -1    1.61    0.75
   2   8   1    1.87    0.69
   3   8   1   -0.82    0.53
  -3   8  -1    0.43    0.54
  -3   8  -1    0.20    0.57
  -3   8  -1   -0.81    0.42
   3   8   1    0.64    0.50
   3   8   1    0.43    0.41
  -3   8  -1   -0.89    0.78
   3   8   1    1.07    0.65
   4   8   1    0.90    0.69
  -4   8  -1    0.68    0.65
  -4   8  -1    1.02    0.76
   4   8   1   -0.50    0.65
   4   8   1    0.32    0.59
  -4   8  -1   -0.60    0.59
   4   8   1   -0.07    0.55
   5   8   1   38.51    2.54
   5   8   1   35.38    2.40
  -5   8  -1   35.45    2.67
   5   8   1   35.29    2.53
  -5   8  -1   34.34    2.46
  -5   8  -1   32.73    2.50
  -6   8  -1    0.62    0.94
   6   8   1   -0.22    0.60
  -6   8  -1   -0.13    0.46
   6   8   1    0.71    0.68
   6   8   1    0.20    0.47
   7   8   1    0.72    0.43
  -7   8  -1    1.49    0.94
   7   8   1    1.27    0.51
   8   8   1    0.25    0.62
  -8   8  -1   -0.38    0.90
  -8   8  -1   -1.14    0.46
   9   8   1    1.19    0.46
  -9   8  -1    2.08    0.65
 -10   8  -1    2.31    0.58
  10   8   1    3.35    0.47
   7   9  -1    5.12    0.57
  -7   9   1    4.79    0.68
   6   9  -1    0.12    0.39
  -6   9   1    0.72    0.54
   6   9  -1    0.33    0.34
   5   9  -1    4.31    0.53
   5   9  -1    3.62    0.55
  -5   9   1    3.94    0.63
  -5   9   1    3.05    0.52
   4   9  -1    0.33    0.43
   4   9  -1   -0.10    0.42
  -4   9   1    0.45    0.61
  -4   9   1    0.85    0.41
  -4   9   1   -0.23    0.47
  -3   9   1    5.89    0.63
   3   9  -1    4.20    0.58
   3   9  -1    5.33    0.61
  -3   9   1    5.16    0.67
  -3   9   1    4.89    0.72
  -2   9   1    7.72    0.82
   2   9  -1    9.20    0.85
   2   9  -1    8.14    0.80
  -2   9   1    6.75    0.92
   1   9  -1    3.25    0.64
  -1   9   1    3.77    0.47
   1   9  -1    2.94    0.61
   0   9  -1    0.33    0.34
   0   9   1    0.26    0.33
   0   9  -1    0.85    0.53
   0   9   1    1.23    0.39
   0   9   1    0.79    0.49
  -1   9  -1    0.56    0.53
  -1   9  -1    1.94    0.42
  -1   9  -1    1.78    0.57
   1   9   1    1.23    0.44
   1   9   1    1.71    0.53
   1   9   1    1.39    0.39
  -2   9  -1    0.50    0.56
  -2   9  -1   -0.11    0.39
   2   9   1    0.48    0.42
   2   9   1    0.24    0.40
  -2   9  -1    0.94    0.46
  -3   9  -1   -0.20    0.60
  -3   9  -1    0.46    0.59
   3   9   1    0.58    0.44
   3   9   1    0.60    0.42
  -4   9  -1    0.07    0.47
   4   9   1   -0.70    0.42
  -5   9  -1    0.43    0.69
   5   9   1    2.15    0.62
   6   9   1    1.01    0.43
  -6   9  -1    0.17    0.48
   7   9   1    7.76    0.74
  -7   9  -1    6.79    0.78
  17   0  -2    0.09    0.27
  16   0  -2    1.46    0.43
  15   0  -2    0.07    0.28
 -15   0   2    0.25    0.53
 -14   0   2   58.34    3.33
 -13   0   2    0.54    0.48
 -12   0   2   43.10    2.47
 -11   0   2   -0.39    0.41
  -9   0   2    0.20    0.68
  -9   0   2    0.34    0.60
  -8   0   2   15.33    1.46
   8   0  -2   10.56    1.90
  -8   0   2   15.96    1.41
  -8   0   2   10.41    1.94
   8   0  -2   13.46    1.37
   8   0  -2   15.66    1.36
  -7   0   2    0.78    1.00
  -7   0   2    0.96    0.63
   7   0  -2   -0.21    0.66
  -7   0   2   -0.36    0.72
  -7   0   2   -0.47    0.58
   7   0  -2   -0.04    0.52
   7   0  -2    1.42    0.94
   7   0  -2   -0.95    0.91
  -6   0   2    4.36    0.70
   6   0  -2    3.52    0.77
  -6   0   2    4.88    0.85
  -6   0   2    3.82    1.12
   6   0  -2    4.24    1.09
  -6   0   2    4.30    0.99
   5   0  -2   -1.02    0.86
   5   0  -2   -0.06    0.32
  -5   0   2    0.20    0.37
   5   0  -2   -0.43    0.74
  -5   0   2   -0.14    0.53
   5   0  -2    0.30    0.61
  -5   0   2   -0.42    0.89
  -5   0   2    1.08    0.68
  -4   0   2  514.22   28.60
   4   0  -2  481.68   28.31
   4   0  -2  512.67   28.56
  -4   0   2  511.95   28.55
   4   0  -2  502.61   28.61
   4   0  -2  505.61   29.43
  -4   0   2  505.52   29.44
  -4   0   2  496.27   28.34
  -3   0   2    0.22    0.47
   3   0  -2    0.30    0.49
  -3   0   2    0.02    0.27
  -3   0   2    0.73    0.78
   3   0  -2    0.66    0.60
  -3   0   2    0.03    0.52
   3   0  -2   -0.22    0.52
   3   0  -2    0.00    0.25
   2   0  -2   45.11    2.77
   2   0  -2   43.47    2.55
  -2   0   2   40.62    2.76
   2   0  -2   42.29    2.61
  -2   0   2   43.02    2.59
  -2   0   2   42.82    2.61
  -2   0   2   43.63    2.70
   2   0  -2   44.13    2.74
   1   0  -2   -0.04    0.15
  -1   0   2   -0.20    0.33
  -1   0   2   -0.04    0.17
   1   0  -2   -0.19    0.20
   1   0  -2    0.00    0.45
  -1   0   2   -0.16    0.30
   1   0  -2    0.55    0.31
   1   0  -2    0.16    0.37
  -1   0   2    0.20    0.49
  -1   0   2   -0.10    0.24
   0   0  -2   67.47    4.12
   0   0   2   64.74    3.99
   0   0   2   75.67    4.08
   0   0   2   72.29    4.12
   0   0  -2   66.68    4.30
   0   0   2   68.47    4.12
   0   0  -2   70.41    4.10
   0   0   2   70.21    4.28
   0   0  -2   67.20    3.98
   0   0  -2   77.04    4.10
  -1   0  -2   -0.30    0.38
   1   0   2    0.47    0.57
  -1   0  -2   -0.36    0.40
  -1   0  -2    0.00    0.21
   1   0   2   -0.99    0.54
  -1   0  -2    0.01    0.59
   1   0   2   -0.40    0.38
   1   0   2    0.34    0.22
  -2   0  -2  264.98   15.38
   2   0   2  258.21   15.79
   2   0   2  284.62   15.37
  -2   0  -2  257.41   15.21
  -2   0  -2  281.90   15.42
  -2   0  -2  267.35   15.80
   2   0   2  261.85   15.21
   2   0   2  284.64   15.41
   3   0   2   -0.09    0.56
  -3   0  -2    0.09    0.49
   3   0   2    0.31    0.38
  -3   0  -2    0.19    0.56
   3   0   2    0.16    0.55
   3   0   2   -0.23    0.30
   3   0   2    0.23    0.37
  -3   0  -2    0.25    0.74
  -3   0  -2   -0.10    0.31
  -3   0  -2    0.53    0.45
  -4   0  -2  206.70   12.16
  -4   0  -2  215.26   11.82
   4   0   2  215.89   12.22
   4   0   2  203.15   12.30
  -4   0  -2  191.22   12.01
  -4   0  -2  193.63   13.29
  -4   0  -2  210.24   12.23
   4   0   2  205.85   11.79
   4   0   2  217.79   12.05
   4   0   2  212.13   12.10
  -5   0  -2   -0.08    0.37
   5   0   2    0.13    0.87
  -5   0  -2    0.61    0.71
  -5   0  -2    0.89    1.23
   5   0   2    0.01    0.34
  -5   0  -2    0.80    0.85
   5   0   2   -0.13    0.62
   5   0   2    0.95    0.99
   5   0   2   -0.52    0.33
  -5   0  -2   -0.28    0.49
   6   0   2   22.29    1.68
   6   0   2   21.20    1.58
   6   0   2   24.21    1.80
  -6   0  -2   23.81    1.85
   6   0   2   22.44    2.17
   6   0   2   23.00    2.24
  -6   0  -2   19.67    2.20
  -6   0  -2   21.39    2.07
  -6   0  -2   24.20    1.75
  -6   0  -2   22.98    1.80
  -7   0  -2   -0.67    0.86
  -7   0  -2   -0.03    0.60
   7   0   2   -0.40    0.68
  -7   0  -2   -0.29    0.52
  -7   0  -2    0.58    1.18
   7   0   2    1.93    1.09
   7   0   2    0.43    0.56
  -7   0  -2    0.30    0.81
  -8   0  -2    8.86    1.13
  -8   0  -2   10.13    1.14
 -11   0  -2    0.85    0.33
 -12   0  -2    1.69    0.53
 -13   0  -2    0.39    0.51
 -14   0  -2    1.21    0.39
 -15   0  -2   -0.52    0.35
  15   0   2    0.12    0.38
 -16   0  -2    2.26    0.40
  16   0   2    2.77    0.36
  17   0   2   -0.11    0.32
 -17   0  -2    0.54    0.27
 -18   1   2    4.38    0.62
 -17   1   2    3.32    0.56
 -16   1   2   26.28    1.92
 -15  -1   2    6.34    0.76
 -15   1   2    7.22    0.89
  15   1  -2    6.44    0.60
 -15   1   2    5.04    0.66
 -14   1   2    0.41    0.49
  14   1  -2    0.28    0.29
 -14   1   2    0.40    0.64
  13   1  -2    9.79    0.82
 -13   1   2    8.89    0.79
 -13   1   2    8.00    2.07
  12   1  -2   12.21    0.92
 -12   1   2   12.89    1.05
 -11   1   2   14.04    1.60
 -11   1   2   16.30    1.69
 -11   1   2   16.97    1.13
  11   1  -2   14.73    1.02
 -10   1   2   41.27    3.06
 -10   1   2   46.12    3.20
  10   1  -2   42.24    2.98
 -10   1   2   41.75    2.38
  -9   1   2   36.38    2.69
   9   1  -2   37.75    2.73
  -9   1   2   41.42    2.82
   9   1  -2   36.45    2.59
  -8  -1   2   63.82    5.03
   8   1  -2   64.58    5.03
   8   1  -2   71.58    4.58
  -8   1   2   65.35    4.97
  -8   1   2   81.90    5.12
   8   1  -2   81.37    4.68
  -8   1   2   76.47    4.59
  -8   1   2   74.26    4.63
   7  -1  -2   22.23    2.54
  -7  -1   2   26.37    2.51
  -7  -1   2   26.28    2.47
  -7   1   2   23.20    2.42
  -7   1   2   27.54    2.00
  -7   1   2   28.81    2.12
   7   1  -2   27.04    1.95
   7   1  -2   26.42    1.98
   7   1  -2   31.58    1.96
  -7   1   2   33.34    2.28
  -7   1   2   25.29    2.29
   7   1  -2   27.33    2.31
   7   1  -2   25.42    2.59
   6  -1  -2   29.49    2.52
   6  -1  -2   28.49    2.75
   6  -1  -2   28.33    2.07
  -6  -1   2   29.98    2.06
  -6  -1   2   30.65    2.43
  -6  -1   2   30.80    2.38
  -6  -1   2   30.19    2.21
   6  -1  -2   26.20    2.09
   6   1  -2   34.60    2.10
  -6   1   2   30.31    2.37
  -6   1   2   31.87    2.11
  -6   1   2   30.17    2.19
   6   1  -2   27.61    2.51
   6   1  -2   34.31    2.07
   6   1  -2   30.47    2.14
  -6   1   2   34.96    2.40
  -6   1   2   28.02    2.52
   6   1  -2   27.36    2.46
   5  -1  -2   65.07    4.26
  -5  -1   2   66.10    4.03
   5  -1  -2   64.97    4.39
   5  -1  -2   55.17    3.92
   5  -1  -2   65.13    4.01
  -5  -1   2   62.82    4.31
  -5  -1   2   61.61    3.99
  -5  -1   2   67.60    4.19
   5   1  -2   61.61    4.22
  -5   1   2   65.08    3.99
  -5   1   2   64.97    4.28
   5   1  -2   68.59    3.97
   5   1  -2   72.48    4.09
  -5   1   2   69.39    4.02
   5   1  -2   61.67    4.24
   5   1  -2   68.24    4.02
  -5   1   2   71.17    4.49
  -5   1   2   64.88    4.17
   4  -1  -2  135.75    8.03
  -4  -1   2  128.12    7.76
  -4  -1   2  135.57    7.96
  -4  -1   2  124.54    8.00
   4  -1  -2  125.64    7.98
   4  -1  -2  132.45    7.96
  -4  -1   2  144.87    8.05
   4  -1  -2  116.99    7.71
  -4   1   2  148.03    8.79
  -4   1   2  134.73    7.99
  -4   1   2  136.17    7.92
  -4   1   2  138.02    7.76
   4   1  -2  139.06    7.98
   4   1  -2  147.37    8.11
   4   1  -2  137.49    8.00
   4   1  -2  140.25    7.74
   4   1  -2  131.80    8.02
  -4   1   2  131.69    7.98
   3  -1  -2   52.58    3.29
  -3  -1   2   43.98    3.07
  -3  -1   2   54.71    3.21
  -3  -1   2   47.54    3.04
   3  -1  -2   52.86    3.24
   3  -1  -2   46.56    3.05
  -3  -1   2   52.13    3.29
   3   1  -2   47.79    3.22
   3   1  -2   51.51    3.01
  -3   1   2   51.98    3.04
   3   1  -2   55.12    3.31
  -3   1   2   45.19    3.34
  -3   1   2   53.10    3.07
  -3   1   2   49.12    3.25
   3   1  -2   52.28    3.15
   3   1  -2   47.80    3.07
  -3   1   2   54.89    3.46
  -2  -1   2   75.91    4.68
   2  -1  -2   73.27    4.62
   2  -1  -2   87.53    4.67
  -2  -1   2   75.12    4.63
  -2  -1   2   83.27    4.63
   2  -1  -2   79.79    4.63
  -2   1   2   80.75    4.62
  -2   1   2   69.23    4.61
  -2   1   2   77.46    4.89
  -2   1   2   77.38    4.50
   2   1  -2   81.97    4.74
   2   1  -2   73.38    4.91
  -2   1   2   80.49    4.66
   2   1  -2   74.89    4.63
  -2   1   2   86.17    5.15
   2   1  -2   77.10    4.48
   2   1  -2   78.99    4.63
  -2   1   2   70.73    4.47
  -2   1   2   81.26    4.60
  -1  -1   2   39.46    2.42
  -1  -1   2   41.09    2.45
   1  -1  -2   39.17    2.45
  -1  -1   2   32.87    2.34
   1  -1  -2   42.11    2.41
   1   1  -2   38.97    2.29
  -1   1   2   38.60    2.27
  -1   1   2   38.59    2.58
   1   1  -2   37.45    2.35
  -1   1   2   36.17    2.34
  -1   1   2   41.63    2.42
   1   1  -2   36.06    2.33
   1   1  -2   40.97    2.41
   1   1  -2   39.09    2.35
   1   1  -2   36.44    2.55
  -1   1   2   40.62    2.39
  -1   1   2   41.30    2.35
   1   1  -2   39.11    2.46
  -1   1   2   41.08    2.31
   0  -1   2   90.78    5.16
   0  -1   2   92.66    5.13
   0  -1  -2   91.64    5.15
   0  -1  -2   92.67    5.16
   0   1   2   83.96    5.21
   0   1   2   89.53    5.15
   0   1  -2   84.26    5.52
   0   1  -2   87.82    5.21
   0   1   2   86.13    5.32
   0   1   2   90.46    5.21
   0   1  -2   84.96    5.04
   0   1   2   86.68    5.04
   0   1  -2   89.71    5.14
   0   1   2   89.45    5.49
   0   1   2   87.36    5.12
   0   1  -2   92.46    5.15
   0   1   2   81.81    5.02
   0   1  -2   89.00    5.02
   0   1  -2   88.27    5.21
   1  -1   2   54.61    3.09
  -1  -1  -2   55.74    3.15
  -1  -1  -2   45.83    3.02
   1  -1   2   47.85    3.01
  -1  -1  -2   54.50    3.13
   1  -1   2   49.34    3.06
   1   1   2   51.09    3.04
   1   1   2   54.09    3.08
  -1   1  -2   53.58    3.11
  -1   1  -2   52.16    3.02
  -1   1  -2   47.71    3.41
  -1   1  -2   51.65    3.23
   1   1   2   45.14    2.92
   1   1   2   49.26    2.94
   1   1   2   52.10    3.25
  -1   1  -2   44.71    3.00
   1   1   2   52.28    3.02
  -1   1  -2   47.51    2.93
  -1   1  -2   50.41    2.93
  -1   1  -2   52.62    3.09
   1   1   2   47.54    3.09
  -2  -1  -2    5.69    0.90
  -2  -1  -2    6.99    1.07
   2  -1   2    5.67    0.82
  -2  -1  -2    5.43    0.58
   2  -1   2    5.81    0.75
   2  -1   2    5.60    0.57
  -2  -1  -2    6.03    0.69
   2   1   2    4.94    0.84
   2   1   2    5.97    0.83
   2   1   2    5.64    0.59
  -2   1  -2    5.63    0.67
   2   1   2    4.97    0.70
  -2   1  -2    4.50    0.83
  -2   1  -2    5.62    0.95
   2   1   2    6.19    0.64
  -2   1  -2    5.00    0.57
   2   1   2    5.27    0.58
   3  -1   2   45.00    2.87
   3  -1   2   51.60    3.09
  -3  -1  -2   51.08    3.18
  -3  -1  -2   46.45    2.92
   3  -1   2   44.73    2.90
  -3  -1  -2   43.14    2.93
   3  -1   2   48.40    3.03
  -3  -1  -2   49.33    3.37
   3   1   2   51.20    2.90
   3   1   2   50.09    3.14
  -3   1  -2   44.20    3.33
   3   1   2   47.75    2.93
  -3   1  -2   47.29    3.27
  -3   1  -2   39.83    2.87
  -3   1  -2   49.13    2.91
   3   1   2   48.88    3.04
  -3   1  -2   46.22    3.02
   3   1   2   50.06    3.16
  -3   1  -2   50.77    2.92
   4  -1   2   66.42    4.25
   4  -1   2   68.32    4.14
  -4  -1  -2   56.93    4.25
   4  -1   2   61.38    3.99
  -4  -1  -2   71.83    4.26
  -4  -1  -2   60.91    3.95
  -4  -1  -2   68.65    4.48
  -4  -1  -2   59.96    4.01
   4  -1   2   60.15    3.87
   4   1   2   67.92    4.22
   4   1   2   66.36    4.01
  -4   1  -2   69.31    4.03
   4   1   2   66.48    3.93
   4   1   2   68.68    4.24
  -4   1  -2   65.00    4.47
  -4   1  -2   64.49    4.15
   4   1   2   68.38    4.09
  -4   1  -2   68.02    4.28
  -4   1  -2   72.35    3.91
   5  -1   2    8.81    1.33
   5  -1   2    8.26    0.67
  -5  -1  -2    9.79    1.35
   5  -1   2    9.05    0.97
   5  -1   2    8.74    0.88
  -5  -1  -2    9.00    0.83
  -5  -1  -2    8.55    0.92
   5  -1   2   10.81    1.32
   5   1   2   10.17    0.99
   5   1   2    8.45    0.99
   5   1   2    8.82    1.24
  -5   1  -2   11.23    1.05
  -5   1  -2   10.53    1.16
   5   1   2    7.38    1.24
   5   1   2    9.32    0.92
  -5   1  -2   10.64    1.25
  -6  -1  -2   18.84    1.59
   6  -1   2   19.80    2.02
  -6  -1  -2   19.32    1.97
   6  -1   2   19.82    1.85
  -6  -1  -2   19.55    1.57
  -6  -1  -2   19.80    2.01
  -6   1  -2   21.17    1.98
  -6   1  -2   20.49    1.61
  -6   1  -2   22.19    1.58
   6   1   2   19.96    1.53
   6   1   2   20.14    1.56
   6   1   2   19.96    1.84
   6   1   2   20.42    1.56
  -6   1  -2   19.18    1.90
   6   1   2   17.49    1.89
  -6   1  -2   19.57    1.84
  -7  -1  -2    3.75    1.28
   7   1   2    4.82    0.88
   7   1   2    4.32    1.26
  -7   1  -2    3.71    0.77
  -7   1  -2    5.16    0.96
  -7   1  -2    4.67    1.39
  -7   1  -2    5.38    0.98
   7   1   2    4.11    0.68
   7   1   2    4.86    0.67
  -8   1  -2   22.41    2.02
   8   1   2   23.44    1.77
   8   1   2   20.16    1.62
   8   1   2   20.78    1.86
  -8   1  -2   19.32    1.77
  -8   1  -2   20.22    1.96
  -9   1  -2    7.71    1.09
   9   1   2    7.42    1.14
   9   1   2    7.84    1.05
  -9   1  -2    6.65    1.29
  -9   1  -2    7.22    1.27
 -10   1  -2    2.33    0.45
 -10   1  -2    1.53    0.83
  10   1   2    1.80    0.35
 -10   1  -2    3.00    0.91
 -11   1  -2   16.98    1.15
  11   1   2   14.91    1.00
 -12   1  -2    5.57    0.72
 -12   1  -2    6.58    0.68
  12   1   2    6.71    0.58
 -13   1  -2    0.28    0.34
  13   1   2    0.01    0.38
 -14   1  -2   10.75    0.99
  14   1   2   10.68    0.89
 -14   1  -2    9.37    0.95
 -15  -1  -2    1.17    0.53
  15   1   2    0.40    0.38
 -15   1  -2    1.46    0.49
 -15   1  -2    1.34    0.68
 -16  -1  -2   -0.08    0.49
  16   1   2   -0.49    0.33
 -16   1  -2   -0.43    0.36
 -16   1  -2    0.17    0.44
 -17  -1  -2    0.39    0.30
 -17   1  -2    0.12    0.42
  17   1   2    0.03    0.20
 -17   1  -2    0.32    0.18
 -17   1  -2    0.40    0.37
 -18   2   2   -0.07    0.40
  18   2  -2   -0.15    0.31
  17   2  -2    1.59    0.46
 -17   2   2    1.75    0.58
 -16   2   2   13.35    1.33
 -16   2   2   15.32    1.55
  16   2  -2   16.40    1.24
  15   2  -2    1.15    0.52
  15   2  -2    0.58    0.37
 -15   2   2    0.23    0.67
 -14   2   2    3.71    0.51
  14   2  -2    2.86    0.61
  14   2  -2    3.42    0.47
 -14   2   2    4.49    0.77
  13   2  -2    2.86    1.52
  13   2  -2    5.11    0.50
 -13   2   2    4.10    0.54
 -13   2   2    3.62    1.90
 -13   2   2    4.85    0.75
  13   2  -2    3.91    0.63
  12   2  -2    1.15    1.44
  12   2  -2    3.36    0.42
 -12   2   2    4.04    0.66
 -12   2   2    2.76    0.38
 -12   2   2    2.40    0.98
  12   2  -2    2.07    0.54
 -12   2   2    7.78    2.02
 -12   2   2    3.30    1.31
 -11   2   2    6.71    1.81
 -11   2   2    5.11    0.67
 -11   2   2    6.14    0.63
  11   2  -2    5.69    0.51
 -11   2   2    6.04    1.10
  11   2  -2    6.58    1.52
  11   2  -2    4.60    0.98
  11   2  -2    6.69    1.02
 -11   2   2    6.51    1.11
  11   2  -2    5.09    0.56
 -11   2   2    6.27    0.56
 -10   2   2    4.43    0.61
  10   2  -2    3.69    0.46
 -10   2   2    5.94    1.34
  10   2  -2    5.23    0.89
  10   2  -2    4.10    0.38
  10   2  -2    4.33    0.89
 -10   2   2    5.10    1.13
 -10   2   2    5.12    0.48
 -10   2   2    4.75    0.58
 -10   2   2    4.59    0.96
  -9   2   2   24.79    1.98
  -9   2   2   26.24    2.62
  -9   2   2   26.01    2.32
   9   2  -2   23.28    2.06
  -9   2   2   22.03    1.38
  -9   2   2   25.38    2.14
   9   2  -2   25.99    1.93
   8   2  -2   79.38    5.12
  -8   2   2   89.04    5.85
  -8   2   2   82.42    5.80
  -8   2   2   82.28    5.17
   8   2  -2   85.83    5.23
   8   2  -2   83.79    5.27
  -8   2   2   82.14    5.23
   7   2  -2    6.97    0.79
  -7   2   2    7.30    0.99
   7   2  -2    8.48    0.90
   7   2  -2    8.61    1.03
  -7   2   2    9.13    1.24
  -7   2   2    7.20    0.89
  -7   2   2    6.75    1.13
  -6  -2   2  210.68   13.21
  -6   2   2  243.10   12.90
  -6   2   2  233.18   14.09
  -6   2   2  203.99   13.11
   6   2  -2  242.59   14.11
   6   2  -2  233.93   13.50
   6   2  -2  200.82   13.17
  -6   2   2  231.39   14.63
   6   2  -2  230.05   12.87
   6   2  -2  232.48   13.32
  -6   2   2  207.29   13.20
   6   2  -2  203.92   13.30
  -6   2   2  236.60   13.32
  -5  -2   2   13.68    1.40
   5  -2  -2   11.31    1.37
  -5  -2   2   11.49    1.27
   5  -2  -2   10.76    1.48
  -5   2   2   13.41    1.07
   5   2  -2   12.68    1.43
   5   2  -2   13.92    1.37
  -5   2   2    9.89    1.02
   5   2  -2   15.20    1.25
  -5   2   2   13.21    1.21
  -5   2   2   14.86    1.48
  -5   2   2   14.23    1.47
   5   2  -2   14.09    1.26
  -5   2   2   13.48    1.30
   5   2  -2   13.69    1.10
  -5   2   2   10.71    1.02
  -5   2   2   13.14    1.38
  -4  -2   2    1.34    0.74
   4  -2  -2    0.07    0.68
  -4  -2   2    1.02    0.83
   4   2  -2    0.51    0.75
  -4   2   2    0.20    0.37
  -4   2   2   -0.07    0.35
   4   2  -2    0.48    0.32
  -4   2   2    0.34    0.31
   4   2  -2   -0.18    0.39
  -4   2   2   -0.15    0.19
   4   2  -2    0.27    0.52
  -4   2   2    0.30    0.81
  -4   2   2   -0.34    0.51
   4   2  -2    0.56    0.39
  -4   2   2    0.24    0.72
   4   2  -2   -0.23    0.76
   4   2  -2    0.15    0.22
   4   2  -2    0.20    0.72
  -4   2   2    0.13    0.75
  -4   2   2    0.45    0.52
   4   2  -2   -0.64    0.40
   3  -2  -2   50.92    3.09
  -3  -2   2   50.08    3.06
  -3  -2   2   48.04    3.13
   3  -2  -2   47.75    3.03
   3   2  -2   51.60    3.04
  -3   2   2   52.70    3.31
   3   2  -2   49.66    2.89
  -3   2   2   44.08    2.81
  -3   2   2   50.18    2.90
   3   2  -2   46.65    3.10
  -3   2   2   46.48    3.05
   3   2  -2   42.39    3.13
  -3   2   2   50.57    2.90
   3   2  -2   49.54    2.92
   3   2  -2   43.53    2.85
   3   2  -2   48.44    3.26
  -3   2   2   50.20    2.97
  -3   2   2   45.06    2.88
  -3   2   2   49.41    3.39
  -3   2   2   44.45    2.91
   3   2  -2   47.35    2.91
   3   2  -2   45.65    3.07
   2  -2  -2   16.77    1.38
  -2  -2   2   19.87    1.46
  -2  -2   2   18.41    1.34
   2  -2  -2   19.19    1.44
   2   2  -2   17.64    1.37
   2   2  -2   17.86    1.40
   2   2  -2   16.42    1.14
  -2   2   2   19.01    1.30
   2   2  -2   17.08    1.40
  -2   2   2   17.97    1.39
  -2   2   2   16.34    1.59
  -2   2   2   17.63    1.16
  -2   2   2   16.62    1.26
  -2   2   2   17.18    1.15
   2   2  -2   15.88    1.40
   2   2  -2   17.59    1.17
  -2   2   2   17.56    1.45
  -2   2   2   16.74    1.13
   2   2  -2   15.84    1.19
   2   2  -2   17.94    1.16
  -2   2   2   16.72    1.20
   2   2  -2   18.74    1.42
   1  -2  -2  138.48    7.83
   1  -2  -2  140.34    7.84
  -1  -2   2  145.40    7.85
  -1  -2   2  143.24    7.87
   1   2  -2  133.41    7.74
   1   2  -2  136.81    8.02
   1   2  -2  134.27    8.54
  -1   2   2  137.46    7.83
   1   2  -2  138.86    7.86
   1   2  -2  138.22    7.72
  -1   2   2  130.03    8.42
  -1   2   2  130.65    7.80
   1   2  -2  136.22    7.82
  -1   2   2  151.73    8.88
  -1   2   2  138.69    8.01
   1   2  -2  119.96    8.82
   1   2  -2  143.68    8.22
  -1   2   2  134.67    8.20
   1   2  -2  139.55    8.02
  -1   2   2  134.31    8.52
  -1   2   2  138.41    7.73
  -1   2   2  132.96    8.01
  -1   2   2  130.08    7.71
   0  -2   2   22.08    1.46
   0  -2   2   22.01    1.50
   0  -2  -2   22.87    1.53
   0  -2  -2   21.91    1.51
   0   2   2   21.32    1.36
   0   2   2   20.83    1.44
   0   2  -2   21.67    1.49
   0   2  -2   21.15    1.36
   0   2   2   21.84    1.48
   0   2   2   18.20    1.48
   0   2  -2   21.61    1.35
   0   2   2   20.20    1.62
   0   2   2   20.14    1.33
   0   2  -2   21.38    1.70
   0   2  -2   22.72    1.35
   0   2   2   22.88    1.36
   0   2  -2   20.90    1.46
   0   2  -2   21.23    1.37
   0   2  -2   22.89    1.47
   0   2  -2   21.56    1.53
   0   2   2   22.14    1.38
   0   2   2   24.20    1.69
   0   2   2   21.54    1.74
   0   2  -2   21.79    1.79
   1  -2   2    1.30    0.52
  -1  -2  -2    0.95    0.55
  -1  -2  -2    0.73    0.58
   1  -2   2    0.87    0.42
  -1   2  -2    1.30    0.50
   1   2   2    1.19    0.41
   1   2   2    1.32    0.63
   1   2   2    0.97    0.29
  -1   2  -2    0.80    0.64
   1   2   2    0.85    0.33
   1   2   2    0.58    0.37
  -1   2  -2    1.11    0.25
   1   2   2    1.38    0.72
  -1   2  -2    1.89    0.49
  -1   2  -2    0.97    0.57
  -1   2  -2    0.58    0.76
   1   2   2    1.77    0.48
  -1   2  -2    1.38    0.40
  -1   2  -2    0.89    0.24
  -1   2  -2    1.38    0.40
   1   2   2    0.72    0.31
   1   2   2    0.35    0.46
  -2  -2  -2    0.53    0.92
  -2  -2  -2   -0.97    0.63
   2  -2   2    0.56    0.50
   2  -2   2    1.51    0.57
   2   2   2    0.81    0.37
  -2   2  -2    0.45    0.26
   2   2   2    0.21    0.63
  -2   2  -2    0.27    0.58
   2   2   2   -0.21    0.56
  -2   2  -2    0.44    0.56
  -2   2  -2    0.54    0.59
  -2   2  -2    0.70    0.50
   2   2   2    0.08    0.37
  -2   2  -2    0.64    0.32
  -2   2  -2    0.20    0.78
   2   2   2   -0.02    0.33
   2   2   2    0.71    0.49
   2   2   2   -0.13    0.66
   2   2   2    0.16    0.45
   2   2   2    0.78    0.53
  -2   2  -2    0.28    0.66
  -2   2  -2    0.44    0.37
   3  -2   2    2.52    0.71
   3  -2   2    1.89    0.72
  -3  -2  -2    3.66    1.01
  -3  -2  -2    1.42    0.82
  -3   2  -2    2.43    0.54
  -3   2  -2    2.15    0.43
  -3   2  -2    3.07    0.47
  -3   2  -2    2.55    0.56
  -3   2  -2    3.11    0.96
   3   2   2    2.46    0.48
   3   2   2    2.08    0.70
   3   2   2    1.64    0.54
  -3   2  -2    2.21    0.68
   3   2   2    2.65    0.55
   3   2   2    2.42    0.42
  -3   2  -2    2.97    0.72
   3   2   2    1.86    0.72
   3   2   2    3.82    0.76
  -3   2  -2    2.07    0.86
   4  -2   2   -0.53    0.71
   4  -2   2    0.12    0.68
  -4  -2  -2    0.07    0.79
  -4   2  -2   -0.71    0.59
  -4   2  -2    0.34    0.44
   4   2   2   -0.01    0.54
   4   2   2    0.29    0.74
   4   2   2   -0.05    0.44
   4   2   2   -0.92    0.61
  -4   2  -2   -0.02    0.40
   4   2   2   -0.45    0.37
  -4   2  -2    0.72    0.87
   4   2   2   -1.30    0.57
  -5  -2  -2    4.19    1.12
  -5  -2  -2    3.25    0.83
   5  -2   2    2.39    0.97
   5  -2   2    2.67    0.91
   5   2   2    3.15    0.94
   5   2   2    4.29    0.65
  -5   2  -2    4.23    0.66
   5   2   2    2.41    0.79
  -5   2  -2    3.81    0.87
  -5   2  -2    6.06    1.12
   5   2   2    4.19    0.65
  -5   2  -2    4.84    0.75
   5   2   2    3.34    0.72
  -5   2  -2    3.93    1.01
  -6   2  -2    4.66    1.11
   6   2   2    5.32    0.84
   6   2   2    5.65    0.86
   6   2   2    2.28    1.08
   6   2   2    5.16    0.74
  -6   2  -2    4.56    0.74
  -6   2  -2    5.14    0.88
  -7   2  -2   35.37    2.49
   7   2   2   36.73    2.53
   7   2   2   35.30    2.47
  -7   2  -2   37.73    2.58
   7   2   2   33.11    2.46
  -7   2  -2   35.67    2.96
   8   2   2    5.54    0.87
  -8   2  -2    4.23    0.85
   8   2   2    5.31    0.88
  -8   2  -2    5.91    1.25
  -8   2  -2    4.18    1.06
   8   2   2    5.51    1.00
  -9   2  -2   44.61    2.53
  -9   2  -2   52.35    3.38
  -9   2  -2   49.39    3.25
   9   2   2   44.85    3.15
  -9   2  -2   42.20    2.61
   9   2   2   41.11    2.77
   9   2   2   44.37    2.51
  -9   2  -2   45.12    3.64
   9   2   2   45.07    3.19
  -9   2  -2   46.84    2.83
   9   2   2   50.77    3.21
 -10   2  -2   16.69    1.68
 -10   2  -2   14.80    1.92
  10   2   2   15.54    1.64
  10   2   2   16.73    1.05
 -10   2  -2   17.73    1.11
  10   2   2   17.43    1.76
 -10   2  -2   15.53    1.23
 -10   2  -2   16.01    1.21
 -10   2  -2   17.46    1.54
 -10   2  -2   17.92    1.92
  10   2   2   15.78    1.23
 -11   2  -2    6.98    1.31
  11   2   2   10.68    1.03
 -11   2  -2   11.86    1.30
  11   2   2   10.05    0.98
  11   2   2    8.91    1.53
 -11   2  -2    9.64    0.93
  11   2   2   10.70    1.40
 -11   2  -2   12.39    1.83
 -11   2  -2   11.66    0.89
  11   2   2   10.85    0.81
 -11   2  -2    9.51    1.41
  12   2   2   17.51    1.11
 -12   2  -2   10.03    2.34
  12   2   2   15.47    1.36
 -12   2  -2   15.57    2.05
  12   2   2   15.93    1.31
 -12   2  -2   17.30    1.08
 -12   2  -2   18.16    1.29
 -12   2  -2   16.95    1.59
 -13   2  -2    5.95    0.61
 -13   2  -2    6.74    0.85
  13   2   2    7.07    0.59
 -13   2  -2    7.48    0.92
  13   2   2    5.85    0.73
 -14   2  -2    6.56    0.79
 -14   2  -2    5.71    0.57
  14   2   2    5.93    0.55
 -14   2  -2    7.79    0.88
  14   2   2    5.77    0.63
  15   2   2    0.47    0.24
  15   2   2   -0.01    0.49
 -15   2  -2    0.02    0.29
 -15   2  -2    0.42    0.63
  16   2   2    2.10    0.32
 -16   2  -2    2.64    0.57
 -16   2  -2    2.81    0.49
  16   2   2    2.27    0.41
 -17  -2  -2    0.30    0.28
  17   2   2    0.96    0.29
 -17   2  -2    0.45    0.31
  17   2   2    0.74    0.13
  17   2   2    0.74    0.38
 -17   2  -2    1.01    0.41
 -17   3   2   12.93    1.20
  17   3  -2   15.30    1.09
  16   3  -2   -0.25    0.42
 -16   3   2    0.21    0.57
  15   3  -2    0.92    0.53
  15   3  -2    1.32    0.47
 -15   3   2    0.57    0.60
 -15   3   2   -0.08    0.42
 -15   3   2    0.65    0.63
 -14   3   2    1.19    0.45
  14   3  -2    0.95    0.38
 -14   3   2    0.77    0.60
 -14   3   2    1.06    0.91
  13   3  -2   10.55    1.03
  13   3  -2   11.53    0.78
 -13   3   2    9.74    0.95
 -13   3   2   10.52    1.28
 -13   3   2    9.86    0.96
 -12   3   2   62.16    3.79
 -12   3   2   49.90    2.86
  12   3  -2   54.67    4.42
 -12   3   2   48.39    3.05
  12   3  -2   53.04    3.22
 -12   3   2   49.22    3.67
  12   3  -2   48.82    3.78
 -12   3   2   60.75    4.75
 -12   3   2   54.28    3.25
  12   3  -2   47.16    2.99
  12   3  -2   53.39    2.87
 -11   3   2    6.01    0.80
  11   3  -2    4.85    0.51
 -11   3   2    3.87    0.99
 -11   3   2    5.00    1.29
 -11   3   2    5.35    0.57
 -11   3   2    5.40    0.45
  11   3  -2    5.01    0.62
 -11   3   2    6.07    1.89
  11   3  -2    5.48    0.98
  11   3  -2    4.05    1.15
  11   3  -2    6.57    1.69
 -11   3   2    5.80    0.68
  11   3  -2    4.80    0.46
 -10   3   2   16.52    1.23
 -10   3   2   17.49    1.53
  10   3  -2   16.82    1.05
 -10   3   2   16.30    1.30
 -10   3   2   16.53    1.77
  10   3  -2   18.29    1.26
 -10   3   2   16.76    1.53
  10   3  -2   14.89    1.67
  10   3  -2   17.25    1.67
  10   3  -2   19.84    2.25
 -10   3   2   15.61    2.00
 -10   3   2   18.67    2.44
  10   3  -2   16.88    1.17
 -10   3   2   17.92    1.05
  -9   3   2   35.49    3.21
   9   3  -2   26.68    2.21
  -9   3   2   33.14    1.78
  -9   3   2   32.36    2.40
   9   3  -2   32.09    1.99
   9   3  -2   36.08    2.50
  -9   3   2   34.34    2.76
   9   3  -2   30.77    1.87
  -9   3   2   32.39    1.92
  -9   3   2   31.87    2.04
  -9   3   2   33.70    2.54
  -9   3   2   28.16    2.38
   9   3  -2   38.57    2.54
   9   3  -2   37.04    3.01
   9   3  -2   33.87    2.37
   9   3  -2   30.98    1.78
  -8   3   2   75.71    4.22
   8   3  -2   79.36    5.07
  -8   3   2   79.23    4.94
  -8   3   2   71.04    4.31
  -8   3   2   83.89    4.92
  -8   3   2   84.14    5.67
   8   3  -2   73.03    4.22
   8   3  -2   81.55    4.91
   8   3  -2   88.25    5.54
   8   3  -2   85.20    4.89
  -8   3   2   75.76    4.64
  -8   3   2   87.79    5.66
   8   3  -2   74.63    4.63
   7   3  -2    0.23    0.68
   7   3  -2    0.79    0.67
  -7   3   2    0.58    0.95
   7   3  -2    0.02    0.50
   7   3  -2    0.61    0.66
  -7   3   2    0.01    0.78
  -7   3   2    1.02    1.07
  -7   3   2   -0.45    0.50
   6   3  -2    3.59    1.03
  -6   3   2    5.13    1.18
   6   3  -2    3.43    0.77
   6   3  -2    3.63    0.60
  -6   3   2    3.24    1.02
  -6   3   2    3.94    0.60
   6   3  -2    4.32    0.72
  -6   3   2    2.49    0.79
  -5   3   2    1.18    0.62
   5   3  -2    0.04    0.47
  -5   3   2    0.08    0.86
  -5   3   2    0.27    0.38
  -5   3   2   -0.08    0.41
   5   3  -2    0.33    0.52
  -5   3   2   -0.61    0.90
   5   3  -2   -0.24    0.86
   5   3  -2   -0.61    0.58
   4  -3  -2    2.36    0.68
  -4  -3   2    1.38    0.77
  -4   3   2    3.03    0.56
   4   3  -2    2.71    0.43
  -4   3   2    2.89    0.45
  -4   3   2    3.02    0.77
   4   3  -2    2.64    0.55
  -4   3   2    3.00    0.39
  -4   3   2    2.87    0.91
  -4   3   2    2.11    0.32
  -4   3   2    3.20    0.63
   4   3  -2    3.11    0.76
   4   3  -2    1.45    0.69
   4   3  -2    3.84    0.55
  -4   3   2    2.52    0.97
   4   3  -2    2.19    0.45
   4   3  -2    2.98    0.40
   4   3  -2    3.75    0.92
  -4   3   2    1.90    0.42
   3  -3  -2   67.14    3.94
   3  -3  -2   63.31    3.99
  -3  -3   2   63.99    4.01
  -3  -3   2   60.85    4.06
  -3   3   2   62.46    3.97
   3   3  -2   67.23    3.95
  -3   3   2   65.52    3.92
   3   3  -2   70.73    3.83
   3   3  -2   70.68    3.95
  -3   3   2   73.69    3.84
  -3   3   2   64.68    3.92
  -3   3   2   70.10    3.93
   3   3  -2   61.66    3.83
   3   3  -2   68.34    4.19
  -3   3   2   65.96    3.79
  -3   3   2   70.02    4.60
   3   3  -2   61.42    4.07
   3   3  -2   65.03    4.41
   3   3  -2   61.24    4.32
   3   3  -2   63.45    4.01
  -3   3   2   60.21    4.03
  -3   3   2   65.40    4.44
   2  -3  -2   70.01    4.22
   2  -3  -2   69.65    4.20
  -2  -3   2   72.29    4.28
  -2  -3   2   67.24    4.31
  -2   3   2   70.87    4.12
  -2   3   2   74.96    4.13
   2   3  -2   74.74    4.79
  -2   3   2   69.27    4.21
  -2   3   2   76.95    4.97
   2   3  -2   73.96    4.30
   2   3  -2   78.36    4.17
  -2   3   2   74.70    4.28
  -2   3   2   68.89    4.73
  -2   3   2   70.54    4.48
   2   3  -2   78.51    4.57
  -2   3   2   69.59    4.19
   2   3  -2   70.35    4.83
  -2   3   2   75.86    4.27
   2   3  -2   70.75    4.29
  -1  -3   2   11.76    0.86
  -1  -3   2   11.45    0.88
  -1   3   2   12.31    1.18
   1   3  -2   12.63    1.24
  -1   3   2   12.66    1.30
  -1   3   2   10.80    1.00
   1   3  -2   12.28    1.18
   1   3  -2   12.01    0.78
  -1   3   2   13.02    1.33
   1   3  -2   11.77    0.91
   1   3  -2   12.97    1.26
   1   3  -2   12.18    1.03
   1   3  -2   11.88    0.79
   0  -3   2    9.18    0.63
   0  -3  -2    9.10    0.67
   0  -3   2    9.37    0.63
   0   3   2   10.09    0.61
   0   3   2    9.95    0.61
   0   3   2   10.25    0.67
   0   3  -2    9.12    0.96
   0   3  -2   10.80    1.17
   0   3   2    9.88    1.01
   0   3  -2    9.03    0.60
   0   3  -2    9.81    1.01
   0   3  -2    9.61    0.61
   0   3   2    8.72    0.89
   0   3   2   10.28    1.16
   0   3  -2    9.93    0.62
   0   3  -2   11.34    1.12
   0   3  -2    9.86    0.68
   0   3   2   10.29    0.62
   0   3   2    9.87    0.67
   0   3  -2    9.35    0.62
   0   3  -2    9.17    0.70
   0   3   2   10.32    0.61
   0   3   2   11.23    1.13
   1  -3   2   12.59    0.89
   1  -3   2   12.86    0.90
  -1  -3  -2   14.93    1.07
   1   3   2   13.31    0.88
  -1   3  -2   11.76    0.97
   1   3   2   13.96    0.88
  -1   3  -2   13.00    0.83
   1   3   2   13.13    0.89
   1   3   2   13.60    0.88
   1   3   2   12.50    0.97
   1   3   2   13.02    0.98
  -1   3  -2   12.95    0.86
  -1   3  -2   14.45    1.45
  -1   3  -2   12.03    1.16
   1   3   2   12.42    1.23
   1   3   2   12.90    1.10
   1   3   2   12.89    1.20
  -1   3  -2   13.58    1.29
   2  -3   2   63.23    3.86
  -2  -3  -2   60.87    3.98
  -2  -3  -2   63.93    4.02
   2  -3   2   63.52    3.85
  -2   3  -2   69.03    3.87
  -2   3  -2   63.81    3.88
  -2   3  -2   61.36    3.86
   2   3   2   63.08    3.95
   2   3   2   68.19    3.79
   2   3   2   60.52    4.23
   2   3   2   63.08    3.78
   2   3   2   61.72    3.93
   2   3   2   68.43    4.29
  -2   3  -2   70.96    4.33
  -2   3  -2   72.02    4.62
  -2   3  -2   58.65    4.17
  -2   3  -2   72.69    3.76
   2   3   2   68.49    3.91
  -2   3  -2   60.60    3.88
   2   3   2   66.50    3.90
   2   3   2   67.41    4.22
  -2   3  -2   62.28    3.76
   3  -3   2    0.62    0.57
  -3  -3  -2   -0.06    0.63
   3  -3   2   -0.21    0.51
  -3  -3  -2   -1.21    0.68
  -3   3  -2    0.36    0.38
  -3   3  -2   -0.39    0.39
   3   3   2    0.30    0.55
  -3   3  -2   -0.16    0.53
   3   3   2   -0.38    0.37
  -3   3  -2   -0.18    0.58
   3   3   2    0.19    0.57
  -3   3  -2    0.09    0.33
  -3   3  -2   -0.51    0.69
  -3   3  -2   -0.79    0.87
   3   3   2    0.51    0.56
   3   3   2   -0.01    0.23
   3   3   2    0.21    0.42
  -3   3  -2    0.39    0.27
   3   3   2    0.27    0.46
   3   3   2    0.46    0.73
   4   3   2  106.13    6.28
   4   3   2  105.52    6.55
   4   3   2  108.31    6.75
  -4   3  -2  111.49    6.28
  -4   3  -2  106.10    6.69
   4   3   2  109.43    6.08
  -4   3  -2   95.49    6.29
  -4   3  -2  112.01    6.07
  -4   3  -2   89.31    6.22
  -4   3  -2   97.98    6.05
  -4   3  -2  109.91    7.16
  -5   3  -2    9.93    1.26
   5   3   2   11.61    1.11
  -5   3  -2   11.07    1.52
  -5   3  -2    9.36    0.98
  -5   3  -2    8.89    0.96
   5   3   2   11.04    1.01
   5   3   2    9.55    1.08
   5   3   2   11.95    1.30
   6   3   2  143.61    9.41
  -6   3  -2  145.66   10.27
   6   3   2  161.87    9.84
  -6   3  -2  156.66    9.19
   6   3   2  153.01    8.90
   6   3   2  153.01    9.19
  -6   3  -2  152.22    8.93
  -6   3  -2  157.62    9.80
   7   3   2    8.19    1.35
  -7   3  -2    5.84    1.43
  -7   3  -2    7.43    1.42
  -7   3  -2    7.08    1.05
   7   3   2    6.76    1.10
  -7   3  -2    7.56    0.95
   7   3   2   10.31    1.09
   7   3   2    8.14    0.95
   8   3   2    3.23    1.19
  -8   3  -2    2.41    0.49
   8   3   2    2.86    0.35
  -8   3  -2    2.33    0.44
   8   3   2    2.19    0.40
  -8   3  -2    2.41    0.34
  -8   3  -2    3.45    1.31
   8   3   2    2.20    0.29
   8   3   2    2.06    0.83
   8   3   2    2.43    0.52
  -8   3  -2    2.20    0.75
  -8   3  -2    2.69    0.52
  -8   3  -2    3.37    0.94
   8   3   2    3.03    0.75
  -8   3  -2    3.47    1.30
   8   3   2    1.96    0.68
  -8   3  -2    3.23    0.49
   9   3   2    0.30    0.37
  -9   3  -2    1.72    0.51
   9   3   2    0.79    0.36
  -9   3  -2    1.33    0.46
  -9   3  -2    1.41    0.46
   9   3   2    0.62    0.52
   9   3   2    1.25    0.41
  -9   3  -2    1.27    0.76
   9   3   2    1.75    0.84
  -9   3  -2   -0.34    1.37
   9   3   2    1.30    0.27
  -9   3  -2    1.42    0.28
   9   3   2    1.82    1.27
  -9   3  -2   -0.80    1.12
   9   3   2   -0.14    0.83
  -9   3  -2    0.14    0.89
 -10   3  -2    0.81    0.48
  10   3   2    1.00    0.82
 -10   3  -2    0.60    0.47
  10   3   2    0.47    0.40
  10   3   2    0.36    1.33
 -10   3  -2    1.69    1.10
  10   3   2    0.85    0.78
  10   3   2    0.46    0.48
 -10   3  -2    1.02    0.38
 -10   3  -2    0.34    0.78
 -10   3  -2    0.72    0.35
  10   3   2    0.65    0.20
 -10   3  -2   -0.11    1.25
  10   3   2    0.87    0.43
 -10   3  -2   -0.53    0.92
  10   3   2    0.00    0.93
  11   3   2   13.85    1.87
 -11   3  -2   12.11    2.08
 -11   3  -2   20.29    1.77
  11   3   2   17.68    1.50
  11   3   2   18.64    1.28
 -11   3  -2   20.04    1.43
 -11   3  -2   17.93    2.53
  11   3   2   17.18    1.32
 -11   3  -2   19.51    1.38
 -11   3  -2   17.23    1.11
  11   3   2   20.37    2.27
 -11   3  -2   16.61    1.94
  11   3   2   19.47    1.12
  12   3   2   43.61    3.09
  12   3   2   46.66    2.77
 -12   3  -2   42.91    2.70
 -12   3  -2   46.65    3.26
 -12   3  -2   46.66    2.85
  12   3   2   42.73    2.47
 -12   3  -2   43.25    2.46
 -13   3  -2    7.65    0.76
  13   3   2    8.08    0.92
 -13   3  -2    7.91    0.85
  13   3   2    6.75    0.70
  13   3   2    8.75    0.64
 -13   3  -2    7.44    0.91
 -13   3  -2    8.18    0.56
 -13   3  -2    8.17    1.09
 -14   3  -2   -0.22    0.69
 -14   3  -2    0.32    0.59
  14   3   2    0.03    0.50
 -14   3  -2   -0.35    0.53
  14   3   2   -0.30    0.23
 -14   3  -2    0.30    0.40
 -15   3  -2    0.64    0.73
  15   3   2    0.17    0.33
 -15   3  -2    0.03    0.36
 -15   3  -2    0.65    0.42
  15   3   2    0.60    0.44
  15   3   2    0.11    0.18
 -16   3  -2    7.17    0.77
 -16   3  -2    7.58    0.64
 -16   3  -2    5.82    0.62
  16   3   2    5.71    0.63
  16   3   2    6.93    0.60
 -17   3  -2    7.91    0.56
 -17   4   2    0.58    0.41
  17   4  -2    0.57    0.33
  16   4  -2   13.81    1.20
 -16   4   2   12.16    1.14
 -15   4   2    0.75    0.63
 -15   4   2    0.43    0.42
  15   4  -2    0.91    0.65
 -14   4   2   12.72    1.48
  14   4  -2   13.21    1.07
 -14   4   2   15.12    1.29
 -14   4   2   15.62    1.14
  14   4  -2   16.13    1.08
  14   4  -2   18.29    1.31
  13   4  -2    5.27    0.65
 -13   4   2    4.61    0.88
 -13   4   2    5.64    0.65
  13   4  -2    5.27    0.65
 -13   4   2    5.44    1.08
  13   4  -2    5.29    0.72
 -13   4   2    4.95    0.72
  12   4  -2   -1.14    0.44
  12   4  -2    0.19    0.47
  12   4  -2    0.76    0.71
 -12   4   2    0.02    0.52
 -12   4   2   -0.65    0.47
 -12   4   2    0.54    0.54
 -12   4   2   -0.08    0.90
 -11   4   2    6.14    1.65
 -11   4   2    7.01    1.09
  11   4  -2    5.18    0.62
 -11   4   2    5.01    0.67
 -11   4   2    6.02    0.93
 -11   4   2    6.29    0.66
  11   4  -2    2.96    1.69
  11   4  -2    7.19    0.78
  11   4  -2    4.58    0.62
  11   4  -2    5.70    0.62
 -10   4   2   -0.62    0.61
  10   4  -2    1.85    1.50
 -10   4   2    3.50    1.82
 -10   4   2    0.41    0.90
  10   4  -2   -0.35    0.68
 -10   4   2    0.80    0.49
 -10   4   2   -0.53    0.44
  10   4  -2    0.21    0.33
  10   4  -2    0.21    0.47
  10   4  -2    0.18    0.29
  10   4  -2   -0.31    0.26
 -10   4   2   -0.55    0.82
  10   4  -2    0.21    0.83
 -10   4   2   -0.02    0.57
 -10   4   2   -0.49    0.39
 -10   4   2    0.07    0.53
  -9   4   2   -0.16    0.92
   9   4  -2    0.84    0.44
  -9   4   2    0.32    1.10
   9   4  -2   -0.01    0.44
  -9   4   2    0.13    0.58
   9   4  -2    0.41    0.79
   9   4  -2    0.40    0.61
   9   4  -2    0.65    0.35
  -9   4   2    0.33    0.73
  -9   4   2    0.40    0.35
   9   4  -2   -0.34    0.72
  -9   4   2    0.53    0.53
   9   4  -2   -0.18    0.25
  -9   4   2    0.11    0.61
   9   4  -2    0.20    0.16
  -9   4   2   -0.18    0.40
  -9   4   2    1.97    1.29
   9   4  -2   -0.57    1.30
   8   4  -2   28.70    2.18
  -8   4   2   28.80    2.95
   8   4  -2   31.53    1.84
  -8   4   2   32.06    2.43
  -8   4   2   32.20    1.95
  -8   4   2   33.92    2.23
  -8   4   2   36.96    3.24
  -8   4   2   32.03    2.29
  -8   4   2   29.21    2.22
   8   4  -2   34.03    2.28
   8   4  -2   33.25    2.20
   8   4  -2   28.83    1.70
  -8   4   2   31.23    1.86
   8   4  -2   31.83    2.22
   8   4  -2   32.94    2.81
  -8   4   2   33.02    2.42
   8   4  -2   32.91    2.57
   8   4  -2   32.34    1.96
  -7   4   2    1.74    0.53
   7   4  -2    1.52    0.63
  -7   4   2    1.11    0.33
  -7   4   2    1.34    0.34
  -7   4   2    1.39    0.52
  -7   4   2    1.05    1.23
   7   4  -2    1.49    0.33
   7   4  -2    1.23    0.63
   7   4  -2    1.69    0.56
   7   4  -2    1.32    0.45
   7   4  -2    1.82    0.66
  -7   4   2    1.49    0.60
  -7   4   2    0.46    1.02
   7   4  -2    1.60    0.31
  -7   4   2    1.31    0.64
   7   4  -2    3.59    1.24
  -7   4   2    2.42    0.52
   7   4  -2    1.53    0.36
  -7   4   2    1.38    0.69
   6   4  -2    3.13    0.35
   6   4  -2    4.31    0.60
  -6   4   2    2.83    0.36
   6   4  -2    4.01    1.20
  -6   4   2    4.50    1.29
   6   4  -2    3.52    0.51
   6   4  -2    2.93    0.35
  -6   4   2    4.12    0.57
  -6   4   2    4.47    1.20
   6   4  -2    4.12    0.59
  -6   4   2    2.48    0.68
   6   4  -2    2.77    0.68
  -6   4   2    3.40    0.57
   6   4  -2    3.62    0.73
  -6   4   2    2.69    0.65
   5   4  -2    9.15    0.91
  -5   4   2   11.47    1.33
   5   4  -2    9.58    0.87
  -5   4   2   10.11    0.89
  -5   4   2    9.58    0.83
  -5   4   2    8.81    0.74
   5   4  -2    8.62    1.36
  -5   4   2    9.88    0.83
   5   4  -2    8.99    1.13
  -5   4   2   10.41    1.50
   4   4  -2    6.79    0.72
   4   4  -2    8.47    1.24
  -4   4   2    9.20    0.58
   4   4  -2    8.28    0.79
  -4   4   2    7.97    0.58
  -4   4   2    8.36    0.57
  -4   4   2    8.29    0.58
  -4   4   2    9.94    1.37
  -4   4   2    7.87    1.13
   4   4  -2    8.33    0.80
   4   4  -2    7.79    0.93
   4   4  -2    8.56    0.68
  -3  -4   2    3.43    0.56
   3   4  -2    7.07    0.94
  -3   4   2    4.41    1.07
   3   4  -2    6.41    0.56
  -3   4   2    4.94    0.60
   3   4  -2    5.67    0.56
   3   4  -2    5.12    0.68
  -3   4   2    6.96    1.15
   3   4  -2    5.93    0.52
   3   4  -2    6.15    0.76
   3   4  -2    5.97    0.48
   2   4  -2   14.36    1.40
  -2   4   2   12.42    1.25
   2   4  -2   13.26    1.29
  -2   4   2   14.72    1.42
   2   4  -2   16.39    1.60
  -2   4   2   16.37    1.47
   1   4  -2    2.41    0.80
   1   4  -2    3.34    0.72
  -1   4   2    3.48    0.93
  -1   4   2    4.21    0.72
  -1   4   2    3.03    0.56
   1   4  -2    3.55    0.70
  -1   4   2    4.47    0.87
   0   4  -2   56.94    3.88
   0   4  -2   62.14    3.83
   0   4   2   63.39    4.16
   0   4  -2   63.35    4.29
   0   4   2   61.40    4.10
   0   4   2   57.90    3.85
   0   4   2   53.95    3.89
   0   4  -2   61.00    4.09
  -1   4  -2  122.88    7.96
   1   4   2  122.31    8.02
  -1   4  -2  136.74    8.56
   1   4   2  128.16    8.13
   1   4   2  126.77    7.84
  -1   4  -2  127.86    8.13
   2   4   2   32.57    2.53
  -2   4  -2   33.62    2.70
   2   4   2   32.95    1.92
   2   4   2   33.62    2.46
   2   4   2   35.66    2.00
  -2   4  -2   34.45    2.56
  -2   4  -2   30.14    2.34
   2   4   2   28.82    1.98
   2   4   2   36.39    2.00
   2   4   2   35.35    2.51
   2   4   2   34.41    1.93
   3   4   2   24.67    2.02
   3   4   2   25.67    1.64
  -3   4  -2   27.18    2.53
  -3   4  -2   23.64    1.97
   3   4   2   25.66    2.02
   3   4   2   26.35    1.65
   3   4   2   25.09    1.60
   3   4   2   27.03    1.65
  -4   4  -2   23.07    2.38
   4   4   2   20.87    2.00
   4   4   2   22.95    1.52
  -4   4  -2   20.43    1.39
  -4   4  -2   18.15    1.81
   4   4   2   22.08    1.91
   4   4   2   22.28    1.52
  -4   4  -2   19.89    1.41
  -4   4  -2   22.80    1.40
  -4   4  -2   22.59    1.42
   5   4   2    5.55    0.89
  -5   4  -2    5.68    0.64
  -5   4  -2    6.15    1.38
  -5   4  -2    4.45    1.01
   5   4   2    5.53    1.17
  -5   4  -2    5.46    0.69
   5   4   2    5.12    0.77
   5   4   2    5.54    0.74
   6   4   2    0.94    0.48
  -6   4  -2    0.00    0.81
  -6   4  -2    1.25    0.45
  -6   4  -2    1.21    0.30
   6   4   2    1.09    0.42
   6   4   2    1.02    0.58
   6   4   2    0.80    0.26
   6   4   2    2.19    0.90
  -6   4  -2    0.38    0.62
  -6   4  -2    0.96    0.31
   6   4   2    1.68    0.66
  -6   4  -2    0.66    0.53
  -6   4  -2    1.08    0.48
   6   4   2    0.85    0.46
  -6   4  -2    1.51    0.62
   6   4   2    0.32    0.88
  -6   4  -2    2.35    1.00
   7   4   2    1.53    0.71
  -7   4  -2   -0.16    0.69
   7   4   2    0.78    0.51
   7   4   2    0.31    0.49
  -7   4  -2   -0.14    1.03
   7   4   2    0.54    0.12
  -7   4  -2    0.80    0.61
   7   4   2    0.09    0.34
  -7   4  -2    0.55    0.34
   7   4   2    0.55    0.29
  -7   4  -2    0.74    0.30
  -7   4  -2    0.63    0.57
   7   4   2    0.69    0.45
  -7   4  -2    0.71    0.57
  -7   4  -2    0.94    0.63
   7   4   2    0.70    0.57
   7   4   2    0.67    0.42
  -7   4  -2    2.03    1.30
  -7   4  -2    0.12    0.47
   7   4   2    1.41    1.10
   7   4   2    0.29    0.64
  -8   4  -2   22.02    1.70
  -8   4  -2   24.23    1.99
   8   4   2   23.89    1.63
   8   4   2   23.34    1.42
   8   4   2   19.18    1.68
  -8   4  -2   23.54    1.78
   8   4   2   22.61    1.70
  -8   4  -2   24.53    1.90
   8   4   2   22.95    2.43
  -8   4  -2   19.70    2.54
  -8   4  -2   22.41    1.44
  -8   4  -2   23.97    2.02
   8   4   2   24.15    1.89
   8   4   2   24.64    1.98
  -8   4  -2   21.64    1.86
  -8   4  -2   22.76    1.49
   8   4   2   22.35    2.01
  -8   4  -2   25.73    2.60
   8   4   2   23.59    1.49
   8   4   2   21.68    1.25
  -9   4  -2   20.12    1.85
  -9   4  -2   19.25    1.81
   9   4   2   19.81    1.66
   9   4   2   20.67    1.82
  -9   4  -2   19.40    1.39
   9   4   2   18.34    1.62
  -9   4  -2   22.08    1.92
   9   4   2   21.47    1.34
  -9   4  -2   14.16    2.30
   9   4   2   20.23    1.13
   9   4   2   18.24    1.91
   9   4   2   22.11    1.35
   9   4   2   23.01    1.99
  -9   4  -2   19.54    2.32
  -9   4  -2   20.43    1.63
  -9   4  -2   23.53    2.10
   9   4   2   17.15    2.31
  -9   4  -2   20.72    1.37
  10   4   2   54.69    4.10
 -10   4  -2   54.65    5.01
 -10   4  -2   63.68    4.46
  10   4   2   61.14    4.18
  10   4   2   59.30    3.92
  10   4   2   54.70    4.32
  10   4   2   58.06    4.88
  10   4   2   64.32    3.71
 -10   4  -2   66.92    3.51
  10   4   2   60.18    3.46
 -10   4  -2   62.54    3.71
 -10   4  -2   64.32    4.25
  10   4   2   61.62    3.29
 -11   4  -2    2.84    1.76
  11   4   2    2.02    0.48
  11   4   2    2.41    0.22
  11   4   2    2.85    0.71
  11   4   2    2.31    0.42
 -11   4  -2    2.24    0.66
 -11   4  -2    0.86    0.81
 -11   4  -2    2.73    0.60
 -11   4  -2    2.65    0.52
  11   4   2    2.04    0.49
 -12   4  -2    0.19    0.46
  12   4   2    1.16    0.35
  12   4   2    1.04    0.37
  12   4   2    1.44    0.53
 -12   4  -2    0.73    0.41
 -12   4  -2    1.58    0.62
 -12   4  -2    0.65    0.83
  12   4   2    0.69    0.58
  13   4   2    0.41    0.43
 -13   4  -2    0.98    0.58
 -13   4  -2    0.59    0.57
  13   4   2    0.49    0.49
  13   4   2    0.95    0.49
 -13   4  -2   -0.41    0.41
 -13   4  -2    0.12    0.80
  13   4   2   -0.32    0.50
  14   4   2    0.15    0.32
 -14   4  -2    0.09    0.71
  14   4   2   -0.12    0.32
  14   4   2   -0.08    0.41
 -14   4  -2    0.77    0.42
 -14   4  -2   -0.56    0.52
 -14   4  -2    0.19    0.36
  14   4   2    0.57    0.62
 -15   4  -2    0.86    0.40
  15   4   2    0.60    0.41
 -15   4  -2   -0.03    0.63
  15   4   2    0.68    0.45
 -15   4  -2    0.59    0.46
 -15   4  -2    0.40    0.27
  15   4   2    0.98    0.37
  16   4   2   64.33    3.97
  16   5  -2    5.61    0.59
 -15   5   2    1.63    0.47
 -15   5   2    0.01    0.56
  15   5  -2    1.26    0.46
  14   5  -2    7.11    0.89
 -14   5   2    6.67    0.80
 -14   5   2    7.11    0.89
 -13   5   2    0.13    0.37
  13   5  -2   -0.24    0.45
  13   5  -2    1.06    0.72
 -13   5   2    0.40    0.66
 -13   5   2    0.06    0.53
 -12   5   2    7.72    0.99
  12   5  -2    4.39    0.60
  12   5  -2    6.85    0.92
  12   5  -2    5.39    0.55
  12   5  -2    6.58    0.56
 -12   5   2    4.40    0.98
 -12   5   2    5.66    0.68
 -11   5   2   -0.07    0.75
  11   5  -2    1.09    0.44
 -11   5   2    0.22    0.60
 -11   5   2    0.53    0.47
 -11   5   2   -0.59    0.95
  11   5  -2    0.36    0.36
  11   5  -2    0.06    0.55
  11   5  -2   -0.06    0.50
 -10   5   2   41.86    3.05
  10   5  -2   37.51    2.76
  10   5  -2   39.03    2.64
 -10   5   2   37.21    2.30
  10   5  -2   40.06    2.41
 -10   5   2   38.79    4.18
  10   5  -2   39.14    2.27
 -10   5   2   39.53    3.01
 -10   5   2   38.31    2.74
  -9   5   2   18.86    1.73
  -9   5   2   18.86    2.32
   9   5  -2   20.99    1.33
  -9   5   2   19.14    2.72
  -9   5   2   21.78    1.99
  -9   5   2   21.82    1.68
   9   5  -2   19.40    1.59
   9   5  -2   19.86    1.56
  -9   5   2   19.68    1.32
   9   5  -2   21.81    2.45
   9   5  -2   19.61    1.85
   9   5  -2   21.11    1.30
   9   5  -2   21.07    1.71
   8   5  -2    3.45    0.83
   8   5  -2    6.05    0.70
   8   5  -2    3.00    1.10
  -8   5   2    4.86    1.25
  -8   5   2    5.63    0.97
  -8   5   2    5.42    0.51
   8   5  -2    5.03    0.67
   8   5  -2    4.92    0.71
  -8   5   2    5.82    0.74
  -8   5   2    4.22    0.63
   8   5  -2    3.71    0.66
  -8   5   2    1.81    1.66
   8   5  -2    5.91    0.57
   8   5  -2    4.43    0.48
   8   5  -2    4.05    1.63
   7   5  -2    0.72    0.55
  -7   5   2    1.52    0.61
   7   5  -2    0.80    0.55
   7   5  -2    0.89    0.47
   7   5  -2    0.94    0.50
  -7   5   2    0.88    0.37
   7   5  -2    0.88    0.61
  -7   5   2    1.41    0.55
   7   5  -2   -0.36    0.84
   7   5  -2    0.99    0.30
  -7   5   2    1.85    1.42
  -7   5   2    0.87    0.96
  -7   5   2    1.30    0.54
   7   5  -2    1.09    0.27
   7   5  -2    0.88    1.34
  -7   5   2    0.85    0.50
  -6   5   2   35.61    2.60
  -6   5   2   36.79    3.28
   6   5  -2   35.56    2.48
   6   5  -2   36.04    3.20
  -6   5   2   36.37    3.26
   6   5  -2   35.19    2.51
   6   5  -2   36.20    2.00
   6   5  -2   35.22    2.10
   6   5  -2   36.86    2.23
   6   5  -2   35.57    2.83
  -6   5   2   35.72    2.47
   6   5  -2   40.74    2.48
  -6   5   2   36.04    2.72
  -6   5   2   34.85    2.52
   6   5  -2   36.02    2.35
   6   5  -2   32.12    2.26
  -6   5   2   32.63    1.99
   5   5  -2   11.51    1.07
   5   5  -2   11.88    0.73
   5   5  -2   12.07    1.11
  -5   5   2   11.21    1.15
  -5   5   2   12.28    0.93
  -5   5   2   11.28    1.70
  -5   5   2    9.23    0.91
  -5   5   2   12.18    1.05
  -5   5   2    9.44    1.05
   5   5  -2   12.47    1.02
  -5   5   2   11.07    1.69
   5   5  -2   12.90    1.70
   5   5  -2   10.15    1.07
   5   5  -2    9.35    0.96
   5   5  -2   10.28    1.34
  -5   5   2   11.50    0.73
  -5   5   2   12.05    1.29
  -4   5   2    3.72    0.56
  -4   5   2    4.95    0.67
  -4   5   2    3.84    0.35
   4   5  -2    2.83    0.72
  -4   5   2    5.43    1.26
  -4   5   2    6.67    1.32
  -4   5   2    4.36    0.60
   4   5  -2    4.24    0.62
  -4   5   2    5.18    0.74
   4   5  -2    4.20    0.61
  -4   5   2    5.04    0.72
   4   5  -2    4.99    0.58
   4   5  -2    4.17    0.61
   4   5  -2    3.19    1.12
   4   5  -2    4.04    0.35
  -3   5   2   19.76    2.15
   3   5  -2   20.05    1.57
  -3   5   2   20.23    1.54
   3   5  -2   21.83    1.91
   3   5  -2   19.45    1.15
  -3   5   2   20.30    1.62
  -3   5   2   19.66    1.49
  -3   5   2   22.64    1.60
   3   5  -2   20.19    1.50
   3   5  -2   19.57    1.48
  -3   5   2   23.26    2.21
   3   5  -2   21.52    1.51
   3   5  -2   20.96    1.88
   2   5  -2    0.21    0.31
  -2   5   2   -0.37    0.37
  -2   5   2   -0.24    0.89
  -2   5   2   -0.29    0.85
   2   5  -2   -1.09    0.61
   2   5  -2   -0.41    0.42
   2   5  -2    0.35    0.89
  -2   5   2   -0.26    0.50
   2   5  -2    0.00    0.44
  -2   5   2   -0.65    0.49
  -1   5   2   -0.60    0.71
  -1   5   2   -0.22    0.44
   1   5  -2    0.16    0.86
   1   5  -2    0.69    0.63
   1   5  -2   -0.27    0.69
  -1   5   2   -0.51    0.86
   0   5   2   -0.69    0.46
   0   5  -2    0.26    0.82
   0   5  -2   -0.58    0.80
   0   5  -2    0.73    0.54
   0   5   2   -0.27    0.60
  -1   5  -2   16.39    1.80
   1   5   2   14.16    1.52
  -1   5  -2   14.99    1.62
  -1   5  -2   15.91    1.22
   1   5   2   14.30    1.22
   1   5   2   17.00    1.73
   2   5   2    8.72    1.24
  -2   5  -2    9.79    0.93
  -2   5  -2    9.67    1.56
   2   5   2    9.67    0.89
  -2   5  -2    9.46    0.86
   2   5   2    7.99    0.94
  -2   5  -2    9.91    1.31
   2   5   2    8.95    0.89
   2   5   2   10.86    0.95
  -2   5  -2    9.57    0.88
   3   5   2    8.87    0.84
  -3   5  -2    8.55    0.89
  -3   5  -2    6.06    1.47
   3   5   2    7.88    0.77
   3   5   2    9.03    1.14
  -3   5  -2    7.83    0.85
   3   5   2    6.92    0.73
   3   5   2    6.29    0.80
  -3   5  -2    7.68    0.69
  -3   5  -2    8.95    0.84
  -3   5  -2    7.10    0.50
  -3   5  -2    8.14    0.78
  -4   5  -2   28.03    1.86
   4   5   2   29.11    1.98
   4   5   2   27.28    1.55
   4   5   2   24.55    1.85
   4   5   2   26.54    2.05
   4   5   2   28.84    2.04
   4   5   2   28.46    2.45
  -4   5  -2   30.28    2.89
  -4   5  -2   26.57    1.93
  -4   5  -2   27.26    1.96
  -4   5  -2   29.23    2.10
   4   5   2   29.34    1.98
  -4   5  -2   28.32    1.55
  -4   5  -2   22.69    1.98
  -4   5  -2   28.90    1.94
   5   5   2    2.04    0.57
  -5   5  -2    2.38    0.55
  -5   5  -2    2.88    1.11
   5   5   2    3.64    1.05
   5   5   2    2.31    0.40
  -5   5  -2    1.79    0.56
   5   5   2    2.16    0.41
   5   5   2    2.01    0.22
  -5   5  -2    2.03    0.32
  -5   5  -2    2.81    0.51
  -5   5  -2    1.82    0.49
   5   5   2    2.66    0.46
  -5   5  -2    1.76    0.57
   5   5   2    2.59    0.36
   5   5   2    2.18    0.51
   5   5   2    2.30    0.42
   6   5   2   21.10    1.59
   6   5   2   23.46    1.82
   6   5   2   23.56    1.65
   6   5   2   22.56    1.37
  -6   5  -2   22.20    1.66
   6   5   2   23.51    2.31
  -6   5  -2   20.06    1.69
   6   5   2   20.48    1.64
   6   5   2   24.25    1.41
  -6   5  -2   23.97    1.85
   6   5   2   23.72    1.71
   6   5   2   26.55    1.67
  -6   5  -2   23.23    2.00
  -6   5  -2   23.18    2.48
  -6   5  -2   21.75    1.36
   7   5   2   19.52    1.58
   7   5   2   21.16    1.23
  -7   5  -2   19.57    1.22
   7   5   2   17.35    1.88
   7   5   2   18.78    1.63
   7   5   2   18.31    1.55
   7   5   2   19.44    1.17
  -7   5  -2   21.78    1.48
  -7   5  -2   16.27    2.43
  -7   5  -2   18.08    1.68
  -7   5  -2   19.71    1.88
   7   5   2   21.43    1.53
   7   5   2   18.35    1.42
  -7   5  -2   17.53    1.66
   7   5   2   17.15    1.48
   8   5   2    0.47    0.62
   8   5   2    0.07    0.36
  -8   5  -2    0.94    0.51
   8   5   2    0.76    0.64
   8   5   2   -0.62    0.54
  -8   5  -2    0.63    0.45
   8   5   2   -0.03    0.41
  -8   5  -2    0.48    0.38
  -8   5  -2    4.19    1.67
  -8   5  -2    0.75    0.80
  -8   5  -2    0.55    0.56
   8   5   2    0.30    0.36
   8   5   2    0.33    1.04
   8   5   2    0.56    0.27
  -8   5  -2    0.18    0.31
  -8   5  -2    0.34    0.17
  -8   5  -2    1.45    0.68
  -9   5  -2    3.66    0.53
  -9   5  -2    3.79    0.69
   9   5   2    2.54    1.15
  -9   5  -2    4.43    0.77
   9   5   2    3.70    0.50
   9   5   2    4.00    0.44
  -9   5  -2    3.73    0.36
  -9   5  -2    3.55    1.72
  -9   5  -2    2.82    0.75
   9   5   2    2.85    0.58
  -9   5  -2    3.54    0.86
   9   5   2    3.38    0.72
   9   5   2    3.75    0.59
 -10   5  -2    5.67    0.70
 -10   5  -2    4.32    0.95
  10   5   2    6.02    0.70
 -10   5  -2    5.44    1.05
  10   5   2    5.87    0.60
 -10   5  -2    5.73    0.63
 -10   5  -2    4.85    0.49
  10   5   2    5.12    0.68
  10   5   2    4.96    0.52
 -11   5  -2    9.40    1.00
  11   5   2    9.28    0.97
 -11   5  -2    7.44    1.20
  11   5   2    9.44    0.96
 -11   5  -2    9.81    0.82
  11   5   2    9.58    0.89
 -11   5  -2    7.94    0.84
  11   5   2    8.97    0.82
  12   5   2   -0.23    0.30
  12   5   2    0.21    0.46
  12   5   2    0.29    0.59
 -12   5  -2   -0.17    0.61
  12   5   2    0.48    0.45
 -12   5  -2    0.06    0.49
 -12   5  -2    0.39    0.54
 -13   5  -2   16.83    1.19
  13   5   2   15.35    1.02
  13   5   2   14.03    1.30
  13   5   2   17.84    1.15
 -13   5  -2   15.15    1.29
 -13   5  -2   14.07    1.40
  13   5   2   15.38    1.22
  14   5   2   -0.76    0.29
  14   5   2   -0.90    0.54
  14   5   2    0.43    0.41
 -14   5  -2   -0.20    0.47
  14   5   2    0.04    0.19
 -14   5  -2   -0.66    0.50
 -14   5  -2   -0.16    0.56
  15   5   2   -0.24    0.32
 -15   5  -2    0.60    0.39
 -15   5  -2   -0.39    0.25
 -14   6   2    0.71    0.40
  14   6  -2    2.43    0.48
 -14   6   2    0.63    0.50
  13   6  -2    9.90    0.86
 -13   6   2    7.32    1.09
 -13   6   2    7.56    0.87
 -12   6   2    1.03    0.62
  12   6  -2    1.43    0.57
 -12   6   2    2.66    0.98
  12   6  -2    1.02    0.38
  12   6  -2    2.19    0.57
 -11   6   2    3.63    0.77
 -11   6   2    3.00    0.52
 -11   6   2    3.49    0.59
  11   6  -2    3.75    0.56
  11   6  -2    5.15    0.88
 -11   6   2    4.22    0.84
  11   6  -2    3.92    0.40
  10   6  -2   -0.21    0.76
  10   6  -2    0.07    0.33
 -10   6   2    1.37    0.70
  10   6  -2    0.38    0.35
  10   6  -2    0.07    0.42
 -10   6   2   -0.99    0.83
 -10   6   2    0.59    0.35
 -10   6   2    0.53    0.50
   9   6  -2    1.17    0.36
   9   6  -2    1.82    0.56
   9   6  -2    2.03    0.80
  -9   6   2    1.65    0.70
  -9   6   2   -0.01    0.48
   9   6  -2    0.94    0.63
  -9   6   2    1.14    0.33
  -9   6   2    0.46    0.62
  -8   6   2    2.89    0.94
   8   6  -2    2.22    0.46
   8   6  -2    0.86    0.33
   8   6  -2    1.12    0.63
  -8   6   2    1.04    0.71
  -8   6   2    1.13    0.83
  -8   6   2    0.95    0.34
  -8   6   2   -0.81    1.81
   8   6  -2    3.29    1.73
   8   6  -2    0.98    0.55
  -7   6   2    1.20    0.59
  -7   6   2    0.77    0.26
  -7   6   2    1.30    0.64
   7   6  -2    1.00    0.28
   7   6  -2    1.17    0.60
  -7   6   2   -0.06    1.58
  -7   6   2    0.90    0.68
   7   6  -2    0.72    0.61
   7   6  -2    0.54    0.50
  -7   6   2    0.40    0.81
   7   6  -2    0.80    1.56
  -6   6   2   71.26    5.05
  -6   6   2   73.33    4.70
   6   6  -2   69.86    4.79
  -6   6   2   70.23    3.83
  -6   6   2   64.03    5.51
   6   6  -2   73.83    5.37
   6   6  -2   69.88    3.87
   6   6  -2   73.22    4.50
  -6   6   2   62.79    5.28
   6   6  -2   67.39    4.83
  -6   6   2   70.79    4.71
  -6   6   2   70.18    4.81
   6   6  -2   78.37    4.80
  -5   6   2   13.02    1.25
   5   6  -2   15.06    1.37
   5   6  -2   14.88    1.38
  -5   6   2   12.81    1.73
  -5   6   2   15.73    1.28
   5   6  -2   14.90    1.33
   5   6  -2   15.52    1.18
   5   6  -2   10.53    1.55
  -5   6   2   11.75    1.81
   5   6  -2   14.93    0.88
  -5   6   2   15.83    1.31
   5   6  -2   13.19    1.77
  -5   6   2   14.90    1.38
  -5   6   2   15.01    1.33
   4   6  -2   44.69    3.46
  -4   6   2   48.91    3.45
  -4   6   2   45.73    3.79
  -4   6   2   43.22    3.17
   4   6  -2   51.68    3.14
  -4   6   2   46.09    3.27
  -4   6   2   50.34    3.13
   4   6  -2   46.08    2.53
  -4   6   2   45.69    3.20
   4   6  -2   43.88    3.13
   4   6  -2   46.98    3.78
   4   6  -2   45.32    3.24
  -4   6   2   44.79    3.94
  -4   6   2   47.89    2.97
   4   6  -2   45.42    3.01
   4   6  -2   46.33    3.19
  -3   6   2    2.89    0.48
   3   6  -2    3.22    0.96
   3   6  -2    3.48    0.63
  -3   6   2    2.89    0.75
  -3   6   2    3.27    0.73
  -3   6   2    2.50    0.68
   3   6  -2    2.55    0.73
   3   6  -2    3.15    0.59
   3   6  -2    3.59    0.56
  -3   6   2    2.62    0.96
  -3   6   2    3.13    0.48
   3   6  -2    2.71    0.49
   3   6  -2    2.88    0.62
   3   6  -2    3.40    0.62
  -3   6   2    3.53    0.58
  -2   6   2   32.38    2.26
  -2   6   2   30.22    2.31
  -2   6   2   32.66    2.27
  -2   6   2   33.21    2.52
   2   6  -2   32.56    2.30
   2   6  -2   36.01    2.26
   2   6  -2   35.95    2.31
  -2   6   2   32.03    2.23
   2   6  -2   33.23    2.30
  -2   6   2   33.37    2.14
   2   6  -2   31.19    2.58
  -2   6   2   28.88    2.26
  -2   6   2   31.53    2.41
  -2   6   2   34.83    2.94
   2   6  -2   31.75    2.84
   2   6  -2   35.22    2.23
   2   6  -2   30.82    2.28
  -1   6   2    0.27    0.41
   1   6  -2    0.13    0.77
  -1   6   2    0.32    0.48
  -1   6   2    0.05    0.49
   1   6  -2    0.71    0.53
   1   6  -2    0.34    0.48
   1   6  -2    0.33    0.36
   1   6  -2    0.50    0.42
  -1   6   2   -0.12    0.51
  -1   6   2    0.19    0.29
  -1   6   2   -0.04    0.42
   1   6  -2    0.53    0.51
  -1   6   2   -0.13    0.27
   1   6  -2    0.62    0.47
  -1   6   2    0.11    0.70
  -1   6   2    0.03    0.61
   1   6  -2    0.48    0.50
   0   6   2   -0.13    0.77
   0   6   2    0.69    0.45
   0   6  -2    0.85    0.37
   0   6   2    0.67    0.40
   0   6   2    0.68    0.54
   0   6   2    0.79    0.60
   0   6  -2    0.64    0.36
   0   6  -2    0.68    0.50
   0   6   2    0.67    0.38
   0   6  -2   -0.70    1.02
   0   6   2    1.53    0.46
   0   6   2    0.65    0.49
   0   6  -2    1.59    0.55
   0   6  -2    0.98    0.40
   0   6  -2    1.16    0.55
   0   6  -2    1.01    0.48
   0   6  -2    0.94    0.57
   0   6   2    1.22    1.08
   0   6   2    0.93    0.31
  -1   6  -2    8.91    1.00
  -1   6  -2    8.98    0.90
   1   6   2    9.10    0.96
   1   6   2   11.27    1.04
   1   6   2   10.82    1.15
  -1   6  -2   11.85    1.01
  -1   6  -2    9.88    0.87
   1   6   2   10.81    1.27
  -1   6  -2    8.92    1.02
  -1   6  -2   10.07    0.88
  -1   6  -2    8.71    1.53
   1   6   2    9.80    0.91
  -1   6  -2   11.22    1.02
  -1   6  -2   10.94    0.95
   1   6   2   10.31    1.06
   1   6   2    9.80    0.91
   1   6   2   10.72    0.98
  -1   6  -2   10.95    1.52
  -2   6  -2    4.05    0.59
  -2   6  -2    4.24    0.56
  -2   6  -2    3.81    0.63
  -2   6  -2    3.78    0.64
   2   6   2    3.08    0.86
   2   6   2    4.75    0.75
  -2   6  -2    4.37    0.60
  -2   6  -2    3.78    0.76
   2   6   2    4.49    0.67
   2   6   2    4.65    0.72
  -2   6  -2    3.66    1.36
   2   6   2    4.81    0.59
   2   6   2    4.96    0.61
   2   6   2    4.71    0.66
  -2   6  -2    4.21    0.52
   3   6   2    0.64    0.72
   3   6   2   -0.32    0.52
  -3   6  -2    0.19    0.68
  -3   6  -2    1.42    0.54
  -3   6  -2    0.97    1.34
   3   6   2    0.68    0.63
  -3   6  -2    0.45    0.48
  -3   6  -2    0.10    0.47
   3   6   2    0.99    0.44
  -3   6  -2    0.73    0.46
  -3   6  -2    0.24    0.40
   3   6   2    0.28    0.58
   3   6   2    1.20    0.47
   3   6   2    0.25    0.50
   3   6   2    0.71    0.14
   4   6   2    0.98    0.37
   4   6   2    0.94    0.19
  -4   6  -2    0.79    0.70
   4   6   2    1.29    0.55
   4   6   2    0.36    1.06
  -4   6  -2    1.44    0.54
  -4   6  -2    1.62    1.51
  -4   6  -2    1.08    0.56
  -4   6  -2    0.85    0.49
   4   6   2    0.77    0.46
  -4   6  -2    0.92    0.45
   4   6   2    1.97    0.60
  -4   6  -2    1.31    0.51
   4   6   2    0.76    0.53
  -5   6  -2    7.38    0.51
  -5   6  -2    9.89    0.94
  -5   6  -2    7.58    0.91
   5   6   2    8.45    1.30
   5   6   2    7.43    0.58
  -5   6  -2    7.37    0.99
  -5   6  -2    6.78    1.53
  -5   6  -2    7.26    0.91
   5   6   2    7.47    0.81
   5   6   2    8.52    0.81
   5   6   2    7.99    0.83
   5   6   2    8.63    0.92
  -5   6  -2    5.74    0.85
   6   6   2   23.77    1.98
   6   6   2   24.78    1.46
   6   6   2   28.98    1.90
   6   6   2   25.22    2.00
  -6   6  -2   23.99    1.42
   6   6   2   22.95    1.74
  -6   6  -2   23.23    1.96
   6   6   2   24.45    2.29
  -6   6  -2   24.03    2.05
  -6   6  -2   28.63    1.95
  -6   6  -2   25.60    2.22
  -6   6  -2   20.83    2.82
  -7   6  -2   18.08    1.18
   7   6   2   20.16    1.18
   7   6   2   21.83    1.48
  -7   6  -2   15.19    2.48
  -7   6  -2   17.97    1.55
  -7   6  -2   19.14    1.50
   7   6   2   20.52    1.71
  -7   6  -2   18.06    1.58
   7   6   2   18.50    1.53
  -7   6  -2   20.91    1.76
   7   6   2   20.18    2.03
   7   6   2   18.60    1.45
  -8   6  -2    1.24    0.75
   8   6   2    1.46    0.69
   8   6   2    1.63    0.35
  -8   6  -2    1.19    0.33
   8   6   2    1.39    0.63
  -8   6  -2    1.36    0.77
  -8   6  -2    0.73    0.90
  -8   6  -2    3.00    0.68
   8   6   2    2.01    0.62
   9   6   2    6.67    0.73
  -9   6  -2    7.51    0.99
  -9   6  -2    7.53    0.87
  -9   6  -2    6.56    1.14
  -9   6  -2    8.19    0.71
   9   6   2    7.46    0.79
   9   6   2    7.24    0.68
   9   6   2    7.18    0.81
  10   6   2    1.85    0.70
  10   6   2    2.52    0.58
  10   6   2    2.41    0.40
 -10   6  -2    2.01    0.73
  10   6   2    2.14    0.55
 -10   6  -2    2.94    0.62
 -10   6  -2    2.64    0.42
 -10   6  -2    3.58    0.78
  11   6   2    3.44    0.42
 -11   6  -2    2.04    0.72
  11   6   2    2.59    0.68
 -11   6  -2    3.39    0.66
  11   6   2    2.41    0.53
 -11   6  -2    2.34    0.42
 -11   6  -2    2.64    0.74
  12   6   2   24.77    1.46
 -12   6  -2   26.74    2.10
  12   6   2   21.77    1.67
  12   6   2   22.97    1.76
 -12   6  -2   25.58    1.44
  13   6   2    0.19    0.30
  13   6   2    0.26    0.33
 -13   6  -2    0.24    0.57
 -13   6  -2    0.95    0.27
  13   6   2    0.61    0.36
 -14   6  -2    6.44    0.66
 -13   7   2    1.66    0.45
 -13   7   2    1.29    0.41
  13   7  -2    1.28    0.39
 -12   7   2    9.35    0.93
 -12   7   2    7.53    0.87
  12   7  -2    8.02    0.86
  11   7  -2    7.61    1.01
 -11   7   2    8.21    1.11
 -11   7   2    9.48    1.00
  11   7  -2   10.70    0.97
  10   7  -2   11.06    1.13
 -10   7   2   11.38    1.23
  10   7  -2   12.28    1.15
 -10   7   2    9.96    1.26
  -9   7   2    0.44    0.52
   9   7  -2    0.10    0.46
  -9   7   2    1.59    0.70
   9   7  -2    0.30    0.58
  -9   7   2    0.99    0.67
   9   7  -2    0.75    0.40
  -8   7   2   -0.16    0.71
  -8   7   2    0.04    0.63
  -8   7   2    0.31    0.64
   8   7  -2    0.15    0.65
   8   7  -2    0.19    0.60
   8   7  -2   -0.34    0.79
  -7   7   2    0.72    0.53
   7   7  -2    0.57    0.55
   7   7  -2    0.40    0.45
  -7   7   2    0.16    0.63
   7   7  -2    0.73    0.66
  -7   7   2    0.41    0.63
  -6   7   2    5.73    1.06
  -6   7   2    6.02    1.04
   6   7  -2    5.93    0.85
   6   7  -2    5.84    0.77
  -6   7   2    5.47    0.91
   6   7  -2    6.47    0.73
   5   7  -2    1.87    0.72
   5   7  -2    1.00    0.66
  -5   7   2    0.33    0.52
   5   7  -2    1.32    0.49
  -5   7   2    1.53    0.49
  -5   7   2    0.73    0.59
  -5   7   2    0.87    0.51
  -5   7   2    1.71    0.64
   4   7  -2    8.11    0.86
   4   7  -2    8.88    0.94
   4   7  -2    9.42    0.93
   4   7  -2   10.50    1.05
  -4   7   2    7.57    1.06
   4   7  -2    8.63    0.87
  -4   7   2    7.90    0.77
  -4   7   2    9.73    1.04
  -4   7   2    8.62    0.93
  -4   7   2    8.28    0.97
  -4   7   2    8.24    0.89
  -3   7   2    6.37    0.71
   3   7  -2    6.14    0.73
   3   7  -2    5.68    0.78
  -3   7   2    6.57    0.63
  -3   7   2    6.70    0.82
  -3   7   2    5.84    1.00
  -3   7   2    6.41    0.89
  -3   7   2    6.83    0.72
   3   7  -2    6.41    0.83
   3   7  -2    7.21    0.71
   3   7  -2    5.59    0.83
  -2   7   2   -0.18    0.52
  -2   7   2    0.37    0.46
  -2   7   2    0.33    0.54
   2   7  -2    0.17    0.54
  -2   7   2    0.99    0.53
   2   7  -2   -0.45    0.58
   2   7  -2    0.00    0.48
  -2   7   2   -0.22    0.48
   2   7  -2    0.04    0.59
  -2   7   2    0.37    0.44
   2   7  -2    0.39    0.60
  -2   7   2    0.72    0.38
  -1   7   2   67.46    4.78
   1   7  -2   64.62    4.45
   1   7  -2   68.74    4.55
  -1   7   2   70.29    4.47
  -1   7   2   67.10    4.47
   1   7  -2   73.09    4.36
   1   7  -2   73.16    4.60
  -1   7   2   64.16    4.57
  -1   7   2   66.65    4.29
  -1   7   2   66.88    4.59
   1   7  -2   72.07    4.59
   1   7  -2   73.32    4.54
  -1   7   2   66.03    4.54
  -1   7   2   65.89    4.57
   0   7   2   48.98    3.43
   0   7  -2   49.57    3.25
   0   7   2   50.06    3.48
   0   7   2   50.44    3.31
   0   7  -2   48.05    3.58
   0   7   2   50.40    3.39
   0   7   2   56.53    3.52
   0   7  -2   54.10    3.42
   0   7  -2   49.58    3.43
   0   7  -2   50.16    3.35
   0   7  -2   51.60    3.34
   0   7  -2   50.56    3.41
   0   7   2   49.26    3.56
   0   7   2   43.20    3.16
   1   7   2    0.82    0.70
  -1   7  -2    1.16    0.44
  -1   7  -2    1.05    0.47
  -1   7  -2    1.06    0.49
  -1   7  -2    1.09    0.58
   1   7   2    1.48    0.57
   1   7   2    0.62    0.47
   1   7   2    0.85    0.59
   1   7   2    0.32    0.48
  -1   7  -2    1.11    0.68
   1   7   2   -0.47    0.71
  -1   7  -2    0.72    0.36
   1   7   2    0.96    0.71
  -1   7  -2    0.33    0.40
  -2   7  -2   47.27    3.21
   2   7   2   43.62    3.04
  -2   7  -2   50.62    3.09
   2   7   2   46.43    3.24
  -2   7  -2   43.49    3.20
   2   7   2   49.29    3.29
   2   7   2   44.21    3.40
  -2   7  -2   49.61    3.27
  -2   7  -2   46.74    3.46
  -2   7  -2   50.30    3.20
   2   7   2   46.69    3.21
   2   7   2   48.19    3.21
  -3   7  -2    4.02    0.67
  -3   7  -2    3.86    0.67
   3   7   2    2.82    0.71
  -3   7  -2    3.73    0.88
  -3   7  -2    3.91    0.63
   3   7   2    2.27    0.64
  -3   7  -2    2.54    1.24
   3   7   2    2.92    0.75
  -3   7  -2    4.12    0.64
   3   7   2    5.82    0.91
   3   7   2    1.12    1.16
   3   7   2    3.71    0.62
   4   7   2    2.40    0.60
   4   7   2    3.19    0.62
  -4   7  -2    2.84    0.86
   4   7   2    4.04    0.74
  -4   7  -2    4.39    0.62
  -4   7  -2    3.92    0.72
   4   7   2    3.67    0.68
  -4   7  -2    3.65    0.53
  -4   7  -2    1.05    1.21
   5   7   2   13.59    1.22
   5   7   2   12.59    1.36
  -5   7  -2   12.29    1.33
  -5   7  -2   11.48    1.13
   5   7   2   11.13    1.16
   5   7   2   13.51    1.35
  -5   7  -2   10.69    1.13
  -6   7  -2   21.07    1.57
  -6   7  -2   20.50    1.66
   6   7   2   20.49    1.75
   6   7   2   18.44    1.45
   6   7   2   20.36    1.64
   6   7   2   18.87    1.58
  -6   7  -2   19.44    1.99
   7   7   2    2.70    0.24
   7   7   2    3.31    0.67
  -7   7  -2    2.85    0.83
  -7   7  -2    2.60    0.73
   7   7   2    2.66    0.60
  -7   7  -2    3.36    0.78
  -8   7  -2    9.97    1.14
   8   7   2   10.92    1.04
  -8   7  -2   12.53    1.31
   8   7   2   11.39    0.68
   8   7   2    8.56    0.99
   8   7   2   11.72    1.28
   9   7   2    8.99    0.93
   9   7   2    8.85    0.88
  -9   7  -2    5.77    1.22
   9   7   2    9.10    0.59
  -9   7  -2    7.71    1.00
 -10   7  -2    0.38    0.46
  10   7   2   -0.62    0.28
  10   7   2    0.35    0.19
 -10   7  -2   -0.53    0.64
  10   7   2   -0.32    0.60
 -11   7  -2   -0.47    0.53
  11   7   2    1.32    0.42
 -11   7  -2    0.79    0.65
  11   7   2    1.07    0.17
 -12   7  -2    5.64    0.63
  12   7   2    2.70    0.41
  11   8  -2    3.70    0.43
 -11   8   2    3.88    0.54
 -10   8   2    0.15    0.49
  10   8  -2    0.60    0.43
  10   8  -2    0.53    0.47
 -10   8   2    0.88    0.44
  -9   8   2    0.04    0.58
  -9   8   2    0.36    0.48
   9   8  -2   -1.20    0.54
   9   8  -2   -0.53    0.70
  -9   8   2   -0.31    0.55
  -8   8   2    4.69    0.95
  -8   8   2    4.04    0.72
   8   8  -2    4.32    0.85
  -8   8   2    2.74    0.60
   8   8  -2    3.29    0.53
   8   8  -2    4.33    0.58
   7   8  -2   24.51    1.91
   7   8  -2   26.53    1.89
  -7   8   2   22.91    1.91
   7   8  -2   31.51    2.04
  -7   8   2   27.60    2.13
  -7   8   2   25.40    2.20
  -6   8   2   21.72    1.82
   6   8  -2   20.38    1.72
  -6   8   2   20.82    1.72
  -6   8   2   18.21    1.59
   6   8  -2   21.96    1.72
   6   8  -2   18.78    1.56
  -5   8   2   10.71    1.19
   5   8  -2   10.63    1.23
  -5   8   2    9.66    1.11
   5   8  -2   11.72    1.28
  -5   8   2   10.96    1.26
   5   8  -2   12.87    1.16
  -4   8   2    8.71    1.13
  -4   8   2    7.99    0.80
   4   8  -2    8.40    0.85
   4   8  -2    9.34    0.96
  -4   8   2    7.00    0.98
   4   8  -2    9.22    0.95
  -3   8   2   28.91    2.25
   3   8  -2   29.49    2.16
  -3   8   2   27.87    2.39
  -3   8   2   27.53    2.18
  -3   8   2   29.71    2.10
   3   8  -2   31.79    2.19
   3   8  -2   32.94    2.20
  -3   8   2   30.35    2.16
  -2   8   2   19.83    1.71
   2   8  -2   20.80    1.64
  -2   8   2   19.71    1.59
  -2   8   2   20.08    1.63
   2   8  -2   20.34    1.71
   2   8  -2   21.95    1.55
  -2   8   2   19.75    1.64
   2   8  -2   22.64    1.63
  -2   8   2   19.05    1.60
   2   8  -2   21.59    1.62
  -2   8   2   22.97    1.83
  -1   8   2    9.99    1.14
   1   8  -2    9.57    1.00
  -1   8   2   11.43    1.16
  -1   8   2   12.23    1.02
  -1   8   2   11.82    1.02
   1   8  -2   11.82    1.22
   1   8  -2   11.94    1.06
   1   8  -2   11.36    1.07
  -1   8   2    9.22    0.91
  -1   8   2   11.40    1.12
   1   8  -2   10.43    1.02
   0   8  -2    2.22    0.53
   0   8   2    3.19    0.54
   0   8   2    3.01    0.63
   0   8   2    3.64    0.63
   0   8   2    2.49    0.80
   0   8  -2    3.07    0.63
   0   8  -2    3.23    0.45
   0   8  -2    2.44    0.68
   0   8   2    2.25    0.53
   0   8  -2    3.04    0.69
   0   8  -2    2.85    0.56
  -1   8  -2    1.65    0.48
  -1   8  -2    1.95    0.54
   1   8   2    1.76    0.61
   1   8   2    2.04    0.82
  -1   8  -2    0.64    0.65
  -1   8  -2    1.19    0.38
   1   8   2    0.48    0.60
   1   8   2    1.40    0.70
  -1   8  -2    1.25    0.50
  -1   8  -2    1.12    0.45
  -2   8  -2    4.11    0.58
   2   8   2    3.15    0.58
  -2   8  -2    3.68    0.66
   2   8   2    2.97    0.80
   2   8   2    5.36    0.91
  -2   8  -2    2.89    0.76
   2   8   2    4.53    0.71
  -2   8  -2    4.53    0.86
  -2   8  -2    3.05    0.66
  -3   8  -2   34.94    2.20
  -3   8  -2   26.45    2.44
   3   8   2   30.56    2.35
  -3   8  -2   31.04    2.24
  -3   8  -2   29.48    2.41
   3   8   2   32.19    2.42
   3   8   2   34.27    2.24
   4   8   2    0.96    0.50
  -4   8  -2    0.00    0.53
   4   8   2   -0.02    0.67
  -4   8  -2    1.38    0.65
   4   8   2    0.70    0.41
  -4   8  -2   -1.28    0.82
   5   8   2    1.01    0.52
  -5   8  -2    0.30    0.77
   5   8   2    0.65    0.49
  -5   8  -2    0.38    0.92
   5   8   2    1.48    0.58
  -5   8  -2    1.29    0.50
   6   8   2   -0.54    0.45
  -6   8  -2    0.25    0.67
  -6   8  -2   -0.21    0.45
   6   8   2    0.35    0.68
  -7   8  -2    1.75    0.98
   7   8   2    1.47    0.70
  -7   8  -2    0.97    0.73
  -8   8  -2   -0.15    0.64
   8   8   2    0.62    0.66
   9   8   2    1.06    0.36
  -9   8  -2    1.12    0.63
  -9   8  -2    0.41    0.43
   9   8   2    0.44    0.43
 -10   8  -2    1.67    0.40
  10   8   2    1.23    0.39
 -10   8  -2    1.99    0.56
   8   9  -2    0.95    0.31
  -7   9   2   24.16    1.63
   7   9  -2   23.30    1.55
  -7   9   2   22.21    1.77
   7   9  -2   22.82    1.65
   6   9  -2   15.55    1.25
  -6   9   2   18.16    1.49
  -6   9   2   15.99    1.25
   5   9  -2    0.57    0.58
  -5   9   2    0.91    0.53
   5   9  -2    0.60    0.44
  -5   9   2    1.03    0.45
  -4   9   2   -0.52    0.62
   4   9  -2    0.11    0.41
   4   9  -2    0.05    0.42
  -4   9   2    1.02    0.51
  -3   9   2    4.97    0.69
   3   9  -2    5.42    0.63
   3   9  -2    6.16    0.65
   2   9  -2   34.02    2.31
  -2   9   2   36.32    2.32
  -2   9   2   32.67    2.31
  -2   9   2   29.92    2.48
  -1   9   2    0.03    0.69
   1   9  -2    0.59    0.58
   1   9  -2   -0.10    0.33
  -1   9   2   -0.09    0.45
  -1   9   2    0.36    0.33
   0   9   2    2.43    0.47
   0   9  -2    3.86    0.63
   0   9  -2    2.58    0.60
   1   9   2   17.68    1.24
   1   9   2   13.55    1.17
   1   9   2   15.58    1.25
  -1   9  -2   14.48    1.19
  -1   9  -2   17.62    1.29
  -1   9  -2   15.11    1.24
  -2   9  -2    0.42    0.44
   2   9   2    0.94    0.41
   2   9   2    1.72    0.54
   3   9   2   -0.06    0.41
  -3   9  -2   -0.78    0.57
  -3   9  -2    0.28    0.41
   4   9   2    8.87    0.90
  -4   9  -2    8.49    0.90
  -4   9  -2   11.74    0.93
  -5   9  -2    3.55    0.54
   5   9   2    2.27    0.47
   6   9   2    0.11    0.55
  -6   9  -2    1.01    0.65
  -7   9  -2    8.95    0.81
   7   9   2    8.40    0.79
 -15   0   3   47.08    2.75
 -14   0   3   -0.30    0.51
 -12   0   3   -0.12    0.44
 -11   0   3    8.93    0.76
  -9   0   3   21.87    1.85
  -9   0   3   22.73    1.86
  -8   0   3    1.22    0.80
   8   0  -3   -0.29    0.70
   8   0  -3    0.33    0.57
  -8   0   3    0.49    0.64
   8   0  -3   -0.20    1.28
   7   0  -3   86.78    6.02
  -7   0   3   99.09    5.78
  -7   0   3   97.35    6.15
   7   0  -3   91.82    5.62
  -7   0   3  102.37    5.71
  -7   0   3   81.70    5.91
   6   0  -3   -1.20    1.04
  -6   0   3   -1.38    0.95
  -6   0   3    0.44    0.58
  -6   0   3   -0.08    0.69
   6   0  -3   -0.19    0.50
   6   0  -3    1.06    1.04
   6   0  -3    0.46    0.67
  -6   0   3    0.97    0.78
  -5   0   3   15.51    1.65
  -5   0   3   13.30    1.22
   5   0  -3   14.35    1.16
   5   0  -3   12.67    1.63
   5   0  -3   13.17    1.56
  -5   0   3   12.64    1.40
   5   0  -3   14.24    1.30
  -5   0   3   15.98    1.43
   4   0  -3    1.33    0.74
   4   0  -3   -0.12    0.30
  -4   0   3   -0.24    0.52
  -4   0   3   -0.07    0.65
  -4   0   3   -0.21    0.34
   4   0  -3   -0.52    0.58
   4   0  -3   -0.82    0.89
  -4   0   3   -0.41    0.93
  -3   0   3   71.75    4.17
   3   0  -3   65.84    4.04
  -3   0   3   66.43    4.02
   3   0  -3   68.57    4.26
  -3   0   3   63.51    4.03
   3   0  -3   67.05    3.95
  -3   0   3   66.47    4.26
   3   0  -3   69.33    4.22
  -2   0   3    0.22    0.53
  -2   0   3   -0.15    0.36
  -2   0   3   -0.36    0.72
  -2   0   3   -0.12    0.41
   2   0  -3   -0.14    0.34
   2   0  -3   -0.74    0.81
  -2   0   3    0.45    0.67
   2   0  -3    0.22    0.35
   2   0  -3    0.01    0.45
   2   0  -3   -0.33    0.69
  -1   0   3   76.06    4.37
   1   0  -3   74.03    4.47
   1   0  -3   84.13    4.52
   1   0  -3   78.22    4.51
   1   0  -3   67.12    4.66
  -1   0   3   72.26    4.65
  -1   0   3   79.58    4.47
  -1   0   3   78.63    4.53
   1   0  -3   73.40    4.33
  -1   0   3   74.47    4.47
   0   0   3   -0.22    0.29
   0   0   3    0.23    0.68
   0   0  -3    0.10    0.23
   0   0  -3    1.19    0.73
   0   0   3    0.07    0.46
   0   0  -3   -0.30    0.64
   0   0  -3    0.52    0.41
   0   0  -3   -0.03    0.27
   0   0   3   -0.03    0.25
   0   0   3    0.54    0.63
  -1   0  -3  709.82   40.85
  -1   0  -3  718.14   40.61
  -1   0  -3  752.50   40.86
   1   0   3  701.05   40.62
   1   0   3  723.18   42.24
   1   0   3  747.15   40.86
  -1   0  -3  715.98   42.24
   1   0   3  729.67   40.85
  -2   0  -3    0.02    0.32
  -2   0  -3    0.29    0.62
  -2   0  -3   -0.22    0.58
   2   0   3   -0.36    0.32
   2   0   3    1.16    0.80
   2   0   3   -0.78    0.53
  -2   0  -3   -0.32    0.90
   2   0   3    0.40    0.58
  -3   0  -3    0.27    0.59
  -3   0  -3    1.87    0.96
   3   0   3    0.31    0.46
   3   0   3    0.65    0.59
  -3   0  -3    0.03    0.67
   3   0   3    0.15    0.86
  -3   0  -3    1.05    1.11
   3   0   3    2.26    0.90
  -3   0  -3    0.72    0.52
   3   0   3    0.84    0.51
  -4   0  -3    0.36    0.90
  -4   0  -3    0.31    0.53
  -4   0  -3    0.44    0.72
   4   0   3   -0.27    0.90
   4   0   3   -0.70    0.50
   4   0   3   -0.11    0.43
   4   0   3   -0.24    0.61
  -4   0  -3    0.15    0.71
   4   0   3   -0.14    0.86
  -4   0  -3   -0.98    1.15
  -5   0  -3    0.91    1.26
   5   0   3    1.41    1.01
  -5   0  -3    0.91    0.56
   5   0   3    0.41    0.42
  -5   0  -3    0.15    0.58
   5   0   3    1.16    0.93
   5   0   3    1.92    0.70
  -5   0  -3    0.21    0.83
  -5   0  -3    0.36    0.74
   5   0   3    0.60    0.54
   6   0   3   -0.48    0.44
   6   0   3   -0.36    0.98
  -6   0  -3   -0.26    0.86
   6   0   3    0.46    0.69
   6   0   3   -0.18    0.37
  -6   0  -3    0.34    0.43
   6   0   3    0.55    0.91
  -6   0  -3    0.00    0.68
  -7   0  -3    8.28    1.00
   7   0   3    9.17    1.01
  -7   0  -3    7.41    0.97
   7   0   3    5.21    1.29
   7   0   3    7.71    1.07
  -7   0  -3    9.08    1.17
  -8   0  -3    0.86    0.68
  -8   0  -3   -0.14    0.59
 -10   0  -3    0.08    0.30
 -11   0  -3   16.78    1.23
 -13   0  -3    0.45    0.51
  14   0   3   -0.46    0.40
 -14   0  -3    0.61    0.53
  15   0   3   52.18    2.94
 -15   0  -3   52.69    2.95
  16   0   3   -0.05    0.36
 -16   0  -3    0.49    0.45
 -17   0  -3   21.18    1.26
  17   0   3   22.63    1.27
 -18   1   3    0.73    0.67
 -17   1   3    2.88    0.62
 -16  -1   3    0.56    0.39
 -16   1   3    1.45    0.53
 -15  -1   3    7.55    0.72
 -15   1   3    7.87    0.82
 -15   1   3    7.34    0.63
  15   1  -3    6.77    0.64
 -14   1   3    4.77    0.81
 -14   1   3    5.01    0.52
  14   1  -3    3.92    0.44
 -13   1   3   -0.34    0.46
  13   1  -3    0.29    0.38
 -13   1   3    2.72    1.71
 -12   1   3   39.34    3.56
  12   1  -3   32.16    1.96
 -12   1   3   36.26    2.06
 -11   1   3   17.03    1.92
 -11   1   3   18.37    1.24
 -11   1   3   19.89    1.90
  11   1  -3   17.94    1.16
 -10   1   3    2.62    0.66
  10   1  -3    3.00    0.81
 -10   1   3    2.96    0.45
 -10   1   3    2.25    0.99
   9   1  -3   31.75    2.53
   9   1  -3   34.86    2.50
  -9   1   3   36.41    2.66
  -9   1   3   35.66    2.53
  -8  -1   3   49.60    4.18
   8   1  -3   50.26    4.28
   8   1  -3   55.98    3.73
  -8   1   3   59.58    3.74
   8   1  -3   63.42    3.79
  -8   1   3   63.23    3.83
  -7  -1   3  121.08    7.88
   7   1  -3  114.31    7.89
  -7   1   3  119.34    7.94
  -7   1   3  130.79    7.70
  -7   1   3  144.45    7.56
   7   1  -3  127.58    7.48
   6  -1  -3    1.52    1.03
  -6  -1   3    1.29    0.45
  -6  -1   3    4.32    1.19
   6  -1  -3    0.37    1.13
  -6  -1   3    0.79    0.69
   6  -1  -3    1.37    0.68
  -6  -1   3    1.72    0.92
  -6   1   3    2.61    1.10
  -6   1   3    1.07    0.71
  -6   1   3    1.28    0.58
   6   1  -3    1.79    0.44
   6   1  -3    0.83    0.68
   6   1  -3    2.68    1.03
   6   1  -3    1.45    1.03
  -6   1   3    1.23    0.72
   5  -1  -3    2.75    0.79
  -5  -1   3    3.32    1.09
   5  -1  -3    2.65    0.54
  -5  -1   3    2.31    0.73
  -5  -1   3    2.19    0.59
   5  -1  -3    2.10    0.50
  -5  -1   3    2.90    0.93
   5  -1  -3    1.73    1.09
  -5   1   3    3.51    0.62
  -5   1   3    2.97    0.96
  -5   1   3    1.74    0.76
  -5   1   3    1.96    0.77
   5   1  -3    2.09    0.98
   5   1  -3    3.56    0.59
   5   1  -3    4.26    1.08
  -5   1   3    3.76    0.63
   5   1  -3    2.17    0.68
  -4  -1   3   25.91    1.92
   4  -1  -3   28.24    2.12
   4  -1  -3   27.77    2.21
   4  -1  -3   25.01    1.75
   4  -1  -3   24.80    1.82
  -4  -1   3   28.14    2.13
  -4  -1   3   30.33    2.33
  -4  -1   3   25.87    1.83
   4   1  -3   29.26    1.83
  -4   1   3   25.46    1.91
  -4   1   3   27.59    1.77
   4   1  -3   27.85    2.26
  -4   1   3   28.27    1.94
  -4   1   3   26.24    2.23
  -4   1   3   26.16    2.13
   4   1  -3   27.12    2.25
   4   1  -3   29.68    1.87
   3  -1  -3  134.82    7.81
   3  -1  -3  142.12    7.86
  -3  -1   3  116.38    7.61
   3  -1  -3  128.60    7.58
  -3  -1   3  148.36    7.79
  -3  -1   3  121.75    7.85
  -3  -1   3  138.79    7.84
   3  -1  -3  128.68    7.84
   3   1  -3  128.67    7.77
   3   1  -3  133.45    8.28
   3   1  -3  138.59    7.57
  -3   1   3  136.33    7.75
   3   1  -3  134.26    7.85
  -3   1   3  136.10    8.28
   3   1  -3  142.20    7.86
  -3   1   3  138.76    7.85
  -3   1   3  125.14    7.82
  -3   1   3  137.76    7.63
  -3   1   3  116.79    7.83
  -2  -1   3  532.37   29.80
   2  -1  -3  547.77   29.80
   2  -1  -3  582.10   29.77
  -2  -1   3  490.84   29.57
  -2  -1   3  535.09   29.77
  -2  -1   3  489.30   30.73
   2  -1  -3  488.14   30.72
   2   1  -3  521.84   29.75
   2   1  -3  509.72   32.25
  -2   1   3  553.81   29.78
  -2   1   3  526.92   30.72
   2   1  -3  508.86   30.73
   2   1  -3  505.25   30.73
   2   1  -3  535.71   29.55
  -2   1   3  547.80   32.07
  -2   1   3  555.23   29.58
   2   1  -3  530.42   29.79
  -1  -1   3    5.04    0.51
   1  -1  -3    6.97    0.82
  -1  -1   3    6.45    0.70
   1  -1  -3    6.57    0.74
  -1  -1   3    4.45    0.81
   1  -1  -3    5.47    0.51
  -1   1   3    5.55    0.83
   1   1  -3    5.45    0.69
   1   1  -3    6.11    0.58
   1   1  -3    6.02    0.60
   1   1  -3    5.11    0.76
  -1   1   3    6.02    0.64
  -1   1   3    5.79    0.75
  -1   1   3    4.96    0.52
   0  -1  -3  782.56   41.30
   0  -1   3  689.13   42.71
   0  -1   3  764.06   41.27
   0  -1   3  777.46   41.31
   0  -1  -3  646.16   42.70
   0  -1  -3  760.11   41.28
   0   1   3  750.04   44.52
   0   1  -3  744.07   41.06
   0   1   3  739.90   41.07
   0   1  -3  741.32   41.27
   0   1  -3  715.78   44.80
   0   1  -3  729.16   42.89
   0   1   3  715.09   41.28
   0   1   3  711.73   42.71
  -1  -1  -3   83.14    5.23
  -1  -1  -3   86.81    5.07
   1  -1   3   79.28    5.07
   1  -1   3   82.64    5.23
   1  -1   3   90.33    5.27
   1  -1   3   89.71    5.27
  -1  -1  -3   95.84    5.32
  -1  -1  -3   95.35    5.35
   1   1   3   76.34    5.23
  -1   1  -3   93.86    5.28
   1   1   3   90.76    5.26
   1   1   3   87.77    5.08
  -1   1  -3   84.88    5.22
   1   1   3   89.11    5.26
   1   1   3   82.64    5.23
  -1   1  -3   89.12    5.06
  -1   1  -3   93.27    5.54
   1   1   3   93.05    5.51
   1   1   3   88.11    5.37
  -2  -1  -3   34.55    2.36
   2  -1   3   30.67    2.20
   2  -1   3   29.90    2.14
   2  -1   3   28.75    1.91
   2  -1   3   27.46    1.89
  -2  -1  -3   25.38    1.92
  -2  -1  -3   26.40    1.89
  -2  -1  -3   29.33    2.34
   2   1   3   32.68    2.17
   2   1   3   28.31    1.90
   2   1   3   32.54    2.19
  -2   1  -3   25.52    1.85
  -2   1  -3   27.61    2.20
   2   1   3   27.56    2.02
  -2   1  -3   28.79    1.90
  -2   1  -3   30.65    1.94
  -2   1  -3   29.14    2.26
  -2   1  -3   33.07    2.27
   2   1   3   29.52    1.93
  -3  -1  -3    6.58    0.83
   3  -1   3    4.16    1.01
  -3  -1  -3    4.82    0.58
  -3  -1  -3    5.64    0.92
  -3  -1  -3    4.66    1.25
   3  -1   3    5.17    0.83
   3  -1   3    4.07    0.63
   3  -1   3    4.31    0.70
  -3   1  -3    5.74    0.98
   3   1   3    4.82    1.01
   3   1   3    5.13    0.80
   3   1   3    5.45    0.76
  -3   1  -3    5.43    1.02
   3   1   3    6.06    0.60
  -3   1  -3    6.29    0.97
  -3   1  -3    5.08    0.66
  -3   1  -3    5.33    0.67
   3   1   3    5.65    0.75
   4  -1   3    0.61    0.51
  -4  -1  -3   -0.04    0.48
  -4  -1  -3   -0.17    0.51
  -4  -1  -3    0.80    0.73
   4  -1   3    1.08    0.89
   4  -1   3    0.87    0.58
  -4  -1  -3    0.89    0.41
   4  -1   3   -0.38    0.58
  -4  -1  -3   -0.32    0.82
  -4   1  -3    0.85    0.71
  -4   1  -3    1.09    0.55
  -4   1  -3    1.19    1.17
   4   1   3    1.04    0.60
   4   1   3    1.20    0.54
  -4   1  -3    0.87    0.63
  -4   1  -3    0.21    0.77
   4   1   3    0.85    0.47
   4   1   3    0.73    0.44
   4   1   3    1.02    0.66
   5  -1   3   14.67    1.67
  -5  -1  -3   16.28    1.51
  -5  -1  -3   19.73    2.12
  -5  -1  -3   15.72    1.61
  -5  -1  -3   14.68    1.33
   5  -1   3   14.70    1.38
   5  -1   3   13.63    1.09
  -5  -1  -3   14.17    1.28
   5  -1   3   16.10    1.73
   5   1   3   17.24    1.33
   5   1   3   15.75    1.73
  -5   1  -3   16.34    1.36
  -5   1  -3   16.61    1.65
  -5   1  -3   17.31    1.99
   5   1   3   16.81    1.46
   5   1   3   16.96    1.38
  -5   1  -3   15.73    1.64
   5   1   3   13.82    1.48
  -5   1  -3   14.87    1.49
  -6  -1  -3   51.89    4.01
   6  -1   3   51.53    3.97
   6   1   3   47.03    3.85
   6   1   3   59.48    3.61
   6   1   3   59.31    3.58
   6   1   3   53.68    3.97
   6   1   3   54.63    3.57
  -6   1  -3   58.14    4.02
  -6   1  -3   58.33    3.61
  -7  -1  -3   -0.92    1.12
   7   1   3    0.62    0.70
   7   1   3   -0.33    0.58
   7   1   3    0.40    0.52
  -7   1  -3    0.80    0.64
  -7   1  -3    0.68    0.80
  -7   1  -3    0.77    0.80
   7   1   3    0.37    1.17
   8   1   3    4.13    0.95
  -8   1  -3    4.88    0.90
   8   1   3    4.84    0.74
  -8   1  -3    4.04    1.03
   8   1   3    3.78    0.69
  -8   1  -3    3.63    0.95
   9   1   3    6.43    1.05
  -9   1  -3    6.96    1.29
  -9   1  -3    7.69    1.10
   9   1   3    8.51    1.08
  -9   1  -3    6.95    0.61
 -10   1  -3    2.03    0.45
 -10   1  -3    1.90    1.14
 -10   1  -3    2.01    0.94
  10   1   3    1.82    0.35
 -11   1  -3   80.16    4.37
  11   1   3   78.86    4.35
  12   1   3   20.94    1.35
 -12   1  -3   21.27    1.81
 -12   1  -3   21.20    1.44
  13   1   3    2.12    0.44
 -13   1  -3    1.42    0.71
 -13   1  -3    1.53    0.39
 -13   1  -3    1.97    0.68
 -14  -1  -3    6.27    0.67
 -14   1  -3    7.30    0.60
 -14   1  -3    6.55    0.76
  14   1   3    5.80    0.53
 -15  -1  -3    2.75    0.45
 -15   1  -3    2.62    0.40
  15   1   3    3.33    0.45
 -15   1  -3    3.37    0.73
 -16  -1  -3    0.49    0.35
  16   1   3    0.52    0.23
 -16   1  -3    0.64    0.33
 -16   1  -3    0.15    0.59
 -17  -1  -3    0.26    0.27
  17  -1   3   -0.04    0.22
 -17   1  -3    0.53    0.33
 -17   1  -3    0.22    0.12
  17   1   3    0.49    0.19
 -17   1  -3    0.39    0.35
 -18   2   3    0.96    0.47
  18   2  -3    1.02    0.36
  17   2  -3    2.00    0.49
 -17   2   3    2.23    0.63
  16   2  -3    0.61    0.39
 -16   2   3    0.60    0.59
 -15   2   3    0.06    0.49
  15   2  -3   -0.12    0.37
  15   2  -3    0.35    0.37
 -14   2   3    5.27    0.55
  14   2  -3    3.98    0.50
  14   2  -3    3.91    0.55
 -14   2   3    4.90    0.65
  13   2  -3    6.86    0.79
 -13   2   3    9.31    0.83
 -13   2   3    8.29    2.05
  13   2  -3    6.55    1.47
 -13   2   3    7.63    0.90
  13   2  -3    8.98    0.76
 -12   2   3   46.83    3.13
 -12   2   3   45.83    3.82
  12   2  -3   55.55    3.98
 -12   2   3   50.37    2.80
  12   2  -3   50.63    3.09
  12   2  -3   54.59    2.78
 -12   2   3   37.82    3.51
 -12   2   3   52.32    4.42
 -11   2   3   30.65    2.76
  11   2  -3   24.25    2.16
 -11   2   3   26.61    2.54
 -11   2   3   26.32    1.84
  11   2  -3   27.16    2.43
  11   2  -3   26.88    1.57
  11   2  -3   27.30    1.78
 -11   2   3   24.21    1.70
 -11   2   3   27.29    1.56
  11   2  -3   28.59    2.51
 -11   2   3   24.75    2.26
  10   2  -3    1.10    0.88
 -10   2   3   -0.07    0.33
 -10   2   3   -0.61    0.72
 -10   2   3   -0.17    0.29
 -10   2   3    0.57    0.97
  10   2  -3   -0.49    0.38
  10   2  -3   -0.04    0.29
 -10   2   3   -0.65    0.45
  10   2  -3   -0.23    1.10
  10   2  -3   -0.21    0.61
 -10   2   3   -1.19    1.28
  -9   2   3    8.67    1.08
   9   2  -3    6.49    0.51
  -9   2   3    7.26    1.01
  -9   2   3    6.90    0.56
  -9   2   3    6.87    1.26
   9   2  -3    7.40    1.32
   9   2  -3    8.04    0.90
   9   2  -3    6.85    1.10
  -8   2   3   86.85    5.68
   8   2  -3   83.55    5.04
  -8   2   3   77.94    5.08
  -8   2   3   81.59    5.68
   8   2  -3   86.28    5.58
  -8   2   3   77.16    5.11
   8   2  -3   80.08    5.12
   7   2  -3    6.41    0.97
  -7   2   3    5.78    0.98
   7   2  -3    6.09    0.91
   7   2  -3    6.28    0.80
  -7   2   3    6.18    1.11
  -7   2   3    6.93    0.84
  -7   2   3    7.04    1.31
   7   2  -3    6.58    0.86
  -6  -2   3   14.44    1.76
  -6   2   3   18.81    1.45
   6   2  -3   20.14    1.58
   6   2  -3   20.87    1.67
  -6   2   3   17.57    1.88
   6   2  -3   18.32    1.56
  -6   2   3   18.75    1.61
  -6   2   3   20.51    1.85
  -6   2   3   18.51    1.94
   6   2  -3   14.92    1.80
  -5  -2   3    3.85    0.98
   5  -2  -3    4.16    0.99
  -5  -2   3    4.53    1.14
   5  -2  -3    4.80    1.12
  -5   2   3    4.90    0.80
  -5   2   3    4.44    1.05
  -5   2   3    5.60    0.65
  -5   2   3    3.50    0.78
  -5   2   3    4.35    0.42
   5   2  -3    5.82    0.68
   5   2  -3    4.84    0.75
   5   2  -3    5.15    0.74
  -5   2   3    6.00    1.11
  -5   2   3    5.25    0.96
   5   2  -3    3.85    1.05
   5   2  -3    3.72    0.93
   4  -2  -3    0.50    0.75
   4  -2  -3    2.17    0.88
  -4  -2   3    1.93    0.89
  -4  -2   3    0.61    0.73
  -4   2   3    0.51    0.33
   4   2  -3    0.14    0.77
   4   2  -3    1.10    0.60
   4   2  -3    0.89    0.55
   4   2  -3    0.48    0.72
  -4   2   3    0.42    0.39
  -4   2   3    0.58    0.57
  -4   2   3    0.35    0.31
  -4   2   3    0.49    0.52
  -4   2   3   -0.16    0.58
  -4   2   3    0.95    0.55
   4   2  -3    0.67    0.47
   4   2  -3    0.58    0.33
   4   2  -3    0.48    0.41
  -4   2   3    0.72    0.42
  -4   2   3   -0.25    0.72
   4   2  -3    0.86    0.81
   3  -2  -3   86.09    5.18
  -3  -2   3   83.44    5.23
   3  -2  -3   90.57    5.15
  -3  -2   3   89.16    5.16
   3   2  -3   88.16    5.09
  -3   2   3   99.34    5.74
   3   2  -3   81.27    5.16
  -3   2   3   84.30    5.08
  -3   2   3   78.52    5.15
  -3   2   3   78.70    4.90
  -3   2   3   84.90    5.16
   3   2  -3   84.60    5.19
   3   2  -3   78.22    5.08
   3   2  -3   82.68    5.49
   3   2  -3   90.21    5.23
  -3   2   3   75.81    5.06
  -3   2   3   87.56    5.08
   3   2  -3   85.40    5.56
   3   2  -3   92.20    4.95
   3   2  -3   76.70    4.95
  -3   2   3   92.21    4.96
  -3   2   3   86.56    5.52
   2  -2  -3    1.38    0.79
  -2  -2   3    0.27    0.63
  -2  -2   3    0.33    0.57
   2  -2  -3    0.06    0.54
   2   2  -3    1.31    0.74
  -2   2   3    0.75    0.39
   2   2  -3    1.32    0.60
  -2   2   3    1.40    0.58
  -2   2   3    0.73    0.56
  -2   2   3    0.72    0.37
  -2   2   3    0.85    0.71
  -2   2   3    0.55    0.47
   2   2  -3   -0.13    0.59
   2   2  -3    0.46    0.67
   2   2  -3    0.63    0.28
  -2   2   3    0.78    0.30
   2   2  -3    0.43    0.55
   2   2  -3    0.44    0.49
   2   2  -3    0.11    0.39
  -2   2   3    0.08    0.42
  -2   2   3    0.57    0.79
   2   2  -3    0.48    0.49
  -1  -2   3  114.98    6.70
  -1  -2   3  110.41    6.66
   1  -2  -3  119.18    6.72
   1  -2  -3  119.87    6.69
   1   2  -3  115.24    7.20
  -1   2   3  111.90    6.74
   1   2  -3  115.36    6.73
  -1   2   3  116.29    7.17
  -1   2   3  115.97    6.69
  -1   2   3  117.89    6.74
   1   2  -3  118.07    6.50
   1   2  -3  111.88    7.47
   1   2  -3  106.83    6.52
   1   2  -3  112.86    6.74
  -1   2   3  112.39    6.49
  -1   2   3  119.62    6.53
   1   2  -3  107.96    6.68
   1   2  -3  114.12    6.65
  -1   2   3  114.08    6.64
  -1   2   3  109.19    6.92
   0  -2   3   30.38    2.03
   0  -2  -3   31.63    2.04
   0  -2  -3   29.42    2.04
   0  -2   3   31.02    1.97
   0   2   3   28.90    1.79
   0   2  -3   30.53    2.00
   0   2  -3   25.90    1.84
   0   2  -3   26.71    1.82
   0   2  -3   29.91    1.81
   0   2  -3   27.36    2.15
   0   2   3   28.10    1.99
   0   2  -3   29.86    2.02
   0   2   3   31.14    1.84
   0   2   3   26.57    1.87
   0   2   3   28.77    1.84
   0   2  -3   28.98    1.85
   0   2   3   30.55    2.00
   0   2   3   31.61    1.84
   0   2   3   31.24    1.95
   0   2  -3   30.71    1.84
   0   2   3   30.46    2.19
   0   2  -3   31.92    2.32
   1  -2   3    1.40    0.59
  -1  -2  -3    1.21    0.71
  -1  -2  -3    0.24    0.82
   1  -2   3    1.48    0.60
   1   2   3    0.68    0.35
  -1   2  -3    1.22    0.64
   1   2   3    0.64    0.52
   1   2   3    0.76    0.73
  -1   2  -3    1.10    0.60
  -1   2  -3    1.15    0.41
  -1   2  -3    0.29    0.32
  -1   2  -3    1.32    0.85
  -1   2  -3    1.51    0.70
   1   2   3   -0.52    0.67
   1   2   3    1.27    0.37
  -1   2  -3    0.37    0.37
   1   2   3    0.27    0.55
  -1   2  -3    1.31    0.31
   1   2   3    0.89    0.65
   1   2   3    0.56    0.34
  -1   2  -3    1.12    0.43
   1   2   3    0.34    0.34
  -2  -2  -3    1.48    0.88
   2  -2   3   -0.43    0.63
   2  -2   3    0.34    0.74
  -2  -2  -3    0.27    0.94
   2   2   3    0.99    0.65
   2   2   3   -0.24    0.60
  -2   2  -3    0.39    0.43
   2   2   3    0.12    0.47
  -2   2  -3   -0.10    0.90
   2   2   3    0.00    0.47
   2   2   3    0.66    0.42
  -2   2  -3    0.71    0.87
  -2   2  -3    0.71    0.39
  -2   2  -3    0.34    0.48
   2   2   3    0.24    0.37
  -2   2  -3    0.72    0.31
  -2   2  -3    1.18    0.62
  -2   2  -3   -0.22    0.63
  -2   2  -3    0.67    0.37
   2   2   3    0.93    0.42
   2   2   3    0.47    0.57
   2   2   3   -0.15    0.75
  -3  -2  -3    2.44    1.10
   3  -2   3    4.15    0.84
   3  -2   3    4.07    0.92
  -3  -2  -3    4.00    1.02
   3   2   3    3.46    0.80
  -3   2  -3    4.53    0.58
  -3   2  -3    3.49    0.48
   3   2   3    4.57    0.66
   3   2   3    3.18    0.54
  -3   2  -3    2.79    0.57
   3   2   3    4.06    0.54
  -3   2  -3    3.94    0.68
   3   2   3    4.27    0.83
  -3   2  -3    4.37    1.07
  -3   2  -3    4.13    0.87
  -3   2  -3    2.29    0.99
   3   2   3    4.59    0.91
  -3   2  -3    4.16    0.68
   3   2   3    4.53    0.60
  -4  -2  -3    7.07    1.19
   4  -2   3    5.84    1.07
   4  -2   3    3.86    0.95
  -4  -2  -3    4.88    1.31
   4   2   3    5.73    0.89
   4   2   3    5.71    0.72
  -4   2  -3    4.96    1.24
   4   2   3    6.31    0.79
  -4   2  -3    6.32    0.82
   4   2   3    3.78    0.99
  -4   2  -3    5.30    0.70
  -4   2  -3    6.62    1.14
  -4   2  -3    5.67    1.01
  -5  -2  -3  101.04    6.79
   5   2   3  112.12    6.78
   5   2   3  113.58    6.65
  -5   2  -3  109.97    6.65
   5   2   3   99.90    6.78
   5   2   3  113.63    6.48
  -5   2  -3  112.65    7.44
  -6   2  -3    0.43    0.93
   6   2   3    0.69    0.56
  -6   2  -3    0.17    0.56
  -6   2  -3    0.93    0.72
   6   2   3   -0.20    0.64
   6   2   3    0.23    0.69
  -7   2  -3   68.34    4.85
  -7   2  -3   68.71    4.31
   7   2   3   68.52    4.33
   7   2   3   64.75    4.41
   7   2   3   69.60    4.29
  -7   2  -3   65.85    4.33
  -8   2  -3   31.37    2.52
   8   2   3   35.16    2.39
  -8   2  -3   32.18    2.40
   8   2   3   28.03    1.76
  -8   2  -3   32.88    2.85
   8   2   3   36.44    2.46
   8   2   3   31.12    2.38
  -8   2  -3   30.35    1.79
   9   2   3    0.50    0.29
  -9   2  -3    0.50    0.67
  -9   2  -3    0.64    0.38
   9   2   3    0.37    0.38
  -9   2  -3    0.73    0.76
   9   2   3    0.69    0.71
  -9   2  -3    0.90    0.36
   9   2   3    0.99    0.70
  -9   2  -3    0.64    0.43
   9   2   3    0.29    0.85
  -9   2  -3   -0.50    1.00
 -10   2  -3    7.86    1.50
 -10   2  -3    9.42    0.79
 -10   2  -3    9.24    0.89
 -10   2  -3    9.98    0.81
 -10   2  -3    7.28    1.24
  10   2   3    9.45    1.16
  10   2   3    9.18    1.40
  10   2   3    8.35    0.77
 -10   2  -3    7.80    1.50
  10   2   3    8.56    0.70
 -11   2  -3    1.19    0.67
 -11   2  -3   -0.29    0.87
 -11   2  -3    2.47    1.64
 -11   2  -3    1.55    0.42
  11   2   3    0.40    0.25
  11   2   3    0.92    0.34
 -11   2  -3    0.27    1.22
 -11   2  -3    0.75    0.59
 -12   2  -3   21.99    1.77
 -12   2  -3   23.90    1.91
  12   2   3   22.44    1.67
 -12   2  -3   16.78    2.70
 -12   2  -3   25.45    1.50
  12   2   3   24.19    1.46
  12   2   3   25.04    1.81
  13   2   3    1.47    0.40
  13   2   3    1.99    0.56
 -13   2  -3    2.40    0.54
 -13   2  -3    2.46    0.46
 -13   2  -3    2.93    0.76
  13   2   3    1.95    0.40
 -14   2  -3    6.74    0.58
  14   2   3    5.88    0.65
 -14   2  -3    7.40    0.82
  14   2   3    7.71    0.68
 -14   2  -3    6.48    0.87
  15   2   3    2.96    0.37
 -15   2  -3    1.00    0.65
 -15   2  -3    2.67    0.31
  15   2   3    2.92    0.57
 -16   2  -3   -0.28    0.54
  16   2   3    0.66    0.45
 -16   2  -3    0.88    0.46
  16   2   3    0.94    0.25
 -17   2  -3    0.94    0.39
 -17   2  -3    0.62    0.35
  17   2   3    0.41    0.27
  17   2   3    0.82    0.32
 -17   3   3    3.39    0.84
  17   3  -3    4.76    0.55
  16   3  -3    6.67    0.69
 -16   3   3    5.02    0.80
 -15   3   3    9.52    1.17
 -15   3   3    8.93    0.91
  15   3  -3    8.41    0.95
 -15   3   3    8.51    0.89
  15   3  -3   10.68    0.98
 -14   3   3   20.34    1.87
 -14   3   3   18.38    1.46
 -14   3   3   15.40    1.28
  14   3  -3   19.65    1.41
  13   3  -3   33.89    2.20
 -13   3   3   33.95    2.23
  13   3  -3   33.48    1.96
 -13   3   3   36.59    2.60
 -13   3   3   35.65    2.20
  12   3  -3    4.12    1.68
  12   3  -3    3.26    0.55
  12   3  -3    2.47    1.19
 -12   3   3    3.63    0.43
 -12   3   3    3.66    0.66
  12   3  -3    3.18    0.49
 -12   3   3    1.40    1.81
 -12   3   3    2.59    0.90
 -12   3   3    3.44    0.64
  12   3  -3    4.22    0.42
 -11   3   3    0.51    0.80
  11   3  -3    1.10    0.72
 -11   3   3    1.05    0.36
  11   3  -3    1.21    0.36
 -11   3   3    1.09    0.59
 -11   3   3    1.85    0.45
 -11   3   3    0.92    1.10
  11   3  -3    0.74    0.57
  11   3  -3    0.90    0.44
 -11   3   3   -0.26    1.62
  11   3  -3   -0.38    1.38
 -11   3   3    0.94    0.51
 -11   3   3    1.88    0.53
  11   3  -3    1.32    0.32
 -10   3   3   -0.70    0.92
 -10   3   3   -0.82    0.70
 -10   3   3    0.18    0.69
 -10   3   3    0.05    0.44
 -10   3   3    0.05    0.25
 -10   3   3    0.72    1.44
  10   3  -3    1.71    0.94
  10   3  -3    0.35    0.48
  10   3  -3   -0.07    0.39
  10   3  -3    0.13    1.24
  10   3  -3    0.33    0.26
 -10   3   3    0.01    0.31
 -10   3   3    1.39    0.54
  10   3  -3   -0.09    0.37
   9   3  -3   24.09    1.78
  -9   3   3   22.79    1.67
  -9   3   3   20.86    1.46
   9   3  -3   23.93    1.54
  -9   3   3   20.77    1.82
   9   3  -3   25.12    2.53
  -9   3   3   23.00    1.91
   9   3  -3   22.42    1.32
   9   3  -3   20.85    1.41
  -9   3   3   25.63    2.13
  -9   3   3   25.39    1.93
   9   3  -3   23.80    2.04
  -9   3   3   24.52    1.57
  -9   3   3   25.07    2.45
  -9   3   3   28.07    2.77
  -9   3   3   22.82    1.32
  -8   3   3    0.51    0.27
  -8   3   3    1.08    0.45
  -8   3   3    0.62    0.93
   8   3  -3    0.51    0.73
   8   3  -3    1.31    0.70
   8   3  -3    0.53    0.43
   8   3  -3    1.48    1.12
  -8   3   3    1.53    1.25
   8   3  -3    0.90    0.35
   8   3  -3    0.98    0.24
  -8   3   3    0.82    0.96
  -8   3   3    0.54    0.26
  -8   3   3    0.66    0.37
  -8   3   3    1.17    0.62
   7   3  -3    0.73    0.66
  -7   3   3    0.23    0.50
  -7   3   3    0.67    0.88
  -7   3   3   -0.11    0.65
   7   3  -3   -1.02    0.45
  -7   3   3   -0.52    1.03
   7   3  -3    0.01    0.94
   7   3  -3   -0.26    0.62
  -6   3   3    1.74    0.93
   6   3  -3    2.84    0.66
  -6   3   3    1.62    0.49
   6   3  -3    1.59    0.68
  -6   3   3    1.85    0.80
  -6   3   3    2.03    0.65
   6   3  -3    2.26    0.54
   6   3  -3    3.25    1.05
  -5   3   3   23.11    2.13
  -5   3   3   22.00    1.58
   5   3  -3   22.59    1.84
  -5   3   3   17.56    2.10
   5   3  -3   26.33    1.64
   5   3  -3   24.51    1.69
   5   3  -3   22.98    2.10
  -5   3   3   23.56    1.75
  -4  -3   3   15.92    1.65
   4  -3  -3   17.62    1.52
  -4   3   3   17.52    1.56
  -4   3   3   15.86    1.23
   4   3  -3   18.88    1.30
   4   3  -3   20.94    1.60
  -4   3   3   17.98    1.27
   4   3  -3   19.87    1.82
  -4   3   3   15.81    1.25
   4   3  -3   19.17    1.36
  -4   3   3   22.95    1.89
  -4   3   3   18.77    1.89
  -4   3   3   19.64    1.41
   4   3  -3   17.02    1.63
  -4   3   3   21.00    1.28
  -4   3   3   18.02    1.43
  -3  -3   3   16.41    1.64
   3  -3  -3   18.43    1.48
   3  -3  -3   17.72    1.51
  -3  -3   3   18.55    1.46
  -3   3   3   16.83    1.32
   3   3  -3   19.13    1.42
  -3   3   3   18.28    1.21
   3   3  -3   15.89    1.39
   3   3  -3   18.98    1.33
  -3   3   3   16.87    1.35
  -3   3   3   20.39    1.21
   3   3  -3   16.08    1.48
   3   3  -3   16.57    1.24
   3   3  -3   16.49    1.54
  -3   3   3   18.77    1.28
   3   3  -3   18.12    1.23
  -3   3   3   19.62    1.76
  -3   3   3   19.75    1.83
   3   3  -3   19.54    1.24
  -3   3   3   17.46    1.20
  -3   3   3   16.85    1.47
   3   3  -3   17.98    1.74
  -2  -3   3   12.32    1.23
   2  -3  -3   12.86    1.14
   2  -3  -3   12.60    1.12
  -2  -3   3   12.59    1.07
  -2   3   3   13.15    0.88
  -2   3   3   11.69    0.98
   2   3  -3   10.48    0.95
  -2   3   3   12.61    1.17
   2   3  -3   11.89    0.89
  -2   3   3   14.40    1.45
   2   3  -3   13.39    1.26
  -2   3   3   11.67    1.10
   2   3  -3   12.33    0.91
   2   3  -3   12.13    1.11
   2   3  -3   12.03    1.18
  -2   3   3   13.99    1.42
   2   3  -3   13.06    1.34
   2   3  -3   12.26    1.23
  -2   3   3   13.60    0.88
  -2   3   3   13.00    0.97
  -2   3   3   12.13    0.86
   2   3  -3   12.80    0.95
  -1  -3   3    4.14    0.65
   1  -3  -3    3.80    0.60
   1  -3  -3    3.72    0.57
  -1  -3   3    2.87    0.54
   1   3  -3    4.20    0.68
   1   3  -3    4.65    0.46
   1   3  -3    4.35    0.41
  -1   3   3    4.75    0.44
  -1   3   3    2.88    0.70
   1   3  -3    3.75    0.84
  -1   3   3    4.15    0.55
  -1   3   3    3.79    0.45
  -1   3   3    4.50    0.45
  -1   3   3    4.08    0.50
   1   3  -3    4.06    0.46
  -1   3   3    4.48    0.93
   1   3  -3    2.62    0.57
  -1   3   3    4.05    0.41
   1   3  -3    5.32    0.90
   1   3  -3    4.31    0.41
   1   3  -3    3.68    0.63
  -1   3   3    3.84    0.49
   0  -3  -3   21.43    1.61
   0  -3   3   20.08    1.48
   0  -3   3   19.99    1.47
   0  -3  -3   20.70    1.56
   0   3   3   19.20    1.48
   0   3  -3   17.30    1.44
   0   3  -3   21.92    1.38
   0   3  -3   24.07    1.39
   0   3   3   21.65    1.34
   0   3  -3   21.14    1.36
   0   3   3   22.12    1.49
   0   3   3   23.52    1.36
   0   3   3   21.02    1.85
   0   3  -3   20.51    1.94
   0   3  -3   21.59    1.54
   0   3   3   21.90    1.38
   0   3   3   23.30    1.38
   0   3  -3   23.26    1.37
   0   3  -3   19.94    1.51
   0   3  -3   20.65    1.85
   0   3   3   22.01    1.48
   0   3   3   22.79    1.77
   1  -3   3   10.91    1.02
   1  -3   3   13.05    1.04
  -1  -3  -3   13.76    1.24
  -1  -3  -3   11.53    1.14
  -1   3  -3   10.99    1.06
  -1   3  -3   11.38    1.23
  -1   3  -3   10.62    0.95
  -1   3  -3   12.81    0.91
   1   3   3   13.33    0.92
   1   3   3   12.45    1.32
   1   3   3   11.96    1.20
   1   3   3   12.17    0.86
   1   3   3   11.59    1.03
  -1   3  -3   11.92    0.83
   1   3   3   10.62    1.07
  -1   3  -3   12.28    0.94
   1   3   3   11.31    0.85
  -1   3  -3   10.38    0.81
   1   3   3   10.96    0.98
  -1   3  -3   12.67    1.43
  -1   3  -3   12.49    1.19
   1   3   3   11.47    0.87
   2  -3   3   10.89    1.12
  -2  -3  -3    9.52    1.29
   2  -3   3   10.99    1.07
  -2  -3  -3   10.40    1.18
  -2   3  -3   11.10    1.21
   2   3   3   10.38    1.07
   2   3   3   11.17    0.89
   2   3   3   14.32    1.25
  -2   3  -3   10.60    0.86
   2   3   3   12.22    0.88
  -2   3  -3   13.04    0.96
   2   3   3   11.19    1.15
   2   3   3   11.75    1.12
  -2   3  -3   13.09    1.20
  -2   3  -3   11.03    1.04
   2   3   3   12.51    0.92
   2   3   3   12.61    1.02
  -2   3  -3   11.42    1.11
  -2   3  -3   12.44    0.98
   2   3   3   11.35    1.23
  -2   3  -3   12.41    0.90
  -2   3  -3   14.26    1.51
   3  -3   3   13.49    1.27
  -3   3  -3   13.44    1.39
   3   3   3   11.52    1.24
   3   3   3    9.50    1.15
  -3   3  -3   10.00    0.94
  -3   3  -3   11.18    1.37
  -3   3  -3    9.73    0.89
  -3   3  -3   11.50    1.12
  -3   3  -3   12.89    1.08
   3   3   3    9.95    0.87
   3   3   3   11.90    1.03
   3   3   3   11.91    1.10
   3   3   3   13.15    1.22
  -3   3  -3   13.43    1.56
   3   3   3    9.41    0.97
  -3   3  -3   10.43    1.14
  -3   3  -3   12.35    0.96
   3   3   3   11.97    1.09
  -4   3  -3   66.91    4.67
  -4   3  -3   67.29    3.92
   4   3   3   63.21    3.84
   4   3   3   65.83    3.94
   4   3   3   62.43    4.20
  -4   3  -3   55.44    4.17
  -4   3  -3   63.38    3.84
   4   3   3   62.61    4.22
   5   3   3   18.55    1.50
  -5   3  -3   18.26    1.48
  -5   3  -3   17.87    1.97
  -5   3  -3   18.80    1.43
  -5   3  -3   19.01    1.70
   5   3   3   16.23    1.65
   5   3   3   19.29    1.73
   5   3   3   16.89    1.42
  -6   3  -3   19.62    2.00
  -6   3  -3   21.39    1.77
   6   3   3   22.63    1.71
   6   3   3   21.39    1.97
  -6   3  -3   24.84    1.74
  -6   3  -3   20.22    2.10
   6   3   3   20.74    1.74
   6   3   3   23.23    2.08
  -7   3  -3    1.49    0.29
   7   3   3    1.61    0.35
   7   3   3    1.69    0.25
   7   3   3    0.93    0.84
  -7   3  -3    1.54    0.65
   7   3   3    1.78    0.70
   7   3   3    1.79    0.75
  -7   3  -3    2.12    0.37
  -7   3  -3    1.80    1.02
  -7   3  -3    2.01    0.48
  -7   3  -3    1.60    0.80
   7   3   3    2.12    1.01
  -7   3  -3    2.26    1.19
  -7   3  -3    1.52    0.39
  -8   3  -3    0.67    0.46
  -8   3  -3    0.92    0.26
   8   3   3    0.80    0.83
  -8   3  -3    2.51    1.27
  -8   3  -3    0.28    0.84
  -8   3  -3    1.54    0.43
   8   3   3    1.16    0.81
   8   3   3    0.61    0.36
  -8   3  -3    1.76    0.48
   8   3   3    1.69    0.71
  -8   3  -3    0.82    0.63
  -8   3  -3   -0.71    1.11
  -8   3  -3    1.32    0.72
  -8   3  -3    1.10    0.33
   8   3   3    0.87    0.47
   8   3   3    0.95    0.25
   8   3   3   -0.06    1.00
  -9   3  -3   58.80    4.14
   9   3   3   57.48    3.14
   9   3   3   57.90    3.90
   9   3   3   56.62    3.91
  -9   3  -3   53.90    3.90
   9   3   3   59.05    4.45
   9   3   3   56.88    3.48
   9   3   3   55.81    4.01
  -9   3  -3   57.12    3.14
   9   3   3   51.29    3.23
  -9   3  -3   57.48    4.63
  -9   3  -3   59.23    3.28
  -9   3  -3   60.50    3.52
  -9   3  -3   59.35    4.53
   9   3   3   63.14    3.94
  10   3   3    1.09    0.99
  10   3   3    0.37    0.42
 -10   3  -3   -0.19    0.65
  10   3   3    0.09    0.27
  10   3   3   -0.72    0.29
  10   3   3    0.10    0.75
 -10   3  -3    0.84    1.06
 -10   3  -3    0.33    0.29
 -10   3  -3   -0.50    1.26
 -10   3  -3    0.00    0.50
 -10   3  -3    1.06    0.86
 -10   3  -3    0.42    0.49
 -10   3  -3    1.02    1.05
  10   3   3    1.16    1.33
  10   3   3    0.57    0.37
  11   3   3   -0.56    1.06
 -11   3  -3    1.00    0.74
 -11   3  -3    0.42    0.35
 -11   3  -3    0.13    0.54
 -11   3  -3    1.22    0.55
  11   3   3   -0.24    1.05
  11   3   3    0.62    0.46
  11   3   3    1.00    0.54
  11   3   3    0.78    0.29
  11   3   3    1.14    0.50
 -12   3  -3    1.63    0.46
 -12   3  -3    2.22    0.63
 -12   3  -3    2.30    0.34
 -12   3  -3    1.93    0.60
  12   3   3    1.78    0.34
  12   3   3    1.52    0.57
  12   3   3    1.79    0.51
 -13   3  -3    0.46    0.53
 -13   3  -3   -0.08    0.14
 -13   3  -3    0.16    0.57
  13   3   3    0.46    0.53
  13   3   3    0.25    0.35
 -13   3  -3    0.38    0.53
 -13   3  -3    0.06    0.62
  13   3   3    0.17    0.26
 -14   3  -3   11.77    1.38
  14   3   3   13.14    0.84
 -14   3  -3   13.76    1.26
 -14   3  -3   13.04    1.04
  14   3   3   15.77    1.13
 -14   3  -3   10.50    1.21
 -15   3  -3    4.62    0.66
  15   3   3    5.52    0.60
 -15   3  -3    6.49    0.74
  15   3   3    7.00    0.63
 -15   3  -3    5.65    0.57
 -15   3  -3    4.66    0.79
  16   3   3    0.14    0.34
 -16   3  -3    0.23    0.26
  16   3   3   -0.02    0.37
 -16   3  -3    1.40    0.50
 -16   3  -3    0.97    0.38
  17   4  -3   18.67    1.28
  16   4  -3    0.86    0.42
 -16   4   3    1.08    0.59
 -15   4   3    0.83    0.58
  15   4  -3   -0.15    0.44
 -15   4   3    0.29    0.61
  14   4  -3   16.88    1.28
 -14   4   3   19.48    1.63
  14   4  -3   16.61    1.36
 -14   4   3   15.86    1.37
  14   4  -3   17.51    1.28
  13   4  -3   12.42    1.12
 -13   4   3   12.50    1.22
  13   4  -3   10.99    0.90
 -13   4   3   10.26    0.97
  13   4  -3   10.23    0.89
 -13   4   3   11.79    1.02
  12   4  -3   24.47    1.62
 -12   4   3   20.47    1.83
  12   4  -3   22.17    1.54
 -12   4   3   22.93    2.16
 -12   4   3   26.03    1.62
 -12   4   3   22.82    1.59
  12   4  -3   23.55    1.73
 -11   4   3    1.90    0.54
  11   4  -3    1.73    0.37
  11   4  -3   -1.39    1.52
 -11   4   3    2.14    0.69
  11   4  -3    2.70    0.76
  11   4  -3    2.08    0.47
 -11   4   3   -0.44    1.78
 -11   4   3    1.31    0.53
 -11   4   3    1.54    0.48
 -10   4   3    1.82    0.85
  10   4  -3    1.33    1.51
 -10   4   3    1.63    1.10
  10   4  -3    1.75    0.49
 -10   4   3    1.60    0.51
 -10   4   3    0.21    1.75
 -10   4   3    0.82    0.60
 -10   4   3    1.61    0.49
 -10   4   3    0.76    0.53
  10   4  -3    0.31    0.65
 -10   4   3    0.77    0.42
  10   4  -3   -0.70    0.86
  10   4  -3    0.95    0.42
  10   4  -3    1.57    0.44
  10   4  -3    1.66    0.73
   9   4  -3    0.08    0.35
   9   4  -3    0.15    1.36
   9   4  -3    0.72    0.38
  -9   4   3    0.45    0.58
   9   4  -3   -0.19    0.18
  -9   4   3   -0.27    0.92
   9   4  -3   -1.01    0.70
  -9   4   3    0.21    0.52
   9   4  -3    0.26    0.43
  -9   4   3   -0.21    0.34
  -9   4   3   -0.30    0.40
  -9   4   3    0.45    0.60
   9   4  -3   -0.39    0.60
  -9   4   3   -0.04    0.50
  -9   4   3   -1.59    1.45
   9   4  -3   -0.11    0.27
   9   4  -3    0.08    0.44
  -8   4   3    1.10    0.66
   8   4  -3   -1.53    1.14
   8   4  -3    0.14    0.55
  -8   4   3    0.57    0.37
  -8   4   3   -0.28    0.60
   8   4  -3    0.32    0.15
   8   4  -3    0.96    0.72
   8   4  -3    0.31    0.29
  -8   4   3    0.07    1.04
   8   4  -3    0.63    0.33
  -8   4   3   -0.15    0.37
  -8   4   3   -0.57    0.75
   8   4  -3    0.16    0.31
  -8   4   3   -0.05    0.56
  -8   4   3    0.55    0.37
   8   4  -3    0.38    0.42
   8   4  -3   -0.38    0.51
  -8   4   3    1.39    1.43
  -7   4   3   -0.73    0.58
   7   4  -3    0.39    0.42
   7   4  -3    0.19    0.28
  -7   4   3    0.44    1.20
   7   4  -3    0.04    0.40
  -7   4   3    1.12    0.56
   7   4  -3    0.04    0.76
  -7   4   3    0.14    0.54
  -7   4   3   -0.40    0.31
  -7   4   3   -0.32    0.43
   7   4  -3    0.10    0.29
   7   4  -3    0.26    0.50
   7   4  -3    0.16    0.72
  -7   4   3   -0.26    0.49
   7   4  -3    0.38    0.76
  -7   4   3    0.23    0.27
  -7   4   3   -0.07    1.01
   7   4  -3   -0.46    0.49
  -6   4   3    8.80    0.94
   6   4  -3    7.45    1.09
  -6   4   3    9.35    0.68
   6   4  -3    9.12    0.95
  -6   4   3    9.96    0.83
  -6   4   3    9.70    0.70
   6   4  -3   10.91    0.98
  -6   4   3    9.63    1.10
  -6   4   3   10.89    0.96
   6   4  -3   12.21    1.59
  -6   4   3    8.07    0.94
   6   4  -3    9.06    0.70
  -6   4   3    9.95    1.47
   6   4  -3   11.17    0.98
  -6   4   3   12.58    1.70
   6   4  -3    8.50    0.69
  -6   4   3    9.91    1.00
   5   4  -3   22.53    2.20
   5   4  -3   25.35    1.66
   5   4  -3   24.11    1.69
  -5   4   3   21.97    1.53
   5   4  -3   24.18    1.95
  -5   4   3   24.92    1.62
  -5   4   3   24.25    2.13
  -5   4   3   24.05    1.58
  -5   4   3   20.79    1.54
  -5   4   3   26.37    2.39
  -4   4   3    8.30    0.70
   4   4  -3    7.68    1.28
  -4   4   3    9.64    0.68
   4   4  -3    9.36    0.80
   4   4  -3    8.31    1.04
  -4   4   3    9.13    1.30
   4   4  -3    8.25    0.76
  -4   4   3    8.15    0.71
   4   4  -3    8.68    0.71
  -4   4   3    8.46    0.65
  -4   4   3   10.07    1.39
   4   4  -3    6.54    0.72
   3   4  -3    2.68    0.36
   3   4  -3    2.39    0.34
   3   4  -3    4.74    1.03
  -3   4   3    2.97    0.94
  -3   4   3    1.77    0.54
   3   4  -3    2.38    0.40
  -3   4   3    3.44    1.02
   3   4  -3    2.56    0.40
   3   4  -3    2.54    0.73
   2   4  -3   39.93    2.18
   2   4  -3   37.37    2.83
   2   4  -3   39.72    2.88
   2   4  -3   40.25    2.66
  -2   4   3   38.03    2.60
   2   4  -3   38.17    2.18
   2   4  -3   32.30    2.26
  -2   4   3   39.46    2.91
   2   4  -3   38.88    2.24
  -2   4   3   39.39    2.95
   2   4  -3   35.52    2.24
   1   4  -3    8.65    0.98
  -1   4   3    7.99    1.21
   1   4  -3    9.96    1.18
   1   4  -3    8.62    1.21
  -1   4   3    8.31    0.85
  -1   4   3    9.93    1.04
   0   4   3    1.40    0.54
   0   4  -3    2.05    0.89
   0   4   3    0.88    0.64
   0   4   3    1.22    0.38
   0   4  -3    0.96    0.82
  -1   4  -3   14.50    1.50
   1   4   3   13.07    1.41
  -1   4  -3   15.21    1.67
   1   4   3   13.34    1.14
   1   4   3   15.56    1.38
   2   4   3    0.27    0.44
   2   4   3    0.19    0.38
   2   4   3    0.58    0.61
   2   4   3   -0.23    0.21
   2   4   3    0.26    0.77
   2   4   3    0.01    0.29
  -2   4  -3    1.56    0.82
   2   4   3   -0.06    0.26
  -2   4  -3    0.28    0.97
   2   4   3    0.68    0.29
  -3   4  -3  112.85    7.53
  -3   4  -3  111.08    6.18
  -3   4  -3  109.02    6.18
   3   4   3  102.72    6.91
   3   4   3  116.43    6.24
   3   4   3  108.44    6.87
  -3   4  -3  103.37    6.38
  -3   4  -3  116.59    7.06
  -3   4  -3  116.24    6.39
   3   4   3  106.49    6.45
   3   4   3  100.51    6.21
   3   4   3   98.51    6.43
  -4   4  -3    2.86    0.54
  -4   4  -3    4.19    1.24
  -4   4  -3    2.64    0.39
  -4   4  -3    3.13    0.49
   4   4   3    3.39    0.95
   4   4   3    4.25    0.61
  -4   4  -3    3.63    0.46
   4   4   3    2.83    0.53
   4   4   3    3.63    0.79
  -5   4  -3   25.86    1.61
  -5   4  -3   26.92    1.70
  -5   4  -3   25.89    1.81
  -5   4  -3   24.84    1.96
   5   4   3   23.89    1.82
   5   4   3   24.48    1.81
  -5   4  -3   23.17    1.43
  -5   4  -3   23.16    1.51
   5   4   3   26.85    1.77
  -5   4  -3   25.96    1.79
   5   4   3   23.26    2.20
  -5   4  -3   22.52    1.80
   5   4   3   23.21    1.51
  -5   4  -3   22.99    2.61
   5   4   3   24.11    1.43
   5   4   3   23.71    2.04
  -6   4  -3   13.61    0.93
  -6   4  -3   14.41    1.29
  -6   4  -3   14.53    1.17
   6   4   3   11.76    1.53
   6   4   3   15.91    1.30
   6   4   3   13.36    0.92
   6   4   3   13.53    0.95
   6   4   3    9.97    1.11
  -6   4  -3   13.55    1.26
   6   4   3   15.76    1.36
  -6   4  -3   14.07    0.99
   6   4   3   13.82    1.24
   6   4   3   13.61    1.60
  -6   4  -3   16.74    1.90
   6   4   3   14.17    1.12
  -6   4  -3   14.14    1.33
  -6   4  -3   15.03    1.17
   6   4   3   11.56    1.18
  -7   4  -3    8.08    1.04
   7   4   3    9.37    0.75
   7   4   3    8.65    0.52
  -7   4  -3    7.29    0.89
  -7   4  -3    8.40    0.76
   7   4   3    8.79    1.43
   7   4   3    8.36    0.88
   7   4   3    6.83    1.31
   7   4   3    8.76    0.94
   7   4   3   10.42    1.23
   7   4   3    8.85    0.86
  -7   4  -3    9.57    0.75
  -7   4  -3    8.80    1.04
   7   4   3    9.04    0.88
   7   4   3   10.17    1.07
  -7   4  -3    8.57    0.92
  -7   4  -3    9.36    0.98
  -7   4  -3    6.22    1.63
  -7   4  -3   10.92    0.95
  -8   4  -3    0.81    0.72
  -8   4  -3    0.65    0.90
   8   4   3   -0.08    0.39
  -8   4  -3    0.09    0.36
   8   4   3   -0.86    0.88
   8   4   3    1.43    0.81
   8   4   3    0.11    0.15
  -8   4  -3    0.64    0.35
  -8   4  -3    0.93    0.58
  -8   4  -3    0.02    0.66
   8   4   3    0.24    0.31
   8   4   3    0.51    0.33
   8   4   3    0.26    0.38
   8   4   3    0.61    0.41
   8   4   3    0.61    0.53
   8   4   3    1.20    0.69
  -8   4  -3    2.07    1.49
  -8   4  -3    0.37    0.29
   8   4   3    0.63    1.13
  -8   4  -3   -0.20    0.58
   9   4   3    7.11    0.84
   9   4   3    7.47    0.75
   9   4   3    7.22    0.47
  -9   4  -3    8.93    0.90
  -9   4  -3    7.32    1.01
  -9   4  -3    6.97    1.04
  -9   4  -3    5.92    0.78
  -9   4  -3    6.49    0.74
  -9   4  -3    7.18    0.69
   9   4   3    4.41    1.11
   9   4   3    6.89    1.28
  -9   4  -3    6.81    1.76
   9   4   3    6.81    0.64
   9   4   3    7.40    1.07
  -9   4  -3    7.01    0.67
   9   4   3    5.88    0.64
  -9   4  -3    8.30    1.32
  10   4   3   28.80    1.82
  10   4   3   30.39    1.89
 -10   4  -3   29.73    1.90
 -10   4  -3   31.96    2.48
 -10   4  -3   22.44    3.03
 -10   4  -3   28.76    1.85
  10   4   3   28.32    2.19
  10   4   3   27.43    2.44
 -10   4  -3   30.79    2.19
  10   4   3   29.14    1.60
  10   4   3   27.15    2.10
  11   4   3    7.86    0.49
 -11   4  -3    9.79    0.85
 -11   4  -3    7.77    1.11
  11   4   3    9.90    0.80
  11   4   3    8.15    0.85
 -11   4  -3    8.27    1.07
 -11   4  -3    9.53    0.90
  11   4   3    8.31    0.94
  11   4   3   10.37    0.87
  12   4   3    5.95    0.58
 -12   4  -3    5.63    0.92
 -12   4  -3    5.59    0.73
  12   4   3    6.46    0.82
 -12   4  -3    6.30    0.86
  12   4   3    5.31    0.76
 -12   4  -3    5.07    0.63
  12   4   3    4.95    0.55
 -13   4  -3    5.09    0.86
 -13   4  -3    5.53    0.73
  13   4   3    5.10    0.72
 -13   4  -3    5.11    0.57
  13   4   3    4.88    0.59
  13   4   3    6.05    0.78
 -13   4  -3    4.55    0.78
  13   4   3    5.58    0.65
  14   4   3    9.00    0.84
 -14   4  -3    7.78    0.93
 -14   4  -3   10.35    0.99
 -14   4  -3    9.05    0.76
  14   4   3    8.89    0.76
  14   4   3    8.89    0.71
  14   4   3    7.24    0.78
 -14   4  -3    9.20    0.73
 -15   4  -3    0.57    0.38
  15   4   3    0.77    0.37
  15   4   3    0.84    0.25
 -15   4  -3    0.91    0.19
  15   4   3    0.48    0.31
 -15   4  -3    1.30    0.46
  16   4   3    4.15    0.34
 -16   4  -3    4.20    0.41
  16   5  -3    0.13    0.35
 -15   5   3    0.94    0.81
  15   5  -3    2.28    0.50
  14   5  -3    0.54    0.48
 -14   5   3    0.45    0.63
  13   5  -3    2.06    0.57
  13   5  -3    2.85    0.52
 -13   5   3    2.52    0.59
 -13   5   3    3.12    0.77
 -13   5   3    1.81    0.55
  12   5  -3    3.52    0.47
 -12   5   3    4.51    0.63
 -12   5   3    2.89    0.86
 -12   5   3    4.34    1.10
  12   5  -3    4.16    0.47
  12   5  -3    4.67    0.69
 -11   5   3    2.03    0.54
 -11   5   3    2.20    0.65
  11   5  -3    3.14    0.62
  11   5  -3    2.37    0.43
 -11   5   3    3.14    0.79
  11   5  -3    2.34    0.59
 -11   5   3    3.02    0.66
  11   5  -3    2.93    0.50
 -10   5   3   24.80    1.95
  10   5  -3   22.39    1.39
  10   5  -3   23.86    1.72
 -10   5   3   23.07    2.03
  10   5  -3   21.15    1.76
 -10   5   3   24.28    1.82
 -10   5   3   23.21    2.75
 -10   5   3   23.58    1.50
  10   5  -3   22.09    1.47
  10   5  -3   16.18    2.57
  10   5  -3   21.17    1.86
   9   5  -3    7.96    0.67
   9   5  -3    7.44    0.84
  -9   5   3    7.76    0.68
  -9   5   3    4.80    1.94
   9   5  -3    8.26    0.93
   9   5  -3    6.69    1.09
  -9   5   3    8.36    0.91
   9   5  -3    8.36    0.74
  -9   5   3    8.89    0.94
  -9   5   3    7.78    1.12
   9   5  -3    8.59    0.87
   9   5  -3    8.64    1.56
  -8   5   3   57.67    3.55
   8   5  -3   57.99    4.47
   8   5  -3   49.27    3.63
   8   5  -3   53.12    2.98
  -8   5   3   53.84    4.31
  -8   5   3   53.20    3.68
  -8   5   3   52.11    3.80
   8   5  -3   52.67    3.17
  -8   5   3   52.99    3.01
   8   5  -3   50.67    3.40
   8   5  -3   53.80    3.50
   8   5  -3   55.00    3.63
   7   5  -3    9.65    0.99
  -7   5   3    8.00    1.70
   7   5  -3    9.08    0.92
  -7   5   3    9.93    1.09
   7   5  -3   10.75    0.73
   7   5  -3    9.91    1.02
  -7   5   3   10.62    1.14
   7   5  -3   11.69    1.88
   7   5  -3   11.03    1.01
  -7   5   3    8.51    1.57
   7   5  -3    9.80    0.75
  -7   5   3    8.21    1.08
   7   5  -3   11.07    0.92
  -7   5   3    8.21    0.97
  -7   5   3   10.54    0.81
  -6   5   3    7.96    0.74
   6   5  -3    7.31    0.77
   6   5  -3    7.74    0.84
   6   5  -3    5.58    1.08
   6   5  -3    6.25    0.66
   6   5  -3    6.44    0.70
  -6   5   3    7.04    0.75
  -6   5   3    6.90    0.62
   6   5  -3    7.02    0.77
  -6   5   3    9.38    1.39
   6   5  -3    6.57    0.50
   6   5  -3    6.50    0.57
   6   5  -3    8.05    0.81
  -6   5   3    5.44    0.87
  -6   5   3    7.07    0.73
  -6   5   3    6.65    0.78
  -6   5   3    6.68    1.63
   6   5  -3    8.32    1.59
  -5   5   3    5.02    0.77
  -5   5   3    5.18    0.64
   5   5  -3    5.05    0.67
  -5   5   3    3.85    0.76
   5   5  -3    4.10    0.41
   5   5  -3    6.20    1.34
  -5   5   3    4.58    1.40
   5   5  -3    4.10    0.82
   5   5  -3    4.42    0.63
   5   5  -3    5.51    0.57
   5   5  -3    5.17    0.49
   5   5  -3    4.42    0.32
  -5   5   3    4.95    0.69
   5   5  -3    4.80    0.55
  -5   5   3    4.04    0.60
  -5   5   3    4.23    0.39
   5   5  -3    3.99    0.42
   5   5  -3    5.43    0.60
   5   5  -3    5.39    0.45
  -5   5   3    4.62    1.30
   5   5  -3    4.34    0.43
   4   5  -3   38.12    2.64
  -4   5   3   34.33    2.60
  -4   5   3   42.49    3.13
   4   5  -3   37.72    2.60
   4   5  -3   38.44    2.10
  -4   5   3   36.34    2.09
  -4   5   3   37.96    2.75
  -4   5   3   37.97    2.56
  -4   5   3   39.49    2.70
   4   5  -3   35.60    2.59
   4   5  -3   41.01    2.89
   4   5  -3   43.43    3.17
  -4   5   3   39.41    2.57
  -4   5   3   40.20    3.05
   4   5  -3   40.39    2.58
   4   5  -3   34.41    2.45
  -3   5   3   -0.03    0.27
  -3   5   3   -0.05    0.53
   3   5  -3   -0.48    0.43
  -3   5   3    0.10    0.17
   3   5  -3    0.69    0.46
   3   5  -3    0.26    0.96
   3   5  -3    0.56    0.45
   3   5  -3    0.98    0.49
  -3   5   3    0.69    0.58
  -3   5   3    0.02    0.44
   3   5  -3    0.39    0.18
   3   5  -3    0.28    0.26
  -3   5   3   -2.22    0.91
  -3   5   3    0.36    0.35
   3   5  -3    0.61    0.51
   2   5  -3    0.35    0.15
   2   5  -3    0.58    0.95
  -2   5   3    0.64    0.32
  -2   5   3    1.02    0.73
  -2   5   3    1.12    0.59
  -2   5   3    1.25    0.57
   2   5  -3    0.57    0.44
  -2   5   3    1.08    0.49
   2   5  -3    0.81    0.46
   2   5  -3    1.20    0.51
   2   5  -3   -0.07    0.32
  -2   5   3    0.42    0.53
  -1   5   3    6.52    0.74
   1   5  -3    7.31    0.78
  -1   5   3    7.32    0.72
  -1   5   3    8.10    1.18
  -1   5   3    6.51    0.87
   1   5  -3    6.37    1.14
   1   5  -3    7.91    0.73
   1   5  -3    7.01    0.73
   1   5  -3    7.49    1.25
  -1   5   3    7.10    0.83
   0   5  -3   38.20    2.61
   0   5   3   38.21    2.84
   0   5  -3   37.12    3.12
   0   5   3   37.06    2.61
   0   5  -3   36.88    2.98
   0   5  -3   35.69    2.46
   0   5   3   37.30    2.58
   0   5   3   42.67    2.79
   0   5   3   34.72    3.05
   0   5  -3   39.94    2.62
  -1   5  -3    3.20    0.52
   1   5   3    2.53    1.04
  -1   5  -3    2.44    0.60
  -1   5  -3    1.20    0.95
   1   5   3    3.40    0.77
  -1   5  -3    2.91    0.58
   1   5   3    2.66    0.59
  -1   5  -3    2.24    1.12
   1   5   3    2.71    0.43
  -1   5  -3    2.45    0.40
   1   5   3    2.58    0.60
   1   5   3    2.81    0.23
   1   5   3    3.07    0.58
   2   5   3   -0.05    0.45
   2   5   3    0.50    0.53
  -2   5  -3   -0.07    1.08
  -2   5  -3    0.43    0.42
  -2   5  -3    0.14    0.87
   2   5   3    0.34    0.37
  -2   5  -3   -0.09    0.53
  -2   5  -3    0.22    0.53
  -2   5  -3    0.14    0.34
   2   5   3    0.42    0.18
  -2   5  -3   -0.64    0.40
   2   5   3    0.63    0.51
  -2   5  -3    0.29    0.17
   2   5   3    1.89    0.88
   2   5   3    0.09    0.30
  -3   5  -3    5.06    0.61
  -3   5  -3    6.44    0.63
   3   5   3    5.24    0.71
   3   5   3    5.99    0.69
  -3   5  -3    5.82    0.72
   3   5   3    5.46    0.64
   3   5   3    5.32    0.59
   3   5   3    5.76    0.73
   3   5   3    5.14    0.42
  -3   5  -3    4.93    0.76
  -3   5  -3    4.77    0.40
  -3   5  -3    5.10    0.77
   3   5   3    8.38    1.23
  -3   5  -3    5.41    1.49
   4   5   3    1.10    0.44
  -4   5  -3    0.79    0.45
  -4   5  -3    0.75    0.44
   4   5   3   -0.11    0.91
  -4   5  -3    0.51    0.20
   4   5   3    1.04    0.47
  -4   5  -3    0.78    0.63
   4   5   3    0.85    0.23
   4   5   3    0.53    0.48
   4   5   3    0.35    0.52
  -4   5  -3    0.59    0.38
  -4   5  -3    2.36    1.36
  -4   5  -3    0.80    0.33
  -5   5  -3    7.71    0.93
   5   5   3    7.09    0.72
   5   5   3    7.85    0.87
   5   5   3    8.08    1.41
  -5   5  -3    6.48    0.98
   5   5   3    8.96    0.86
  -5   5  -3   11.80    1.91
   5   5   3    7.87    0.88
   5   5   3    8.52    0.58
  -5   5  -3    8.90    0.96
   5   5   3    7.45    0.78
  -5   5  -3    7.61    0.66
   5   5   3    8.40    0.81
  -5   5  -3    9.77    0.76
   6   5   3   91.88    5.99
  -6   5  -3   86.52    5.87
  -6   5  -3   93.44    4.91
   6   5   3   97.38    5.36
   6   5   3   89.40    5.98
  -6   5  -3   89.24    5.85
   6   5   3   90.69    5.24
  -6   5  -3   87.16    6.75
  -6   5  -3   95.63    6.29
   6   5   3   96.10    5.87
   6   5   3   89.28    4.90
   6   5   3   83.43    5.58
   6   5   3   78.92    5.46
   6   5   3   89.05    5.96
  -7   5  -3    4.35    0.70
  -7   5  -3    5.19    0.81
   7   5   3    4.55    0.83
  -7   5  -3    5.41    1.78
   7   5   3    2.34    0.61
   7   5   3    2.66    1.16
   7   5   3    4.67    0.48
  -7   5  -3    4.32    0.48
   7   5   3    4.10    0.69
   7   5   3    4.58    0.42
   7   5   3    4.50    0.74
   7   5   3    4.81    0.66
  -7   5  -3    3.05    0.69
   7   5   3    4.29    0.54
  -7   5  -3    4.85    0.94
  -8   5  -3   -0.58    0.46
  -8   5  -3   -0.60    0.61
  -8   5  -3    0.20    0.53
   8   5   3    0.14    0.77
  -8   5  -3    0.56    0.40
   8   5   3   -0.33    0.53
  -8   5  -3   -0.25    0.19
  -8   5  -3   -0.40    0.79
   8   5   3    0.32    0.27
   8   5   3   -0.54    0.76
   8   5   3    0.60    0.47
  -8   5  -3    0.10    0.38
   8   5   3   -0.04    0.60
   8   5   3   -0.24    0.36
   8   5   3    0.07    0.51
  -8   5  -3   -0.50    1.56
   9   5   3   27.98    2.56
   9   5   3   29.49    1.80
   9   5   3   29.52    2.18
   9   5   3   29.82    1.85
  -9   5  -3   29.52    2.09
   9   5   3   29.50    2.12
  -9   5  -3   34.06    2.42
  -9   5  -3   28.60    2.29
  -9   5  -3   30.02    1.82
  -9   5  -3   27.82    2.24
   9   5   3   27.96    2.10
  -9   5  -3   28.45    3.04
  -9   5  -3   31.22    1.79
 -10   5  -3    5.51    0.64
  10   5   3    4.54    0.77
 -10   5  -3    5.37    1.05
 -10   5  -3    5.88    0.69
  10   5   3    6.01    0.70
 -10   5  -3    5.10    0.87
  10   5   3    5.40    0.59
 -10   5  -3    5.19    0.47
  10   5   3    4.47    0.51
  11   5   3   16.42    1.40
 -11   5  -3   16.09    1.44
 -11   5  -3   18.79    1.31
 -11   5  -3   18.79    1.65
  11   5   3   16.49    1.17
  11   5   3   18.92    1.16
  11   5   3   16.91    1.34
 -12   5  -3    2.40    0.55
 -12   5  -3    3.68    0.47
 -12   5  -3    4.25    0.76
  12   5   3    2.94    0.54
  12   5   3    1.71    0.64
  12   5   3    2.67    0.52
  12   5   3    3.29    0.45
  13   5   3    1.44    0.46
 -13   5  -3    1.36    0.62
  13   5   3    1.10    0.26
 -13   5  -3    2.23    0.52
  13   5   3    2.49    0.44
  13   5   3    1.28    0.40
  14   5   3    1.16    0.40
  14   5   3    0.40    0.42
  14   5   3    0.22    0.31
 -14   5  -3    0.37    0.30
 -14   5  -3   -0.05    0.52
  15   5   3   18.23    1.08
 -14   6   3    4.96    0.70
  13   6  -3    7.33    0.75
 -13   6   3    6.43    1.06
 -13   6   3    5.12    0.86
 -12   6   3    3.43    0.77
 -12   6   3    2.11    0.64
  12   6  -3    2.48    0.42
  12   6  -3    2.51    0.55
  12   6  -3    2.38    0.78
 -11   6   3   25.58    1.99
 -11   6   3   27.86    1.57
  11   6  -3   25.80    1.57
 -11   6   3   24.08    2.04
  11   6  -3   24.21    1.86
  11   6  -3   26.96    1.91
 -11   6   3   26.65    2.31
  10   6  -3    0.31    0.43
  10   6  -3    0.08    0.48
 -10   6   3   -1.18    0.66
 -10   6   3   -0.20    0.60
  10   6  -3   -0.22    0.53
 -10   6   3    0.15    0.94
  10   6  -3   -0.31    0.35
 -10   6   3    0.33    0.43
  -9   6   3    0.89    0.49
  -9   6   3   -0.11    0.94
   9   6  -3    0.10    0.53
  -9   6   3    0.48    0.84
  -9   6   3    0.47    0.32
   9   6  -3    0.48    0.61
   9   6  -3    0.54    0.53
   9   6  -3    0.47    0.34
   8   6  -3   14.91    1.22
   8   6  -3   14.63    0.98
   8   6  -3   15.23    1.48
   8   6  -3   14.64    1.39
  -8   6   3   15.18    1.48
  -8   6   3   13.71    0.94
  -8   6   3   12.23    2.43
  -8   6   3   15.32    1.47
   8   6  -3   12.33    1.98
  -8   6   3   16.12    1.65
  -7   6   3    2.21    0.30
  -7   6   3    1.22    1.65
   7   6  -3    2.24    0.71
  -7   6   3    0.61    0.61
  -7   6   3    2.15    0.70
  -7   6   3    2.15    0.83
   7   6  -3    1.17    0.59
   7   6  -3    1.88    0.65
   7   6  -3    1.92    0.32
   7   6  -3    2.28    1.61
   6   6  -3   27.36    1.55
  -6   6   3   28.31    2.10
  -6   6   3   30.46    1.96
   6   6  -3   27.76    2.08
   6   6  -3   28.76    2.04
  -6   6   3   26.21    1.52
   6   6  -3   27.94    2.67
   6   6  -3   24.78    1.96
  -6   6   3   20.25    2.73
  -6   6   3   24.69    2.00
  -6   6   3   28.58    2.30
   6   6  -3   26.62    2.08
  -6   6   3   30.15    2.13
   5   6  -3   29.27    1.69
  -5   6   3   32.43    2.33
   5   6  -3   30.89    2.25
  -5   6   3   29.51    2.16
  -5   6   3   27.91    3.02
  -5   6   3   28.57    2.12
   5   6  -3   28.68    2.15
   5   6  -3   26.81    2.99
   5   6  -3   31.42    2.25
  -5   6   3   32.18    2.26
   5   6  -3   29.98    2.06
  -5   6   3   31.22    2.36
  -4   6   3    8.26    1.39
   4   6  -3    7.80    0.75
  -4   6   3    7.41    0.84
   4   6  -3    7.58    0.78
   4   6  -3    8.50    1.61
  -4   6   3    7.44    0.86
   4   6  -3    6.87    0.84
  -4   6   3    7.64    0.78
   4   6  -3    7.22    0.84
  -4   6   3    7.42    0.77
  -4   6   3    7.05    0.82
   4   6  -3    7.41    0.84
   4   6  -3    7.28    0.51
  -3   6   3    2.09    0.75
   3   6  -3    3.63    0.63
   3   6  -3    2.78    0.50
   3   6  -3    2.73    0.53
  -3   6   3    3.60    0.55
  -3   6   3    2.94    1.03
  -3   6   3    3.22    0.56
  -3   6   3    3.46    0.59
   3   6  -3    2.71    0.63
   3   6  -3    2.57    0.24
   3   6  -3    5.68    1.40
  -3   6   3    2.99    0.45
  -3   6   3    2.98    0.60
   3   6  -3    3.29    0.52
  -2   6   3    1.72    0.51
  -2   6   3    1.28    0.52
  -2   6   3    1.54    0.54
  -2   6   3    2.04    0.61
  -2   6   3    1.36    0.45
   2   6  -3    2.00    0.47
  -2   6   3    1.81    0.69
   2   6  -3    1.40    0.55
   2   6  -3    1.74    0.43
   2   6  -3   -0.02    1.09
   2   6  -3    2.08    0.46
  -2   6   3    3.26    1.31
   2   6  -3    1.47    0.54
   1   6  -3   45.48    3.68
   1   6  -3   48.76    3.13
  -1   6   3   41.10    3.04
  -1   6   3   43.23    3.29
   1   6  -3   44.50    3.11
   1   6  -3   43.19    2.94
  -1   6   3   50.28    3.21
   1   6  -3   47.28    3.15
  -1   6   3   42.70    3.11
  -1   6   3   43.30    3.10
  -1   6   3   47.12    3.10
   1   6  -3   48.32    3.17
  -1   6   3   47.03    3.57
  -1   6   3   50.04    3.36
  -1   6   3   45.06    3.18
   1   6  -3   49.36    3.09
   0   6   3    3.46    0.53
   0   6  -3    5.26    1.06
   0   6  -3    3.24    0.68
   0   6  -3    3.94    0.52
   0   6   3    3.72    0.60
   0   6   3    4.56    1.31
   0   6   3    2.34    0.55
   0   6   3    3.68    1.00
   0   6   3    3.63    0.73
   0   6   3    4.83    0.66
   0   6   3    3.14    0.46
   0   6  -3    3.59    0.69
   0   6  -3    3.93    0.62
   0   6  -3    3.04    0.48
   0   6  -3    3.68    0.58
  -1   6  -3   16.36    1.84
  -1   6  -3   13.12    1.25
  -1   6  -3   14.18    1.15
  -1   6  -3   12.26    1.87
  -1   6  -3   12.30    1.38
   1   6   3   15.16    1.25
  -1   6  -3   15.34    1.23
   1   6   3   14.72    1.28
  -1   6  -3   15.28    1.27
   1   6   3   16.34    1.61
   1   6   3   16.57    1.43
   1   6   3   15.31    1.41
  -1   6  -3   16.08    1.23
   1   6   3   15.44    1.32
   2   6   3   26.15    2.06
  -2   6  -3   26.98    1.97
  -2   6  -3   27.00    1.86
  -2   6  -3   24.95    1.90
   2   6   3   23.73    2.25
   2   6   3   28.68    2.05
   2   6   3   24.93    1.44
   2   6   3   27.05    1.93
  -2   6  -3   27.70    1.93
  -2   6  -3   30.39    1.91
  -2   6  -3   25.80    2.86
  -2   6  -3   25.85    2.14
   2   6   3   26.63    1.98
   2   6   3   27.02    2.10
   3   6   3   22.84    1.78
   3   6   3   21.33    1.20
  -3   6  -3   20.90    1.74
  -3   6  -3   21.11    1.83
   3   6   3   20.85    1.77
  -3   6  -3   21.93    1.56
  -3   6  -3   18.35    2.53
  -3   6  -3   20.03    1.60
  -3   6  -3   21.79    1.49
   3   6   3   20.14    1.71
   3   6   3   21.71    2.05
   3   6   3   22.77    1.67
   4   6   3   65.49    3.60
  -4   6  -3   67.60    4.74
   4   6   3   67.52    4.53
   4   6   3   62.98    4.50
  -4   6  -3   65.69    4.15
   4   6   3   67.87    4.40
  -4   6  -3   69.19    4.42
  -4   6  -3   54.97    5.30
  -4   6  -3   62.97    3.57
  -4   6  -3   67.90    4.41
   4   6   3   65.02    4.75
   4   6   3   75.18    4.48
  -5   6  -3   19.37    1.81
  -5   6  -3   23.36    1.51
   5   6   3   20.62    1.66
   5   6   3   21.06    1.26
  -5   6  -3   21.87    1.72
   5   6   3   21.30    2.27
  -5   6  -3   15.35    2.52
   5   6   3   23.21    1.80
  -5   6  -3   20.22    1.22
   5   6   3   20.02    1.78
  -5   6  -3   23.30    1.72
   6   6   3   71.98    5.43
  -6   6  -3   77.03    5.55
  -6   6  -3   78.08    4.23
   6   6   3   81.18    5.28
   6   6   3   77.03    4.25
  -6   6  -3   79.57    5.10
   6   6   3   72.62    4.88
   6   6   3   75.66    5.20
   6   6   3   86.50    5.13
  -6   6  -3   81.62    5.13
  -6   6  -3   63.51    6.07
   7   6   3   18.63    1.39
   7   6   3   16.51    1.04
   7   6   3   11.91    1.84
   7   6   3   14.79    1.37
  -7   6  -3    6.42    2.18
  -7   6  -3   16.21    1.61
  -7   6  -3   16.04    1.02
  -7   6  -3   16.78    1.87
   7   6   3   16.40    1.55
  -7   6  -3   18.44    1.47
   7   6   3   17.25    1.49
   8   6   3    4.08    0.78
  -8   6  -3    2.68    0.64
   8   6   3    2.50    0.51
  -8   6  -3    2.77    0.70
  -8   6  -3    3.39    0.47
  -8   6  -3    2.83    1.00
   8   6   3    2.92    0.40
   8   6   3    4.17    0.68
  -9   6  -3    0.03    0.68
   9   6   3    0.44    0.40
   9   6   3    0.37    0.33
  -9   6  -3    0.03    0.52
  -9   6  -3    0.37    0.35
   9   6   3    0.35    0.39
   9   6   3    1.34    0.48
  10   6   3    0.11    0.45
 -10   6  -3    0.19    0.93
 -10   6  -3    1.23    0.68
  10   6   3   -0.15    0.33
  10   6   3    0.47    0.40
 -10   6  -3    0.52    0.37
 -11   6  -3    0.71    0.89
  11   6   3    0.54    0.34
 -11   6  -3   -0.43    0.36
  11   6   3    0.34    0.44
 -11   6  -3    0.25    0.56
 -12   6  -3   15.91    1.05
 -12   6  -3   15.98    1.46
  12   6   3   17.53    1.38
 -13   6  -3    2.13    0.55
  13   6   3    1.07    0.30
  13   6   3    0.88    0.33
 -13   6  -3    1.49    0.27
 -13   7   3   19.51    1.44
 -12   7   3    5.24    0.76
 -12   7   3    9.00    0.92
  12   7  -3    8.05    0.65
 -11   7   3    8.08    0.93
  11   7  -3    6.67    0.72
 -11   7   3    7.82    0.94
  11   7  -3    7.22    0.80
  10   7  -3    2.00    0.50
 -10   7   3    2.95    0.71
 -10   7   3    3.12    0.58
 -10   7   3    2.72    0.76
  10   7  -3    3.31    0.84
   9   7  -3    1.04    0.80
   9   7  -3    0.80    0.62
  -9   7   3    1.46    0.88
   9   7  -3    0.69    0.40
  -9   7   3   -0.07    0.67
  -9   7   3   -0.55    0.69
   8   7  -3   11.94    1.10
   8   7  -3   12.62    1.22
  -8   7   3    9.50    1.31
  -8   7   3   11.53    1.18
   8   7  -3   14.19    1.11
  -8   7   3   10.46    1.34
  -7   7   3    2.37    0.90
   7   7  -3    2.16    0.50
  -7   7   3    0.91    0.66
  -7   7   3    1.17    0.55
   7   7  -3    0.50    0.76
   7   7  -3    0.98    0.48
  -6   7   3    0.16    0.51
  -6   7   3    0.15    0.69
   6   7  -3    0.61    0.73
   6   7  -3    0.83    0.65
   6   7  -3    0.81    0.46
  -6   7   3   -0.21    0.59
  -6   7   3    0.87    0.60
  -5   7   3   25.08    2.26
   5   7  -3   29.12    2.04
   5   7  -3   28.61    1.99
   5   7  -3   25.59    1.97
   5   7  -3   23.04    1.88
  -5   7   3   28.75    1.99
  -5   7   3   27.16    2.07
  -5   7   3   26.85    2.00
  -4   7   3    5.90    0.99
   4   7  -3    6.31    0.83
  -4   7   3    7.31    0.93
   4   7  -3    7.51    0.77
   4   7  -3    6.14    0.74
   4   7  -3    7.39    0.87
   4   7  -3    6.40    1.79
  -4   7   3    6.48    0.80
  -4   7   3    7.93    1.05
  -4   7   3    6.33    0.74
  -3   7   3   31.41    2.20
  -3   7   3   31.34    2.29
   3   7  -3   29.35    3.19
  -3   7   3   28.69    2.19
   3   7  -3   30.34    2.21
   3   7  -3   32.76    2.25
   3   7  -3   29.20    2.12
   3   7  -3   33.83    2.18
  -3   7   3   33.03    2.39
  -3   7   3   21.57    2.89
  -3   7   3   30.15    2.42
   3   7  -3   33.00    2.33
   2   7  -3   45.70    2.96
  -2   7   3   42.05    3.09
   2   7  -3   47.51    3.07
   2   7  -3   46.25    3.06
  -2   7   3   44.01    3.04
  -2   7   3   42.63    2.97
   2   7  -3   42.97    3.02
  -2   7   3   46.36    3.10
   2   7  -3   44.67    2.98
   2   7  -3   39.58    3.76
  -2   7   3   34.60    3.75
  -2   7   3   44.20    3.30
  -2   7   3   44.94    3.07
  -1   7   3   40.89    3.03
   1   7  -3   41.07    3.69
  -1   7   3   44.11    3.12
   1   7  -3   45.57    3.11
  -1   7   3   45.22    3.81
  -1   7   3   44.15    3.09
  -1   7   3   47.52    3.16
   1   7  -3   45.91    2.97
   1   7  -3   46.82    3.05
   1   7  -3   44.67    3.03
   1   7  -3   39.37    2.96
  -1   7   3   45.33    3.28
  -1   7   3   43.31    3.02
   1   7  -3   45.30    2.88
   0   7   3   -0.48    0.74
   0   7  -3    1.34    0.51
   0   7  -3    0.47    0.41
   0   7   3    1.37    0.74
   0   7   3   -0.52    0.61
   0   7  -3    1.54    0.55
   0   7   3    0.47    0.53
   0   7  -3   -0.14    0.60
   0   7   3    0.63    0.55
   0   7  -3    0.53    1.30
   0   7  -3    0.46    0.64
   0   7  -3    0.31    0.42
   0   7   3    0.62    0.54
  -1   7  -3    6.74    0.73
  -1   7  -3    6.16    0.74
  -1   7  -3    7.20    0.82
   1   7   3    3.95    1.02
  -1   7  -3    7.45    0.91
  -1   7  -3    6.76    0.78
   1   7   3    7.79    0.78
   1   7   3    7.55    0.85
   1   7   3    7.12    0.92
  -1   7  -3    7.50    0.96
   1   7   3    7.23    0.83
   1   7   3    7.32    0.84
  -2   7  -3   39.70    3.05
   2   7   3   40.04    2.92
   2   7   3   44.18    3.05
  -2   7  -3   44.48    3.03
  -2   7  -3   44.00    2.93
  -2   7  -3   35.03    2.88
   2   7   3   44.47    2.90
   2   7   3   44.22    3.02
  -2   7  -3   44.04    2.74
  -2   7  -3   42.78    2.97
   3   7   3    0.14    0.48
   3   7   3    0.51    0.57
  -3   7  -3   -0.29    0.62
   3   7   3    0.32    1.16
  -3   7  -3   -0.03    0.77
  -3   7  -3   -0.56    0.40
   3   7   3    0.58    0.62
   3   7   3    0.59    0.58
  -3   7  -3   -0.09    0.56
  -3   7  -3   -0.22    0.75
  -3   7  -3    3.33    1.79
   4   7   3    0.47    0.56
  -4   7  -3    0.05    0.55
   4   7   3    1.72    0.67
   4   7   3    0.25    0.68
  -4   7  -3    0.21    0.41
  -4   7  -3    0.47    0.47
  -4   7  -3    0.02    0.57
  -5   7  -3   36.96    2.74
   5   7   3   37.89    2.83
  -5   7  -3   37.05    2.92
   5   7   3   40.04    2.84
  -5   7  -3   38.74    2.76
   5   7   3   40.46    2.68
   6   7   3    1.35    0.44
   6   7   3    1.12    0.70
   6   7   3    1.22    0.73
  -6   7  -3    3.00    1.00
  -6   7  -3    1.81    0.67
  -6   7  -3    1.97    0.63
   7   7   3   11.65    1.13
   7   7   3   11.37    1.16
  -7   7  -3   12.33    1.11
  -7   7  -3   11.44    1.41
   7   7   3   11.64    0.70
  -7   7  -3   11.87    1.23
  -8   7  -3    0.11    0.64
   8   7   3    0.60    0.44
   8   7   3   -1.56    0.63
  -8   7  -3    0.29    0.54
  -8   7  -3    0.38    0.96
   8   7   3    0.34    0.21
  -9   7  -3    1.64    0.72
  -9   7  -3    1.14    0.74
   9   7   3    1.07    0.42
   9   7   3    1.97    0.52
   9   7   3    1.45    0.20
  10   7   3   -0.11    0.42
 -10   7  -3   -0.30    0.93
  10   7   3    0.31    0.19
 -10   7  -3    0.28    0.46
 -11   7  -3   13.66    1.04
 -11   7  -3   13.35    1.23
  11   7   3   13.14    1.09
 -12   7  -3    0.55    0.50
  12   7   3    1.22    0.33
 -11   8   3    0.47    0.41
 -11   8   3    0.21    0.42
 -10   8   3    5.83    0.91
 -10   8   3    8.04    0.82
  10   8  -3    6.78    0.71
  10   8  -3    7.43    0.68
   9   8  -3    4.87    0.55
   9   8  -3    2.91    0.81
  -9   8   3    3.83    0.73
  -9   8   3    3.31    0.70
   8   8  -3    7.04    0.82
  -8   8   3    6.23    0.86
  -8   8   3    8.38    0.89
  -8   8   3    5.54    0.73
   8   8  -3    7.34    0.96
  -7   8   3    1.07    0.64
  -7   8   3    0.91    0.68
   7   8  -3    1.25    0.45
   7   8  -3    0.99    0.58
   7   8  -3    1.12    0.47
  -7   8   3    1.62    0.65
  -6   8   3    2.26    0.91
   6   8  -3    3.63    0.74
   6   8  -3    4.32    0.59
  -6   8   3    2.96    0.93
   6   8  -3    3.76    0.65
  -6   8   3    3.09    0.78
  -5   8   3    7.95    0.92
   5   8  -3    7.51    0.80
   5   8  -3    7.87    0.85
   5   8  -3    8.11    0.91
  -5   8   3    6.61    0.93
  -5   8   3    7.57    1.07
   4   8  -3   22.09    1.51
   4   8  -3   18.86    1.60
  -4   8   3   18.10    1.50
  -4   8   3   15.95    1.57
  -4   8   3   17.27    1.71
  -4   8   3   17.80    1.48
   3   8  -3   -0.23    0.43
   3   8  -3    0.54    0.57
   3   8  -3    0.17    0.65
  -3   8   3    1.00    0.68
  -3   8   3    0.35    0.57
  -3   8   3    0.71    0.57
  -3   8   3    0.09    0.59
  -2   8   3   13.73    1.17
   2   8  -3   15.49    1.21
   2   8  -3   11.54    1.16
  -2   8   3   14.65    1.48
  -2   8   3   15.55    1.49
   2   8  -3   14.95    1.18
  -2   8   3   12.24    1.24
  -2   8   3   13.47    1.30
   2   8  -3   11.54    1.15
   1   8  -3    5.96    0.74
  -1   8   3    6.42    1.00
   1   8  -3    5.62    0.82
   1   8  -3    5.83    0.68
  -1   8   3    4.38    0.79
  -1   8   3    7.29    0.74
  -1   8   3    6.60    0.95
   1   8  -3    6.40    0.71
  -1   8   3    6.41    0.68
   0   8  -3    8.45    0.85
   0   8   3    7.26    0.93
   0   8   3    6.57    0.76
   0   8  -3    7.90    0.82
   0   8  -3    8.63    0.79
   0   8   3    7.53    1.01
   0   8  -3    5.93    0.88
   0   8  -3    7.31    0.82
   0   8   3    7.20    1.02
   0   8   3    8.82    0.84
   1   8   3   30.98    2.28
   1   8   3   33.82    2.36
   1   8   3   30.69    2.26
  -1   8  -3   31.16    2.33
  -1   8  -3   31.09    2.21
  -1   8  -3   29.12    2.17
   1   8   3   29.55    2.25
  -1   8  -3   31.24    2.09
  -2   8  -3    4.58    0.92
  -2   8  -3    5.86    0.85
   2   8   3    6.85    0.99
  -2   8  -3    4.91    0.84
   2   8   3    4.85    0.66
   2   8   3    5.43    0.73
  -2   8  -3    5.36    0.65
   2   8   3    4.81    0.65
  -3   8  -3   32.62    2.13
  -3   8  -3   25.92    2.24
   3   8   3   32.20    2.23
  -3   8  -3   29.22    2.15
  -3   8  -3   30.49    2.35
   3   8   3   30.48    2.33
   3   8   3   29.26    2.25
   4   8   3   32.90    2.52
  -4   8  -3   37.66    2.56
  -4   8  -3   36.42    2.67
  -4   8  -3   31.32    2.70
   4   8   3   35.06    2.51
   4   8   3   37.50    2.46
   5   8   3   12.59    1.38
  -5   8  -3   12.80    1.32
   5   8   3   12.46    1.18
  -5   8  -3   14.36    1.54
  -5   8  -3   12.71    1.28
   5   8   3   12.33    1.10
   6   8   3    0.50    0.46
  -6   8  -3    1.24    0.56
   6   8   3    0.74    0.51
  -6   8  -3    1.03    0.93
  -6   8  -3    0.58    0.65
  -7   8  -3    6.48    0.88
  -7   8  -3    3.25    0.83
   7   8   3    6.07    0.66
   7   8   3    4.67    0.66
   8   8   3   43.00    2.92
   8   8   3   44.15    2.96
  -8   8  -3   45.63    2.91
  -8   8  -3   39.09    3.12
   9   8   3    0.32    0.39
   9   8   3    1.03    0.31
  -9   8  -3    1.48    0.46
  -9   8  -3    0.75    0.57
 -10   8  -3    1.00    0.48
  10   8   3    1.38    0.34
  -8   9   3    2.74    0.49
   8   9  -3    3.36    0.40
   7   9  -3    2.55    0.43
   7   9  -3    1.75    0.37
  -7   9   3    1.21    0.69
  -7   9   3    1.13    0.41
   6   9  -3    3.75    0.61
  -6   9   3    1.70    0.55
   6   9  -3    3.59    0.53
  -6   9   3    4.89    0.59
   5   9  -3   -0.36    0.37
  -5   9   3   -0.25    0.69
  -5   9   3   -0.34    0.52
   5   9  -3    0.10    0.44
  -4   9   3    1.57    0.57
   4   9  -3    2.01    0.47
  -4   9   3    1.28    0.72
  -3   9   3   12.37    0.97
   3   9  -3   12.98    1.03
   3   9  -3   12.40    1.03
  -3   9   3   10.11    1.09
   2   9  -3   -0.16    0.56
  -2   9   3    0.39    0.35
   1   9  -3   -0.33    0.53
  -1   9   3    0.01    0.50
   1   9  -3   -0.17    0.40
   0   9   3   -0.04    0.38
   0   9   3    1.19    0.52
   0   9  -3   -0.22    0.41
   1   9   3    1.52    0.43
  -1   9  -3    2.12    0.50
  -1   9  -3   -0.13    0.61
   2   9   3    9.13    0.94
   2   9   3   10.02    1.03
   2   9   3    8.16    0.78
  -2   9  -3    8.17    0.88
  -3   9  -3    2.78    0.53
   3   9   3    4.11    0.51
  -4   9  -3   10.77    1.00
  -4   9  -3    9.11    0.92
   4   9   3    9.45    0.87
  -5   9  -3    0.53    0.39
   5   9   3    0.84    0.43
  -5   9  -3    0.87    0.45
   6   9   3    3.97    0.49
  -6   9  -3    1.77    0.50
  -6   9  -3    2.51    0.48
  -7   9  -3   22.13    1.57
 -18   0   4    0.85    0.48
  16   0  -4   25.24    1.61
 -16   0   4   26.99    1.68
 -15   0   4    0.57    0.38
 -14   0   4    5.78    0.69
 -13   0   4    1.16    0.50
 -13   0   4    1.51    1.63
 -12   0   4    1.88    0.49
 -11   0   4   -0.38    0.42
  -9   0   4   -0.18    0.65
  -9   0   4    0.14    0.59
  -8   0   4   68.40    4.27
  -8   0   4   64.01    4.26
   7   0  -4   -0.82    0.72
  -7   0   4    0.11    0.76
   7   0  -4   -0.27    1.13
   7   0  -4   -0.35    0.49
  -7   0   4    0.25    0.61
  -7   0   4   -0.38    0.52
   7   0  -4   -0.35    0.46
  -7   0   4    0.35    0.78
  -6   0   4   17.24    1.46
  -6   0   4   18.92    1.50
  -6   0   4   16.66    1.70
   6   0  -4   17.62    1.79
   6   0  -4   19.24    1.43
   6   0  -4   15.78    1.69
   6   0  -4   18.43    1.54
  -6   0   4   17.62    1.80
  -5   0   4   -1.27    0.95
  -5   0   4    0.57    0.74
   5   0  -4    0.29    1.08
   5   0  -4    0.17    0.63
   5   0  -4    2.13    1.06
  -5   0   4   -0.52    0.72
   5   0  -4   -0.14    0.46
  -5   0   4    0.36    0.55
   4   0  -4    5.22    0.64
   4   0  -4    5.10    0.63
  -4   0   4    4.98    0.67
  -4   0   4    4.87    0.79
  -4   0   4    4.76    0.96
   4   0  -4    5.66    1.00
  -4   0   4    4.87    0.87
   4   0  -4    2.87    0.83
  -3   0   4    0.62    0.92
   3   0  -4    0.43    0.57
  -3   0   4   -0.24    0.53
   3   0  -4   -0.21    0.44
  -3   0   4    0.18    0.56
  -3   0   4   -0.84    0.63
   3   0  -4    0.06    0.88
   3   0  -4    0.26    0.32
  -3   0   4    0.33    0.34
   3   0  -4    0.71    0.71
  -2   0   4   16.88    1.25
  -2   0   4   16.54    1.23
   2   0  -4   17.70    1.43
   2   0  -4   16.18    1.19
   2   0  -4   14.88    1.58
  -2   0   4   16.99    1.46
  -2   0   4   17.14    1.24
  -2   0   4   16.53    1.57
   2   0  -4   15.56    1.16
   2   0  -4   16.03    1.25
   1   0  -4   -0.30    0.86
  -1   0   4   -0.52    0.41
   1   0  -4    0.21    0.39
   1   0  -4    0.47    0.79
  -1   0   4    0.22    0.35
   1   0  -4   -0.26    0.48
  -1   0   4   -0.14    0.57
  -1   0   4    0.18    0.70
   1   0  -4    0.15    0.38
  -1   0   4   -0.63    0.81
   0   0  -4    0.86    0.43
   0   0   4    0.80    0.59
   0   0   4    0.66    0.84
   0   0  -4    1.68    0.44
   0   0   4    1.00    0.47
   0   0  -4    0.94    0.55
   0   0  -4    1.47    0.92
   0   0  -4    0.28    0.86
   0   0   4    0.87    0.76
   0   0   4    1.19    0.46
  -1   0  -4   -0.14    0.45
  -1   0  -4    1.26    0.92
   1   0   4   -0.26    0.82
  -1   0  -4    0.96    0.99
   1   0   4    0.21    0.85
  -1   0  -4   -0.20    0.57
   1   0   4   -0.80    0.56
   1   0   4   -0.04    0.48
  -2   0  -4   21.18    1.88
  -2   0  -4   18.46    1.46
   2   0   4   20.11    1.86
  -2   0  -4   22.70    2.08
   2   0   4   18.66    1.47
   2   0   4   18.19    1.56
  -2   0  -4   20.27    1.55
   2   0   4   18.52    1.88
   3   0   4    1.18    0.67
   3   0   4   -0.14    0.44
   3   0   4    0.37    0.54
  -3   0  -4   -0.08    0.51
  -3   0  -4    0.09    0.70
   3   0   4   -0.53    0.58
  -3   0  -4   -0.26    0.74
  -3   0  -4    0.66    0.51
  -4   0  -4   70.33    4.85
   4   0   4   67.87    4.57
  -4   0  -4   66.49    4.60
  -4   0  -4   70.04    4.30
  -4   0  -4   70.55    4.73
   4   0   4   69.95    4.32
   4   0   4   70.12    4.25
   4   0   4   72.78    4.61
   4   0   4   69.05    4.34
  -4   0  -4   68.99    4.33
  -5   0  -4    0.12    1.28
  -5   0  -4    0.46    0.57
  -5   0  -4   -0.77    0.74
   5   0   4    0.18    0.65
   5   0   4    1.25    0.91
   5   0   4   -0.01    0.54
   5   0   4   -0.07    0.46
  -5   0  -4   -1.35    0.81
   5   0   4   -0.18    0.92
  -5   0  -4    0.45    0.63
   6   0   4   19.12    2.16
  -6   0  -4   25.83    2.12
   6   0   4   24.56    1.74
   6   0   4   23.16    1.93
   6   0   4   25.33    1.86
  -6   0  -4   24.67    1.88
  -6   0  -4   20.34    2.27
  -6   0  -4   27.08    2.04
  -6   0  -4   21.90    2.66
  -7   0  -4   -0.06    0.60
  -7   0  -4   -0.77    0.59
 -10   0  -4   38.54    2.27
 -11   0  -4    0.24    0.46
 -12   0  -4   10.80    0.89
 -13   0  -4   -0.07    0.50
 -14   0  -4    1.17    0.53
  14   0   4    0.19    0.28
 -15   0  -4   -0.49    0.49
  15   0   4   -0.27    0.25
  16   0   4   21.18    1.26
 -16   0  -4   21.28    1.36
  17   0   4    0.05    0.19
 -17   0  -4    0.29    0.20
 -18   1   4    4.95    0.32
  18   1  -4    4.19    0.53
 -18   1   4    7.36    0.75
 -17  -1   4    3.23    0.56
 -17   1   4    2.54    0.81
 -16  -1   4    0.06    0.37
 -16   1   4    1.01    0.45
  16   1  -4   -0.09    0.40
 -16   1   4   -1.63    0.65
 -15  -1   4    0.77    0.59
 -15   1   4    1.04    0.37
 -15   1   4    0.87    0.51
  15   1  -4    1.44    0.43
  14   1  -4   10.37    0.89
 -14   1   4    9.56    0.83
 -14   1   4   11.13    1.07
  13   1  -4    3.83    0.49
 -13   1   4    3.92    1.36
  13   1  -4    1.63    1.48
 -13   1   4    4.55    0.58
 -12   1   4   34.35    3.10
  12   1  -4   31.91    1.89
 -12   1   4   34.12    1.94
  11   1  -4    4.98    0.51
 -11   1   4    9.01    1.47
 -11   1   4    4.62    0.89
 -11   1   4    6.37    0.53
 -11   1   4    4.57    1.32
 -10   1   4    7.16    1.26
 -10   1   4    6.22    1.55
 -10   1   4    6.32    1.04
  10   1  -4    5.76    0.54
 -10   1   4    8.49    0.74
  -9   1   4    6.68    1.16
  -9   1   4    4.65    0.78
   9   1  -4    5.66    0.88
  -9   1   4    7.54    1.22
   9   1  -4    6.60    1.04
  -8   1   4    4.61    0.81
   8   1  -4    2.51    1.33
  -8   1   4    4.51    1.23
   8   1  -4    3.68    0.89
  -8   1   4    4.59    1.03
   7  -1  -4    1.11    1.21
  -7  -1   4    2.52    0.80
   7   1  -4    1.24    0.71
   7   1  -4    2.10    0.50
   7   1  -4    2.81    0.77
  -7   1   4    2.39    1.04
  -7   1   4    0.26    1.11
   7   1  -4    1.09    1.18
  -7   1   4    1.47    0.83
  -7   1   4    2.39    0.54
   6  -1  -4   13.70    1.79
   6  -1  -4   12.57    1.49
  -6  -1   4   13.53    1.75
  -6  -1   4   16.17    1.32
  -6  -1   4   15.05    1.61
  -6  -1   4   12.15    1.34
  -6   1   4   15.94    1.30
   6   1  -4   16.08    1.29
   6   1  -4   12.69    1.65
   6   1  -4   14.74    1.41
  -6   1   4   14.51    1.48
  -6   1   4   15.84    1.53
  -6   1   4   14.12    1.57
   6   1  -4   11.71    1.65
  -6   1   4   13.77    1.49
  -5  -1   4    2.59    0.62
   5  -1  -4    3.19    0.57
   5  -1  -4    3.26    0.71
  -5  -1   4    3.65    0.91
   5  -1  -4    2.33    1.04
  -5  -1   4    3.20    0.65
   5  -1  -4    2.77    1.14
  -5  -1   4    3.76    0.98
   5   1  -4    4.20    0.61
  -5   1   4    3.58    0.64
  -5   1   4    3.37    1.15
   5   1  -4    3.86    0.59
   5   1  -4    1.96    0.81
  -5   1   4    2.82    0.79
  -5   1   4    3.04    0.92
   5   1  -4    3.58    0.82
   5   1  -4    3.92    1.06
  -5   1   4    3.02    0.82
   4  -1  -4   61.24    3.99
   4  -1  -4   56.60    3.54
  -4  -1   4   57.74    3.97
  -4  -1   4   54.66    3.62
   4  -1  -4   56.92    3.60
  -4  -1   4   49.18    3.60
  -4  -1   4   56.92    3.82
   4  -1  -4   57.48    3.88
   4   1  -4   60.38    3.95
   4   1  -4   59.18    3.87
   4   1  -4   61.41    3.93
  -4   1   4   60.24    3.93
  -4   1   4   60.06    3.76
   4   1  -4   61.06    3.56
  -4   1   4   61.65    3.62
  -4   1   4   60.52    3.63
  -4   1   4   60.73    3.92
   4   1  -4   60.02    3.62
   3  -1  -4   22.64    2.11
  -3  -1   4   20.31    1.69
   3  -1  -4   22.46    1.59
  -3  -1   4   23.55    2.03
   3  -1  -4   21.91    1.54
   3  -1  -4   22.36    1.78
  -3  -1   4   20.66    1.56
  -3  -1   4   21.57    1.91
  -3   1   4   24.18    1.83
  -3   1   4   24.89    1.57
   3   1  -4   22.38    2.02
  -3   1   4   22.69    1.81
  -3   1   4   23.94    1.82
   3   1  -4   23.07    1.62
   3   1  -4   25.46    2.04
   3   1  -4   20.66    1.76
   3   1  -4   22.62    1.57
  -3   1   4   23.10    1.70
   2  -1  -4   18.01    1.31
  -2  -1   4   18.42    1.41
   2  -1  -4   20.91    1.39
  -2  -1   4   22.17    1.83
   2  -1  -4   19.09    1.43
   2  -1  -4   22.61    1.76
   2  -1  -4   23.89    1.97
  -2  -1   4   22.78    1.80
  -2  -1   4   19.86    1.52
  -2  -1   4   17.60    1.34
  -2   1   4   23.18    1.54
   2   1  -4   19.54    1.59
  -2   1   4   21.72    1.42
  -2   1   4   22.63    1.67
   2   1  -4   22.90    1.42
  -2   1   4   22.24    1.68
   2   1  -4   20.46    1.46
   2   1  -4   15.52    1.67
  -2   1   4   20.06    1.41
  -2   1   4   20.99    1.79
   2   1  -4   20.76    1.80
   1  -1  -4    7.01    0.71
  -1  -1   4    8.49    0.94
  -1  -1   4    6.41    0.68
   1  -1  -4    7.52    1.12
  -1  -1   4    7.74    0.76
   1  -1  -4    6.79    0.72
  -1  -1   4    6.43    0.97
   1  -1  -4    5.85    0.99
  -1   1   4    7.28    0.76
  -1   1   4    7.57    0.87
   1   1  -4    7.28    0.75
   1   1  -4    6.87    0.72
  -1   1   4    7.74    1.03
  -1   1   4    6.36    0.90
  -1   1   4    7.18    0.74
   1   1  -4    6.75    1.07
   1   1  -4    7.19    0.80
  -1   1   4    8.02    0.81
   1   1  -4    6.73    0.85
   0  -1   4  246.08   15.82
   0  -1  -4  285.49   15.47
   0  -1  -4  246.29   15.23
   0  -1  -4  252.27   15.82
   0  -1   4  303.36   15.48
   0  -1   4  266.79   15.49
   0  -1   4  248.99   15.26
   0  -1  -4  295.45   15.50
   0   1   4  281.92   15.83
   0   1  -4  270.88   16.62
   0   1  -4  282.42   15.49
   0   1   4  283.27   16.53
   0   1   4  273.02   15.26
   0   1   4  286.77   15.45
   0   1  -4  258.09   15.44
   0   1   4  259.74   15.45
   0   1  -4  273.65   15.83
   0   1  -4  254.03   15.82
   0   1  -4  261.32   15.23
   1  -1   4   16.76    1.52
   1  -1   4   14.47    1.22
  -1  -1  -4   15.48    1.29
   1  -1   4   14.69    1.31
  -1  -1  -4   16.22    1.55
  -1  -1  -4   15.29    1.52
   1  -1   4   16.83    1.52
  -1  -1  -4   16.02    1.14
   1   1   4   15.38    1.15
  -1   1  -4   15.55    1.52
   1   1   4   17.25    1.42
   1   1   4   16.21    1.34
   1   1   4   17.64    1.44
  -1   1  -4   17.98    1.39
  -1   1  -4   15.72    1.29
  -1   1  -4   15.24    1.20
  -1   1  -4   17.45    1.65
   1   1   4   16.04    1.49
  -2  -1  -4   44.25    3.17
   2  -1   4   37.63    2.65
  -2  -1  -4   43.47    2.75
   2  -1   4   42.50    2.89
   2  -1   4   39.93    2.74
   2  -1   4   44.70    3.06
  -2  -1  -4   43.09    2.99
  -2  -1  -4   42.14    2.73
  -2   1  -4   45.29    2.67
  -2   1  -4   47.03    3.09
   2   1   4   40.35    2.97
  -2   1  -4   42.86    3.05
  -2   1  -4   44.27    2.96
  -2   1  -4   46.01    2.75
   2   1   4   45.34    2.91
   2   1   4   45.01    2.76
   2   1   4   43.78    2.75
   2   1   4   41.19    2.79
  -3  -1  -4   10.67    1.41
   3  -1   4    8.11    0.83
   3  -1   4    7.31    1.16
   3  -1   4    9.32    1.27
  -3  -1  -4    7.74    1.43
   3  -1   4    6.74    0.89
  -3  -1  -4    6.92    0.94
  -3  -1  -4    7.11    0.82
  -3   1  -4    8.19    1.13
   3   1   4    8.80    0.92
   3   1   4    8.16    0.84
  -3   1  -4    8.20    0.97
   3   1   4    7.54    1.17
  -3   1  -4    7.93    1.39
   3   1   4    8.25    1.17
  -3   1  -4    6.75    1.21
   3   1   4    8.10    0.93
  -3   1  -4    7.44    0.83
   4  -1   4   52.15    3.62
  -4  -1  -4   50.93    3.92
  -4  -1  -4   51.63    3.59
  -4  -1  -4   46.96    3.27
   4  -1   4   48.90    3.26
  -4  -1  -4   47.45    3.31
   4  -1   4   51.40    3.55
   4  -1   4   52.98    3.28
   4   1   4   52.31    3.40
  -4   1  -4   55.82    3.34
  -4   1  -4   52.11    3.76
   4   1   4   53.89    3.27
  -4   1  -4   49.92    3.70
  -4   1  -4   48.96    3.50
   4   1   4   52.54    3.52
  -4   1  -4   55.03    3.29
   4   1   4   57.87    3.31
   4   1   4   53.74    3.65
   5  -1   4    2.72    1.07
  -5  -1  -4    4.47    0.71
   5  -1   4    3.55    0.55
  -5  -1  -4    4.57    1.47
  -5  -1  -4    4.38    0.72
  -5  -1  -4    4.78    0.91
   5  -1   4    3.97    0.92
  -5  -1  -4    4.87    1.27
   5   1   4    4.82    0.66
  -5   1  -4    4.54    0.98
  -5   1  -4    3.49    0.88
  -5   1  -4    3.86    1.13
  -5   1  -4    2.00    1.00
   5   1   4    4.72    0.84
   5   1   4    3.61    0.99
   5   1   4    5.81    1.21
   5   1   4    4.70    0.74
  -5   1  -4    4.38    0.75
   6  -1   4   10.93    1.68
  -6  -1  -4    9.21    1.52
  -6   1  -4   13.36    1.48
  -6   1  -4   13.11    2.04
  -6   1  -4   13.96    1.33
   6   1   4   13.75    1.32
   6   1   4   13.44    1.15
   6   1   4   12.34    1.29
  -6   1  -4   13.75    1.37
   6   1   4   12.32    1.72
  -7   1  -4    8.73    1.09
   7   1   4    9.54    1.19
  -7   1  -4    8.98    1.30
   7   1   4    9.36    1.01
   7   1   4    9.25    1.08
  -8   1  -4   25.75    2.10
   8   1   4   24.95    1.93
  -8   1  -4   25.08    2.34
   8   1   4   24.89    2.01
  -8   1  -4   26.13    2.07
   9   1   4    0.84    0.31
  -9   1  -4    0.21    0.37
  -9   1  -4    0.39    0.98
 -10   1  -4    1.08    0.43
  10   1   4    0.62    0.25
 -10   1  -4    2.31    0.74
 -11   1  -4    7.29    0.71
  11   1   4    8.04    0.72
  12   1   4    3.17    0.47
 -12   1  -4    3.74    0.57
  13   1   4    5.61    0.56
 -13   1  -4    4.95    0.85
 -13   1  -4    4.43    0.82
 -13   1  -4    5.65    0.64
 -14  -1  -4    7.42    0.79
 -14   1  -4    6.86    0.93
  14   1   4    8.94    0.69
 -14   1  -4    8.98    0.75
 -14   1  -4    9.53    0.88
 -15  -1  -4    5.21    0.52
  15   1   4    4.54    0.42
 -15   1  -4    3.98    0.61
 -15   1  -4    3.96    0.52
 -16  -1  -4    3.15    0.53
 -16   1  -4    3.06    0.49
 -16   1  -4    2.94    0.36
  16   1   4    3.02    0.39
 -17  -1  -4   -0.26    0.22
  17   1   4   -0.26    0.19
  18   2  -4    0.30    0.31
 -18   2   4    0.54    0.42
 -17   2   4    0.47    0.58
  17   2  -4   -0.64    0.42
  16   2  -4    1.05    0.33
 -16   2   4    0.74    0.59
  16   2  -4    1.88    0.56
  15   2  -4    1.61    0.32
 -15   2   4    2.05    0.72
  15   2  -4    1.63    0.59
 -15   2   4    2.12    0.66
 -14   2   4    8.67    0.76
 -14   2   4   10.62    1.02
  14   2  -4   10.40    0.75
  14   2  -4   10.22    0.90
 -13   2   4    8.41    1.71
  13   2  -4    8.65    1.55
 -13   2   4   11.24    1.01
 -13   2   4    9.73    0.88
  13   2  -4    9.63    0.81
  13   2  -4    8.06    0.86
 -12   2   4   13.35    1.98
 -12   2   4   17.02    1.19
  12   2  -4   22.36    2.45
  12   2  -4   18.68    1.37
 -12   2   4   20.96    2.32
  12   2  -4   18.16    1.16
 -12   2   4   16.42    1.44
  11   2  -4   11.86    1.85
  11   2  -4   13.63    0.91
  11   2  -4   11.74    1.06
 -11   2   4   11.12    1.31
 -11   2   4   14.42    2.11
  11   2  -4   11.16    1.37
 -11   2   4   11.68    1.68
  11   2  -4   10.66    1.53
 -11   2   4   12.33    1.09
 -11   2   4   13.89    1.16
 -11   2   4   14.51    0.95
  10   2  -4    5.50    0.84
 -10   2   4    6.01    0.53
 -10   2   4    5.52    0.62
  10   2  -4    5.54    0.54
  10   2  -4    6.95    1.14
  10   2  -4    6.55    1.38
 -10   2   4    5.19    1.00
 -10   2   4    5.55    1.29
 -10   2   4    6.42    0.69
  10   2  -4    5.36    0.48
 -10   2   4    4.23    1.19
   9   2  -4    1.94    0.26
  -9   2   4    1.84    0.70
  -9   2   4    2.02    0.36
   9   2  -4    2.31    0.72
   9   2  -4    2.06    0.87
  -9   2   4    2.37    1.28
   9   2  -4    2.38    1.09
  -9   2   4    2.07    0.59
  -9   2   4    2.51    0.40
   8   2  -4   42.73    3.02
  -8   2   4   44.87    3.16
   8   2  -4   44.68    3.41
  -8   2   4   45.50    3.04
  -8   2   4   47.28    3.41
   8   2  -4   47.05    3.08
  -7   2   4   -1.22    0.72
  -7   2   4    0.98    0.57
   7   2  -4    0.59    0.70
   7   2  -4   -0.06    0.86
  -7   2   4    0.10    0.98
   6   2  -4   80.39    4.85
   6   2  -4   83.99    4.76
   6   2  -4   79.93    5.25
  -6   2   4   79.61    5.23
  -6   2   4   78.82    4.84
  -6   2   4   65.54    5.14
   6   2  -4   69.80    5.15
  -6   2   4   83.21    4.82
  -5  -2   4    4.25    0.96
   5  -2  -4    5.29    1.15
   5  -2  -4    5.29    1.05
  -5  -2   4    4.04    1.14
  -5   2   4    3.37    1.03
  -5   2   4    3.09    0.47
  -5   2   4    3.50    0.60
  -5   2   4    4.08    0.78
   5   2  -4    3.86    0.93
   5   2  -4    4.42    0.64
   5   2  -4    3.71    0.95
   5   2  -4    4.55    0.73
   5   2  -4    4.19    1.10
  -5   2   4    4.47    0.80
  -5   2   4    3.71    0.80
   4  -2  -4  113.92    6.66
  -4  -2   4  110.22    6.65
   4  -2  -4  114.81    6.73
  -4  -2   4  108.69    6.76
   4   2  -4  119.07    6.39
  -4   2   4  107.42    6.64
   4   2  -4  110.96    7.00
  -4   2   4  108.74    6.69
  -4   2   4   97.56    6.33
  -4   2   4   95.48    6.54
   4   2  -4   89.43    6.61
   4   2  -4  113.79    6.58
   4   2  -4  110.80    6.70
  -4   2   4  109.29    6.57
  -4   2   4  119.22    6.57
  -4   2   4  116.65    7.06
  -4   2   4  121.67    6.43
  -3  -2   4    7.60    1.02
   3  -2  -4    7.08    1.07
  -3  -2   4    5.99    1.05
   3  -2  -4    6.44    0.96
   3   2  -4    5.72    0.73
  -3   2   4    5.49    0.63
   3   2  -4    7.21    0.68
   3   2  -4    8.32    1.01
   3   2  -4    7.29    0.75
  -3   2   4    7.17    0.79
   3   2  -4    5.26    0.95
  -3   2   4    6.79    1.07
  -3   2   4    6.04    0.83
   3   2  -4    7.30    1.04
  -3   2   4    5.21    0.60
   3   2  -4    5.30    0.59
  -3   2   4    7.26    0.73
  -3   2   4    7.51    1.02
  -3   2   4    7.40    0.76
   2  -2  -4  182.23   10.38
   2  -2  -4  181.93   10.43
  -2  -2   4  184.51   10.44
  -2  -2   4  183.76   10.40
   2   2  -4  190.24   10.16
  -2   2   4  180.37   10.52
   2   2  -4  182.68   10.42
  -2   2   4  167.30   10.52
  -2   2   4  164.71   10.13
   2   2  -4  184.76   11.16
  -2   2   4  177.54   10.18
   2   2  -4  191.30   10.54
   2   2  -4  179.49   10.36
   2   2  -4  173.00   10.53
  -2   2   4  175.77   10.73
  -2   2   4  176.80   11.13
  -2   2   4  168.13   10.33
  -2   2   4  180.09   10.39
   2   2  -4  174.27   10.18
   1  -2  -4  128.08    7.42
  -1  -2   4  132.11    7.38
   1  -2  -4  128.01    7.38
  -1  -2   4  127.59    7.41
   1   2  -4  120.37    7.40
   1   2  -4  130.20    7.89
  -1   2   4  121.57    7.32
  -1   2   4  125.26    7.61
  -1   2   4  115.73    7.13
  -1   2   4  125.92    7.38
   1   2  -4  130.06    7.15
  -1   2   4  114.73    7.40
   1   2  -4  121.47    7.42
  -1   2   4  131.53    7.18
  -1   2   4  127.95    7.40
   1   2  -4  128.72    7.40
   1   2  -4  112.94    7.18
   1   2  -4  130.98    8.23
   1   2  -4  120.14    7.35
  -1   2   4  130.10    7.84
   0  -2  -4  168.07    9.21
   0  -2   4  159.63    9.18
   0  -2  -4  158.80    9.16
   0  -2   4  157.37    9.12
   0   2  -4  162.35    9.15
   0   2   4  149.96    9.26
   0   2  -4  157.56    9.24
   0   2   4  154.85    9.10
   0   2  -4  147.37    9.24
   0   2   4  155.12    9.25
   0   2  -4  161.65    9.81
   0   2   4  156.85    9.15
   0   2  -4  157.08    9.18
   0   2   4  169.96    8.95
   0   2   4  142.75    8.90
   0   2  -4  143.68    8.95
   0   2  -4  157.75   10.25
   0   2   4  160.28    9.78
   0   2   4  153.96    9.46
   0   2  -4  165.73    8.93
  -1  -2  -4    1.49    0.85
   1  -2   4    0.69    0.70
   1  -2   4    0.52    0.65
  -1  -2  -4    1.75    0.82
   1   2   4    0.80    0.39
  -1   2  -4   -0.13    0.45
  -1   2  -4    1.03    0.88
  -1   2  -4    1.05    0.35
  -1   2  -4    0.42    0.71
  -1   2  -4    1.47    0.39
   1   2   4    1.12    0.29
   1   2   4    0.90    0.53
   1   2   4    0.98    0.39
  -1   2  -4    2.11    0.71
   1   2   4    1.30    0.70
   1   2   4    0.71    0.51
  -1   2  -4    0.75    0.24
   1   2   4    0.48    0.76
   1   2   4    0.35    0.60
  -1   2  -4    0.84    0.75
   1   2   4    1.09    0.43
  -1   2  -4    0.88    0.50
  -2  -2  -4    3.67    1.05
   2  -2   4    4.00    0.93
   2  -2   4    3.71    0.88
  -2  -2  -4    6.01    1.11
  -2   2  -4    4.29    0.90
   2   2   4    5.46    0.81
  -2   2  -4    4.28    0.79
   2   2   4    4.17    0.87
  -2   2  -4    4.36    0.53
   2   2   4    4.81    0.79
  -2   2  -4    6.03    0.61
   2   2   4    3.73    0.88
  -2   2  -4    6.03    0.92
  -2   2  -4    4.23    0.53
   2   2   4    3.94    0.84
   2   2   4    4.44    0.60
   2   2   4    6.21    0.68
   2   2   4    4.39    0.58
  -2   2  -4    4.69    0.65
  -2   2  -4    5.92    1.07
  -2   2  -4    4.50    1.07
  -3  -2  -4   12.90    1.66
   3  -2   4   13.67    1.41
   3  -2   4   13.22    1.46
  -3  -2  -4   13.12    1.59
  -3   2  -4   14.98    1.64
  -3   2  -4   13.94    1.15
  -3   2  -4   12.94    1.55
   3   2   4   15.41    1.48
   3   2   4   14.12    1.26
   3   2   4   14.30    1.46
  -3   2  -4   13.92    1.28
  -3   2  -4   14.84    1.51
   3   2   4    8.63    1.25
   3   2   4   13.92    1.18
   4  -2   4   46.19    3.35
  -4  -2  -4   39.85    3.40
   4   2   4   39.15    3.19
   4   2   4   44.73    3.31
   4   2   4   49.62    3.01
   4   2   4   46.38    2.97
  -4   2  -4   39.16    3.23
  -4   2  -4   53.07    3.02
  -4   2  -4   42.48    3.40
  -4   2  -4   48.57    3.00
  -4   2  -4   45.43    3.56
   4   2   4   51.94    3.21
  -5   2  -4    1.91    0.77
   5   2   4    0.36    0.66
  -5   2  -4    1.92    0.62
   5   2   4    1.54    0.74
  -5   2  -4    2.13    0.99
   5   2   4    1.86    0.61
   5   2   4    1.35    1.00
  -6   2  -4    9.93    1.08
   6   2   4   11.62    1.10
  -6   2  -4    8.65    1.40
   6   2   4    9.05    1.13
   6   2   4    8.29    1.11
  -7   2  -4   45.48    3.24
   7   2   4   46.60    3.23
  -7   2  -4   50.34    3.81
  -7   2  -4   50.90    3.28
   7   2   4   46.12    3.31
   7   2   4   47.42    3.23
  -8   2  -4    0.41    0.53
   8   2   4    0.32    0.20
  -8   2  -4    0.64    0.33
   8   2   4    0.49    0.79
   8   2   4    0.62    0.69
  -8   2  -4    2.00    0.86
  -8   2  -4    1.23    0.75
  -8   2  -4    1.24    0.94
   8   2   4    1.41    0.74
   9   2   4    3.20    1.03
  -9   2  -4    4.67    1.02
  -9   2  -4    5.71    1.22
  -9   2  -4    4.28    1.34
   9   2   4    4.09    0.42
  -9   2  -4    3.74    0.48
  -9   2  -4    3.78    0.47
   9   2   4    3.99    0.53
   9   2   4    5.21    0.87
  -9   2  -4    4.87    0.69
  10   2   4   31.32    1.90
 -10   2  -4   29.98    2.87
 -10   2  -4   34.53    2.24
  10   2   4   35.75    2.80
  10   2   4   33.80    2.16
 -10   2  -4   28.32    2.50
 -10   2  -4   34.94    1.95
  10   2   4   31.10    2.62
 -10   2  -4   36.24    2.13
 -11   2  -4    3.79    0.43
  11   2   4    3.44    0.48
 -11   2  -4    4.51    1.38
 -11   2  -4    3.84    0.80
 -11   2  -4    3.02    1.08
 -11   2  -4    2.72    1.29
 -11   2  -4    5.05    0.73
  11   2   4    3.56    0.44
 -12   2  -4    0.33    0.41
  12   2   4    0.25    0.34
  12   2   4    0.32    0.50
  12   2   4   -0.79    0.33
 -12   2  -4    0.32    0.68
 -12   2  -4    0.54    0.62
  13   2   4   -0.29    0.32
 -13   2  -4    0.40    0.71
 -13   2  -4    0.66    0.63
 -13   2  -4    0.48    0.40
  13   2   4   -0.58    0.47
  13   2   4    0.13    0.34
 -14   2  -4    0.72    0.50
  14   2   4    0.65    0.35
 -14   2  -4    1.95    0.51
  14   2   4    0.92    0.37
 -14   2  -4    1.50    0.34
 -15   2  -4    0.20    0.61
 -15   2  -4    0.30    0.21
 -15   2  -4    0.79    0.42
  15   2   4    0.39    0.27
  15   2   4    0.25    0.33
 -16   2  -4    0.11    0.38
  16   2   4    0.19    0.29
  16   2   4    0.07    0.13
 -16   2  -4    0.63    0.36
  17   3  -4   10.70    0.88
 -17   3   4    9.26    0.98
 -16   3   4   27.27    1.96
 -16   3   4   31.34    2.21
  16   3  -4   31.71    2.04
  15   3  -4   -0.90    0.62
 -15   3   4    0.04    0.41
 -15   3   4    0.54    0.86
 -15   3   4   -0.76    0.59
  15   3  -4    0.04    0.36
 -14   3   4    0.44    0.61
  14   3  -4    0.85    0.54
 -14   3   4    1.10    0.64
 -14   3   4    0.28    0.60
  14   3  -4    0.90    0.48
 -13   3   4    1.20    0.59
  13   3  -4    1.45    0.42
 -13   3   4    2.06    0.48
 -13   3   4    1.78    0.66
  13   3  -4    1.50    0.35
  12   3  -4    6.29    0.63
  12   3  -4    7.29    1.89
  12   3  -4    6.12    0.52
 -12   3   4    5.35    1.00
  12   3  -4    5.57    0.57
 -12   3   4    5.85    1.93
 -12   3   4    6.22    0.66
 -12   3   4    6.52    0.57
 -12   3   4    6.35    0.64
 -11   3   4    7.83    1.58
  11   3  -4    5.91    0.64
  11   3  -4    6.93    0.51
 -11   3   4    6.28    0.73
 -11   3   4    5.53    1.31
  11   3  -4    6.34    1.39
 -11   3   4    4.42    1.04
 -11   3   4    7.12    0.58
  11   3  -4    4.25    1.18
  11   3  -4    4.34    0.85
  11   3  -4    6.61    0.69
 -11   3   4    6.74    0.84
 -11   3   4    6.30    0.62
 -10   3   4   -1.32    1.40
  10   3  -4    0.67    0.42
  10   3  -4    0.00    0.93
  10   3  -4   -0.28    1.30
 -10   3   4   -0.47    0.43
  10   3  -4   -0.40    0.63
 -10   3   4    2.01    1.00
 -10   3   4    1.51    0.70
 -10   3   4   -0.74    0.73
 -10   3   4    0.47    0.32
  10   3  -4    0.28    0.27
 -10   3   4    0.07    0.45
  10   3  -4    0.29    0.28
   9   3  -4    8.73    1.22
   9   3  -4    8.75    1.09
   9   3  -4    8.69    0.63
  -9   3   4    9.00    1.28
  -9   3   4    7.10    1.05
  -9   3   4    9.22    0.85
  -9   3   4    9.97    1.00
  -9   3   4    8.37    0.92
  -9   3   4   10.58    1.79
  -9   3   4    9.16    0.62
  -9   3   4    7.49    0.86
   9   3  -4    9.96    1.44
   9   3  -4    8.74    0.82
  -9   3   4    8.71    0.77
   9   3  -4    8.51    0.76
   8   3  -4   17.78    1.18
  -8   3   4   21.04    1.85
  -8   3   4   19.94    1.36
   8   3  -4   20.77    1.66
  -8   3   4   19.81    1.14
  -8   3   4   20.93    2.23
  -8   3   4   18.81    1.64
   8   3  -4   22.57    1.96
  -8   3   4   20.50    1.29
  -8   3   4   19.54    1.64
   8   3  -4   19.85    1.28
   8   3  -4   19.20    1.14
   8   3  -4   20.94    2.21
  -7   3   4   11.03    1.22
  -7   3   4   10.63    1.62
   7   3  -4   10.59    1.54
   7   3  -4   14.65    1.35
  -7   3   4   11.02    1.15
   7   3  -4   12.49    1.18
   6   3  -4   15.15    1.73
  -6   3   4   15.28    1.46
   6   3  -4   17.82    1.45
  -6   3   4   16.13    1.83
  -6   3   4   16.72    1.31
   5   3  -4   23.27    2.11
  -5   3   4   21.52    1.68
  -5   3   4   21.74    2.17
   5   3  -4   23.90    1.63
  -5   3   4   23.26    1.60
   5   3  -4   22.86    1.69
  -4   3   4  128.06    6.88
   4   3  -4   98.87    7.49
  -4   3   4  123.46    7.46
   4   3  -4  117.72    6.69
  -4   3   4  110.28    6.63
  -4   3   4  111.39    6.97
  -4   3   4  107.45    6.85
  -4   3   4  121.03    6.68
   4   3  -4  115.28    7.41
   4   3  -4  126.95    6.91
  -4   3   4  107.78    6.84
   3  -3  -4   20.74    1.79
  -3  -3   4   18.31    1.78
  -3   3   4   19.85    1.60
   3   3  -4   23.83    1.96
   3   3  -4   19.17    1.72
  -3   3   4   20.59    1.42
   3   3  -4   20.84    1.43
   3   3  -4   21.67    1.72
   3   3  -4   24.53    1.50
  -3   3   4   24.13    1.87
  -3   3   4   22.04    1.62
  -3   3   4   20.21    1.69
  -3   3   4   20.51    1.42
  -3   3   4   22.66    1.53
  -3   3   4   23.40    1.47
   3   3  -4   23.20    1.55
   3   3  -4   17.43    1.50
   3   3  -4   21.19    1.73
   2  -3  -4   23.20    1.72
   2  -3  -4   22.48    1.69
  -2  -3   4   22.05    1.74
  -2  -3   4   19.56    1.82
   2   3  -4   21.08    1.89
   2   3  -4   25.85    1.99
   2   3  -4   24.13    1.52
  -2   3   4   20.15    1.43
   2   3  -4   20.72    1.79
   2   3  -4   23.27    1.48
  -2   3   4   18.93    1.55
  -2   3   4   22.74    2.00
  -2   3   4   21.72    1.47
  -2   3   4   23.95    1.46
   2   3  -4   25.20    1.52
  -2   3   4   21.29    1.68
  -2   3   4   23.88    1.53
  -2   3   4   22.58    1.75
   2   3  -4   20.91    1.79
   2   3  -4   21.03    1.52
   1  -3  -4    0.87    0.61
  -1  -3   4    0.73    0.60
  -1  -3   4    0.72    0.55
   1  -3  -4    0.12    0.53
   1   3  -4    0.33    0.52
  -1   3   4    1.08    0.35
  -1   3   4    0.46    0.47
  -1   3   4    0.28    0.63
  -1   3   4    0.89    0.43
   1   3  -4    0.91    0.35
   1   3  -4    1.54    0.82
   1   3  -4    0.90    0.44
   1   3  -4    0.66    0.25
  -1   3   4    0.36    0.31
  -1   3   4    0.11    0.59
   1   3  -4    1.21    0.53
   1   3  -4    1.46    0.60
   1   3  -4    0.47    0.28
  -1   3   4    0.76    0.27
  -1   3   4    0.95    0.41
   0  -3  -4  183.16   10.81
   0  -3  -4  182.57   10.81
   0  -3   4  184.43   10.77
   0  -3   4  184.26   10.79
   0   3   4  182.12   10.76
   0   3   4  193.02   11.67
   0   3   4  181.78   10.74
   0   3  -4  183.37   12.20
   0   3  -4  176.46   10.97
   0   3  -4  179.01   10.78
   0   3  -4  196.44   10.58
   0   3   4  180.57   10.56
   0   3   4  185.18   10.98
   0   3   4  204.19   10.97
   0   3  -4  172.95   10.78
   0   3  -4  169.41   10.58
   0   3  -4  190.78   11.70
   0   3   4  195.68   10.59
   0   3  -4  202.11   10.97
   0   3   4  199.76   11.32
   1  -3   4    4.13    0.78
  -1  -3  -4    4.22    0.84
   1  -3   4    4.37    0.71
  -1  -3  -4    1.97    0.87
  -1   3  -4    5.20    0.65
   1   3   4    5.52    0.65
  -1   3  -4    4.27    0.46
   1   3   4    4.83    0.82
  -1   3  -4    5.43    0.82
  -1   3  -4    4.53    0.59
   1   3   4    4.24    0.81
   1   3   4    3.06    0.63
  -1   3  -4    5.25    1.11
  -1   3  -4    5.35    0.83
   1   3   4    4.35    0.54
   1   3   4    5.26    0.76
  -1   3  -4    4.90    0.52
   1   3   4    4.90    0.53
   1   3   4    4.82    0.57
  -1   3  -4    4.55    0.78
   1   3   4    4.63    0.51
  -2  -3  -4   15.69    1.62
   2  -3   4   15.98    1.44
  -2   3  -4   17.10    1.80
   2   3   4   16.07    1.24
  -2   3  -4   14.24    1.13
   2   3   4   19.79    1.69
  -2   3  -4   14.70    1.20
  -2   3  -4   15.45    1.48
  -2   3  -4   20.44    1.66
   2   3   4   18.60    1.29
   2   3   4   18.90    1.70
  -2   3  -4   17.41    1.35
   2   3   4   16.25    1.49
  -2   3  -4   16.20    1.64
   2   3   4   16.91    1.20
  -2   3  -4   20.05    1.24
   2   3   4   17.65    1.56
   2   3   4   18.22    1.26
  -2   3  -4   16.03    1.27
   2   3   4   13.98    1.21
   3   3   4   67.88    3.98
   3   3   4   68.10    4.08
  -3   3  -4   70.85    4.04
   3   3   4   58.07    4.25
  -3   3  -4   58.64    4.21
  -3   3  -4   68.13    4.83
   3   3   4   70.59    4.38
  -3   3  -4   68.57    3.97
  -4   3  -4    5.25    1.22
  -4   3  -4    2.63    0.59
  -4   3  -4    4.92    0.62
   4   3   4    3.93    0.71
   4   3   4    4.79    0.68
   4   3   4    3.89    0.67
  -4   3  -4    3.23    0.70
   4   3   4    4.66    0.94
  -5   3  -4    0.29    0.48
   5   3   4    0.04    0.77
   5   3   4    0.58    0.63
   5   3   4   -0.30    0.80
   5   3   4    0.36    0.54
  -5   3  -4    0.00    0.54
  -5   3  -4   -1.11    1.02
   6   3   4   23.48    2.15
   6   3   4   25.80    1.93
  -6   3  -4   23.23    1.86
  -6   3  -4   18.90    1.99
   6   3   4   23.38    2.13
  -6   3  -4   24.69    1.95
  -6   3  -4   26.12    2.60
   6   3   4   27.89    1.92
  -7   3  -4   15.47    1.47
  -7   3  -4   15.58    1.48
   7   3   4   13.58    0.88
   7   3   4   13.65    1.06
   7   3   4   16.67    1.75
   7   3   4   13.64    1.01
  -7   3  -4   16.38    2.03
   7   3   4   16.94    1.51
  -7   3  -4   16.81    1.54
  -7   3  -4   14.92    1.04
  -7   3  -4   14.11    1.69
   7   3   4   14.77    1.48
  -7   3  -4   15.62    1.14
   7   3   4   15.58    1.48
  -7   3  -4   14.14    0.90
  -7   3  -4   13.38    1.15
   8   3   4    7.53    0.75
   8   3   4    6.85    1.37
   8   3   4    8.04    1.10
  -8   3  -4    7.38    1.07
  -8   3  -4    7.32    0.95
  -8   3  -4    8.27    1.43
   8   3   4    7.33    1.16
   8   3   4    6.27    0.63
  -8   3  -4    6.84    0.58
   8   3   4    7.66    1.23
   8   3   4    7.18    0.56
  -8   3  -4    7.47    0.68
  -8   3  -4    7.49    1.24
  -8   3  -4    6.53    1.59
  -8   3  -4    7.04    0.71
  -8   3  -4    7.45    0.75
  -8   3  -4    6.90    0.77
  -9   3  -4    1.17    1.27
  -9   3  -4    1.18    0.51
   9   3   4   -0.27    0.50
  -9   3  -4    0.59    0.46
   9   3   4    0.80    0.80
  -9   3  -4    0.63    0.70
  -9   3  -4    1.53    1.01
   9   3   4    0.71    0.27
   9   3   4   -0.85    0.83
  -9   3  -4    0.47    0.76
  -9   3  -4    0.71    0.29
   9   3   4    0.60    0.29
   9   3   4    0.22    0.91
   9   3   4   -0.12    1.16
  10   3   4   10.44    1.05
 -10   3  -4   13.65    1.32
  10   3   4   13.21    1.14
  10   3   4   12.71    2.00
  10   3   4   15.51    1.10
  10   3   4   12.79    0.81
 -10   3  -4   13.34    1.04
 -10   3  -4   11.26    1.43
  10   3   4   11.31    1.49
 -10   3  -4   12.94    0.92
 -10   3  -4   13.71    1.00
 -10   3  -4   12.53    1.72
  10   3   4   10.67    1.55
 -10   3  -4   13.42    1.80
 -11   3  -4   17.99    1.47
 -11   3  -4   18.83    1.21
  11   3   4   20.73    1.44
 -11   3  -4   19.84    1.87
  11   3   4   19.95    1.45
  11   3   4   20.83    1.19
 -11   3  -4   20.29    1.51
  11   3   4   18.64    1.61
 -12   3  -4    4.20    0.86
 -12   3  -4    5.80    0.49
  12   3   4    4.16    0.70
 -12   3  -4    5.28    0.78
 -12   3  -4    4.85    0.72
  12   3   4    4.33    0.43
  12   3   4    4.97    0.65
 -12   3  -4    5.69    0.75
  13   3   4   13.49    1.02
  13   3   4   13.60    0.84
 -13   3  -4   11.78    1.07
 -13   3  -4   13.78    1.22
 -13   3  -4   12.64    1.29
 -13   3  -4   12.69    1.39
  13   3   4   13.38    1.23
 -14   3  -4   -0.65    0.57
  14   3   4    0.31    0.47
  14   3   4   -0.07    0.32
  14   3   4   -0.20    0.22
 -14   3  -4    0.29    0.52
 -14   3  -4    0.32    0.74
 -14   3  -4    1.91    0.67
 -15   3  -4    1.74    0.43
 -15   3  -4    0.90    0.49
  15   3   4    2.04    0.39
 -15   3  -4    1.75    0.66
  15   3   4    2.38    0.48
 -15   3  -4    0.91    0.39
 -16   3  -4    2.25    0.29
  16   3   4    1.89    0.31
 -16   3  -4    2.66    0.39
 -17   4   4    1.41    0.39
  17   4  -4    1.93    0.37
 -16   4   4    7.55    0.98
  16   4  -4    5.08    0.74
 -15   4   4    5.60    0.61
 -15   4   4    5.70    0.83
  15   4  -4    4.76    0.62
  15   4  -4    5.68    0.66
  15   4  -4    4.71    0.58
 -14   4   4    6.96    1.14
 -14   4   4    9.33    0.86
  14   4  -4    7.11    0.91
  14   4  -4    8.22    0.75
  14   4  -4    7.65    0.75
 -13   4   4   31.89    1.84
  13   4  -4   30.62    2.16
  13   4  -4   29.87    1.88
 -13   4   4   29.19    2.45
  13   4  -4   27.92    1.77
 -13   4   4   26.35    1.91
  12   4  -4   13.44    1.18
 -12   4   4   12.22    1.17
 -12   4   4   12.48    1.34
 -12   4   4   13.93    1.41
  12   4  -4   12.18    1.08
 -12   4   4   13.99    1.11
  12   4  -4   12.05    0.98
  11   4  -4    0.56    0.45
 -11   4   4   -0.60    0.49
  11   4  -4    0.33    0.68
 -11   4   4    0.09    0.83
  11   4  -4   -0.03    0.45
 -11   4   4   -0.04    0.45
 -11   4   4    1.43    1.82
  11   4  -4    0.16    0.16
  11   4  -4    1.67    1.57
 -11   4   4    0.50    0.65
  10   4  -4   55.95    3.81
 -10   4   4   55.01    4.04
 -10   4   4   52.90    3.75
  10   4  -4   56.28    3.41
  10   4  -4   62.33    3.72
  10   4  -4   57.30    4.66
  10   4  -4   58.45    3.05
 -10   4   4   59.60    3.44
  10   4  -4   56.70    3.87
 -10   4   4   54.88    3.81
 -10   4   4   55.01    3.23
 -10   4   4   60.25    3.99
  10   4  -4   54.10    3.17
 -10   4   4   56.04    3.72
 -10   4   4   49.67    4.76
  -9   4   4    0.55    0.93
   9   4  -4    0.62    0.80
  -9   4   4    0.48    0.37
   9   4  -4    0.15    0.36
  -9   4   4   -0.08    0.37
  -9   4   4    0.44    0.42
   9   4  -4    2.14    1.40
   9   4  -4    0.43    0.19
  -9   4   4    0.27    0.61
   9   4  -4   -0.01    0.36
   9   4  -4    0.12    0.39
  -9   4   4    0.96    0.53
  -9   4   4    0.64    1.12
  -9   4   4    0.39    0.59
   9   4  -4    0.24    0.42
   9   4  -4   -0.14    0.40
   9   4  -4    0.55    0.62
  -9   4   4    0.03    0.44
  -8   4   4    1.14    0.57
   8   4  -4   -0.39    1.21
  -8   4   4    0.38    0.27
   8   4  -4   -0.94    0.64
  -8   4   4    0.40    0.33
   8   4  -4    0.61    0.43
  -8   4   4    1.48    1.44
   8   4  -4    0.49    0.42
   8   4  -4    0.47    0.58
   8   4  -4    0.96    0.36
  -8   4   4    1.06    0.87
   8   4  -4    0.63    0.16
  -8   4   4    0.77    0.47
   8   4  -4    0.14    0.34
   8   4  -4    0.72    0.55
   8   4  -4    0.06    0.33
  -8   4   4    0.42    0.64
  -8   4   4    1.10    0.51
  -8   4   4    0.82    0.57
   7   4  -4    7.11    1.02
   7   4  -4    7.07    0.71
   7   4  -4    8.24    0.78
  -7   4   4    7.60    0.76
  -7   4   4    7.58    0.98
  -7   4   4    6.32    0.58
   7   4  -4    8.49    0.90
   7   4  -4    6.19    0.55
   7   4  -4    6.31    0.69
   7   4  -4    7.33    0.64
  -7   4   4    6.38    0.74
  -7   4   4    7.12    0.84
  -7   4   4    7.00    0.86
  -7   4   4    6.21    0.84
   7   4  -4    8.77    1.52
   7   4  -4    8.42    0.80
  -7   4   4    6.91    1.61
  -7   4   4    6.31    0.60
   6   4  -4   -0.50    1.01
  -6   4   4   -0.18    0.46
   6   4  -4   -0.05    0.27
   6   4  -4    0.09    0.33
  -6   4   4   -0.53    0.45
   6   4  -4   -0.20    0.44
   6   4  -4   -0.07    0.52
  -6   4   4    0.10    0.29
  -6   4   4    0.89    0.88
  -6   4   4   -0.10    0.28
  -6   4   4    0.87    0.53
  -6   4   4   -0.28    0.36
   6   4  -4    0.07    0.28
   6   4  -4    0.59    0.41
  -6   4   4   -0.18    0.57
   6   4  -4   -0.02    0.24
  -5   4   4   -0.62    0.52
   5   4  -4   -0.17    0.45
   5   4  -4   -0.32    0.95
  -5   4   4   -0.04    1.02
   5   4  -4   -0.09    0.45
  -5   4   4   -0.42    0.36
   4   4  -4  139.13    7.61
  -4   4   4  127.52    8.56
  -4   4   4  136.50    7.57
   4   4  -4  137.67    7.87
  -4   4   4  135.31    7.82
   4   4  -4  133.47    8.60
  -4   4   4  125.15    7.82
  -4   4   4  124.12    7.53
  -3   4   4    4.61    0.44
   3   4  -4    5.37    1.10
  -3   4   4    4.68    0.49
   3   4  -4    5.13    0.74
   3   4  -4    5.62    0.57
  -3   4   4    4.24    0.70
  -3   4   4    3.54    0.59
   3   4  -4    5.49    0.52
  -3   4   4    5.30    0.49
  -3   4   4    5.52    1.15
  -3   4   4    5.59    0.52
   2   4  -4    0.23    0.34
  -2   4   4    0.12    0.18
  -2   4   4   -0.34    0.58
   2   4  -4   -0.45    0.80
   2   4  -4    0.39    0.24
  -2   4   4   -0.34    0.20
  -2   4   4    0.09    0.16
  -2   4   4    1.01    0.90
   2   4  -4   -0.38    0.84
  -2   4   4    0.00    0.17
   1   4  -4    0.66    0.28
   1   4  -4    1.86    0.91
  -1   4   4    0.77    0.16
   1   4  -4    0.48    0.22
  -1   4   4    0.93    0.66
   1   4  -4    0.55    0.27
  -1   4   4    0.36    0.67
  -1   4   4    0.62    0.16
  -1   4   4    0.64    0.16
   1   4  -4    0.43    0.44
   1   4  -4    1.14    0.83
   1   4  -4    0.40    0.21
  -1   4   4    0.92    0.16
   0   4   4  155.10    8.57
   0   4  -4  142.12    9.34
   0   4   4  148.55    8.25
   0   4   4  151.39    9.03
   0   4   4  145.02    8.24
   0   4   4  149.89    8.57
   0   4  -4  145.91    8.25
   0   4  -4  152.99    9.79
   0   4  -4  136.14    8.56
   0   4   4  146.26    9.35
   0   4  -4  138.14    8.25
  -1   4  -4    0.06    0.80
  -1   4  -4   -1.21    0.89
   1   4   4   -0.01    0.27
  -1   4  -4    0.64    0.49
  -1   4  -4    0.06    0.29
   1   4   4   -0.38    0.31
  -1   4  -4    0.13    0.22
   1   4   4   -0.10    0.26
   1   4   4    1.27    0.81
   1   4   4    0.26    0.24
   1   4   4    1.15    0.88
  -2   4  -4   -0.28    0.34
  -2   4  -4    0.35    0.27
  -2   4  -4    0.02    0.55
   2   4   4    0.60    0.34
   2   4   4   -0.04    0.38
   2   4   4    1.12    0.82
   2   4   4   -0.31    0.27
  -2   4  -4   -0.51    0.25
   2   4   4    0.03    0.24
  -2   4  -4    0.83    0.77
   2   4   4    0.34    0.63
  -3   4  -4   -0.27    0.29
   3   4   4    0.14    0.41
   3   4   4    0.28    0.82
  -3   4  -4   -0.24    0.24
  -3   4  -4    0.20    0.34
   3   4   4   -0.46    0.44
  -3   4  -4    0.45    0.41
  -3   4  -4   -1.03    0.98
  -4   4  -4   36.76    2.38
   4   4   4   33.87    2.22
   4   4   4   41.29    2.94
  -4   4  -4   38.30    2.41
  -4   4  -4   39.28    2.63
   4   4   4   41.32    2.55
   4   4   4   38.90    2.41
  -4   4  -4   34.33    2.08
  -4   4  -4   35.64    2.39
  -4   4  -4   37.42    3.32
   5   4   4   27.25    2.24
  -5   4  -4   32.47    1.82
   5   4   4   35.17    2.20
   5   4   4   35.03    2.28
  -5   4  -4   32.87    2.23
  -5   4  -4   35.29    2.09
   5   4   4   29.72    2.17
  -5   4  -4   34.56    3.13
  -5   4  -4   29.24    2.17
   5   4   4   30.80    1.92
   5   4   4   31.60    2.22
  -5   4  -4   29.80    2.34
  -5   4  -4   30.85    2.18
   5   4   4   31.54    2.66
  -5   4  -4   33.61    2.11
   5   4   4   31.72    1.79
  -5   4  -4   30.28    1.94
  -6   4  -4   28.99    3.11
   6   4   4   30.91    2.21
   6   4   4   31.44    1.78
   6   4   4   31.98    2.17
  -6   4  -4   32.21    2.32
  -6   4  -4   30.84    2.28
   6   4   4   29.58    2.07
  -6   4  -4   28.90    2.21
  -6   4  -4   29.76    2.07
  -6   4  -4   29.56    1.91
   6   4   4   29.30    1.88
   6   4   4   34.23    2.33
  -6   4  -4   32.92    2.16
  -6   4  -4   29.52    1.78
   6   4   4   27.69    2.17
   6   4   4   29.36    2.46
   7   4   4    2.27    0.81
  -7   4  -4    1.13    0.54
  -7   4  -4    1.96    0.40
  -7   4  -4    1.45    0.51
   7   4   4    0.55    0.55
   7   4   4    2.24    0.45
  -7   4  -4    1.80    0.95
  -7   4  -4    1.46    0.40
   7   4   4    1.41    0.37
   7   4   4    1.36    0.67
   7   4   4    1.29    0.17
  -7   4  -4    1.02    0.45
  -7   4  -4    1.22    0.57
  -7   4  -4    1.65    1.44
   7   4   4    1.13    0.46
   7   4   4    0.89    0.48
   7   4   4    1.66    0.35
   7   4   4    2.15    0.76
  -8   4  -4   46.58    3.43
  -8   4  -4   51.49    3.58
  -8   4  -4   49.64    3.09
   8   4   4   50.12    2.73
  -8   4  -4   47.13    4.42
  -8   4  -4   52.15    3.40
   8   4   4   50.96    3.53
   8   4   4   55.86    3.38
  -8   4  -4   51.04    3.39
   8   4   4   53.94    3.50
   8   4   4   48.31    3.28
   8   4   4   47.98    3.67
   8   4   4   46.98    3.46
  -8   4  -4   54.43    3.79
  -8   4  -4   51.25    2.91
   8   4   4   54.62    3.09
  -9   4  -4   10.94    1.12
   9   4   4    8.57    0.83
  -9   4  -4    7.50    0.99
  -9   4  -4    5.48    1.85
   9   4   4    9.71    0.77
   9   4   4    7.93    1.39
   9   4   4    8.25    0.95
  -9   4  -4    9.09    1.17
   9   4   4    8.94    0.57
  -9   4  -4    9.52    0.87
  -9   4  -4   10.62    0.82
   9   4   4    7.26    1.27
  -9   4  -4    9.91    1.43
   9   4   4    6.94    1.13
   9   4   4    8.75    0.90
 -10   4  -4    7.58    1.10
 -10   4  -4    5.72    0.78
 -10   4  -4    9.01    0.84
  10   4   4    7.28    0.69
 -10   4  -4    6.38    1.88
  10   4   4    5.40    1.09
  10   4   4    7.14    0.87
  10   4   4    6.86    0.62
  10   4   4    7.03    0.46
  10   4   4    6.87    0.74
 -10   4  -4    7.13    0.75
  11   4   4    0.25    0.44
 -11   4  -4    0.65    0.40
 -11   4  -4    0.76    0.47
 -11   4  -4    0.30    0.67
 -11   4  -4    0.63    0.83
  11   4   4    0.56    0.48
  11   4   4    0.51    0.58
  11   4   4    0.52    0.44
 -12   4  -4   18.09    1.63
  12   4   4   17.72    1.58
 -12   4  -4   18.80    1.44
 -12   4  -4   19.51    1.34
 -12   4  -4   19.19    1.67
  12   4   4   18.52    1.28
  12   4   4   20.46    1.52
  12   4   4   17.85    1.26
  13   4   4   10.65    1.19
 -13   4  -4   13.03    1.29
  13   4   4   13.07    1.02
  13   4   4   14.40    1.10
 -13   4  -4   14.63    1.21
  13   4   4   13.19    1.16
 -13   4  -4   12.34    0.98
  14   4   4   16.02    1.38
  14   4   4   19.49    1.28
 -14   4  -4   19.52    1.69
  14   4   4   18.87    1.40
 -14   4  -4   21.01    1.41
 -14   4  -4   18.80    1.21
  14   4   4   20.95    1.31
  15   4   4    2.68    0.29
  15   4   4    2.26    0.43
 -15   4  -4    0.88    0.47
 -15   4  -4    3.73    0.54
  16   5  -4    1.31    0.35
 -16   5   4    0.53    0.36
  15   5  -4    3.46    0.53
 -15   5   4    4.17    0.70
  14   5  -4    3.62    0.77
  14   5  -4    4.04    0.46
 -14   5   4    3.35    0.98
 -14   5   4    4.83    0.50
 -13   5   4    7.39    0.80
  13   5  -4    6.65    0.90
 -13   5   4    6.94    1.15
 -13   5   4    7.50    0.73
  13   5  -4    6.30    0.68
 -12   5   4    0.76    0.74
 -12   5   4    0.20    0.37
  12   5  -4    0.00    0.31
  12   5  -4    0.29    0.51
 -12   5   4    0.97    0.72
  12   5  -4    0.78    0.36
  11   5  -4    3.74    0.46
  11   5  -4    4.07    0.54
 -11   5   4    2.83    0.56
 -11   5   4    2.76    0.83
  11   5  -4    4.05    0.83
 -11   5   4    3.94    0.57
  11   5  -4    3.10    0.49
 -11   5   4    3.02    1.05
 -10   5   4    2.73    1.44
  10   5  -4    1.35    0.42
 -10   5   4    2.96    0.81
 -10   5   4    2.17    0.50
  10   5  -4    2.26    0.48
  10   5  -4    2.62    1.81
 -10   5   4    1.94    0.50
  10   5  -4    1.90    0.76
 -10   5   4    1.19    0.94
  10   5  -4    1.32    0.44
  -9   5   4   17.45    2.41
   9   5  -4   19.00    1.72
  -9   5   4   18.14    1.41
   9   5  -4   21.07    1.32
  -9   5   4   21.47    1.77
  -9   5   4   20.94    1.34
   9   5  -4   25.95    1.62
   9   5  -4   21.88    1.57
  -9   5   4   19.78    1.66
  -9   5   4   19.57    1.24
   9   5  -4   20.73    1.32
  -9   5   4   19.59    1.70
   9   5  -4   18.01    1.61
   9   5  -4   17.88    2.48
   8   5  -4   11.58    2.02
  -8   5   4   11.76    1.16
  -8   5   4   12.04    1.27
  -8   5   4   11.21    2.20
   8   5  -4   12.41    0.89
   8   5  -4   14.31    1.17
   8   5  -4   11.04    1.14
   8   5  -4   11.15    1.04
  -8   5   4   11.63    1.21
   8   5  -4   11.01    1.11
  -8   5   4   12.33    1.09
  -8   5   4   12.32    0.90
   8   5  -4   13.71    1.27
   8   5  -4   13.32    0.89
   8   5  -4   10.32    1.20
   7   5  -4   16.02    1.03
   7   5  -4   15.32    1.36
  -7   5   4   14.07    2.17
   7   5  -4   13.66    1.29
  -7   5   4   15.60    1.55
   7   5  -4   16.55    1.02
  -7   5   4   14.84    1.01
   7   5  -4   18.66    1.33
   7   5  -4   13.62    1.33
   7   5  -4   15.57    2.14
   7   5  -4   15.05    1.34
   7   5  -4   17.23    1.34
  -7   5   4   16.64    1.60
  -7   5   4   13.41    1.22
  -7   5   4   15.92    1.27
   6   5  -4   34.99    2.26
   6   5  -4   34.79    2.38
   6   5  -4   31.81    3.20
   6   5  -4   35.83    1.99
  -6   5   4   33.96    2.49
  -6   5   4   37.96    2.48
  -6   5   4   32.14    2.47
   6   5  -4   36.39    2.23
  -6   5   4   33.79    2.59
  -6   5   4   37.34    3.08
  -6   5   4   37.19    2.01
   6   5  -4   36.26    2.49
   6   5  -4   36.25    2.08
   6   5  -4   32.11    2.47
   6   5  -4   33.01    2.43
  -5   5   4    3.29    0.56
  -5   5   4    2.83    0.49
  -5   5   4    3.67    1.37
   5   5  -4    2.94    0.28
  -5   5   4    2.72    0.36
   5   5  -4    3.04    0.60
   5   5  -4    3.22    0.57
   5   5  -4    2.77    0.33
   5   5  -4    3.61    0.48
   5   5  -4    2.21    0.40
  -5   5   4    3.34    0.49
   5   5  -4    1.20    1.19
   5   5  -4    3.43    0.50
  -5   5   4    4.04    0.55
   5   5  -4    3.89    0.57
  -5   5   4    4.10    0.72
  -4   5   4   53.19    3.39
  -4   5   4   48.69    2.78
  -4   5   4   50.92    3.48
   4   5  -4   49.02    3.26
  -4   5   4   46.44    3.32
  -4   5   4   48.08    3.39
   4   5  -4   52.65    3.42
   4   5  -4   53.97    3.36
   4   5  -4   48.23    3.40
  -4   5   4   56.09    4.04
  -4   5   4   53.13    3.65
   4   5  -4   52.78    3.46
   4   5  -4   50.75    3.89
   4   5  -4   51.72    2.79
  -3   5   4    4.30    0.73
  -3   5   4    4.06    0.53
   3   5  -4    3.83    0.64
   3   5  -4    4.53    0.36
  -3   5   4    4.09    0.62
  -3   5   4    4.15    0.54
  -3   5   4    4.09    0.37
  -3   5   4    4.59    0.69
   3   5  -4    4.48    0.51
   3   5  -4    4.03    0.51
   3   5  -4    4.07    0.61
  -3   5   4    4.21    1.01
   3   5  -4    3.52    0.51
   3   5  -4    5.53    1.23
  -2   5   4    0.53    0.48
  -2   5   4   -0.34    0.35
  -2   5   4    0.12    0.16
   2   5  -4   -0.23    0.42
   2   5  -4    0.62    0.98
   2   5  -4    0.05    0.33
   2   5  -4    0.45    0.19
  -2   5   4    0.74    0.62
  -2   5   4    0.44    1.03
   2   5  -4   -0.50    0.44
   2   5  -4    0.52    0.49
  -2   5   4    0.20    0.33
  -2   5   4   -0.45    0.55
  -1   5   4   37.64    2.48
  -1   5   4   32.33    2.37
  -1   5   4   31.43    2.58
   1   5  -4   31.55    2.31
   1   5  -4   32.50    1.87
   1   5  -4   34.16    2.33
  -1   5   4   36.94    2.33
  -1   5   4   30.06    2.40
  -1   5   4   34.30    2.93
   1   5  -4   34.21    2.25
   1   5  -4   35.86    2.71
   1   5  -4   37.74    2.35
   1   5  -4   32.34    2.84
  -1   5   4   33.02    2.35
  -1   5   4   34.97    1.87
   0   5  -4   53.40    3.43
   0   5  -4   52.12    2.78
   0   5   4   49.39    3.50
   0   5  -4   49.13    3.25
   0   5   4   53.06    3.63
   0   5  -4   51.48    4.00
   0   5   4   51.47    3.88
   0   5   4   53.02    3.46
   0   5   4   53.14    3.55
   0   5   4   50.58    2.78
   0   5  -4   49.63    3.41
   0   5   4   51.36    3.41
   0   5  -4   52.85    3.43
   0   5  -4   48.73    3.78
   0   5  -4   48.70    3.41
   1   5   4    0.51    0.41
   1   5   4    0.65    1.03
  -1   5  -4    1.44    0.46
  -1   5  -4    0.76    0.45
   1   5   4    1.06    0.52
   1   5   4    1.39    0.60
   1   5   4    0.56    0.38
   1   5   4    0.73    0.20
  -1   5  -4    0.63    0.55
   1   5   4    1.34    0.68
  -1   5  -4    1.41    0.52
  -1   5  -4    0.88    0.19
  -1   5  -4    2.36    1.19
  -1   5  -4    0.80    0.96
   1   5   4    0.74    0.35
  -2   5  -4   20.11    1.48
  -2   5  -4   23.10    1.61
   2   5   4   19.43    1.73
  -2   5  -4   23.45    2.57
  -2   5  -4   24.68    1.64
  -2   5  -4   20.68    1.69
  -2   5  -4   22.80    1.26
  -2   5  -4   22.63    1.74
  -2   5  -4   24.41    2.18
   2   5   4   21.98    1.77
   2   5   4   21.54    1.66
   2   5   4   21.59    1.26
   2   5   4   23.12    1.63
   2   5   4   21.37    1.67
   2   5   4   22.32    2.16
  -3   5  -4   39.58    2.55
  -3   5  -4   33.87    2.74
   3   5   4   38.56    2.59
   3   5   4   36.31    2.83
   3   5   4   34.06    2.06
   3   5   4   37.13    2.57
  -3   5  -4   37.02    2.61
  -3   5  -4   39.04    3.47
  -3   5  -4   37.80    2.05
   3   5   4   34.54    2.54
   3   5   4   35.70    2.51
  -3   5  -4   38.00    2.56
  -3   5  -4   38.78    2.37
   4   5   4    3.17    0.31
   4   5   4    3.60    0.35
   4   5   4    4.37    0.55
   4   5   4    3.97    0.51
  -4   5  -4    2.75    0.72
  -4   5  -4    3.12    0.71
   4   5   4    3.50    0.48
  -4   5  -4    3.30    0.63
   4   5   4    3.61    0.46
  -4   5  -4    3.51    0.56
   4   5   4    5.32    0.75
  -4   5  -4    2.72    1.54
   4   5   4    3.99    0.94
   4   5   4    4.07    0.53
  -4   5  -4    3.44    0.35
   5   5   4   12.31    0.85
   5   5   4   12.03    1.13
  -5   5  -4   13.95    1.37
  -5   5  -4   15.95    2.16
   5   5   4   13.08    0.84
   5   5   4   12.41    1.53
  -5   5  -4   13.47    1.10
  -5   5  -4   13.48    1.08
   5   5   4   12.18    1.24
   5   5   4   10.53    1.09
  -5   5  -4   13.17    1.46
   5   5   4   12.91    1.28
  -5   5  -4   13.02    0.86
   5   5   4   12.64    1.17
   6   5   4    2.59    0.65
   6   5   4    3.99    0.37
   6   5   4    4.99    0.62
   6   5   4    3.37    0.55
  -6   5  -4    3.80    1.33
  -6   5  -4    4.11    0.57
  -6   5  -4    3.20    0.42
   6   5   4    2.88    0.73
  -6   5  -4    4.96    0.80
  -6   5  -4    3.97    0.88
   6   5   4    3.28    0.70
   6   5   4    3.70    1.24
   7   5   4    4.78    0.84
  -7   5  -4    5.39    1.80
  -7   5  -4    5.22    0.56
   7   5   4    5.41    0.65
   7   5   4    4.39    0.91
   7   5   4    6.59    0.66
  -7   5  -4    5.99    0.76
   7   5   4    4.58    0.81
  -7   5  -4    4.44    0.66
   7   5   4    5.86    1.13
  -7   5  -4    5.64    0.44
  -7   5  -4    5.47    0.55
   7   5   4    6.11    0.56
  -7   5  -4    4.50    1.00
  -7   5  -4    7.31    0.76
   7   5   4    5.93    0.60
  -8   5  -4    0.12    1.57
  -8   5  -4    0.02    0.40
  -8   5  -4    0.19    0.65
   8   5   4    0.00    0.79
  -8   5  -4    0.31    0.39
  -8   5  -4    0.49    0.23
   8   5   4    0.93    0.51
  -8   5  -4   -0.22    0.48
   8   5   4    0.30    0.32
   8   5   4   -0.11    0.27
  -8   5  -4    1.21    0.86
   8   5   4    0.40    0.28
   8   5   4   -0.05    0.63
   9   5   4   18.44    1.67
   9   5   4   15.51    1.45
  -9   5  -4   18.59    1.30
   9   5   4   19.27    1.25
   9   5   4   16.84    1.41
  -9   5  -4   18.72    1.18
  -9   5  -4   18.90    1.74
  -9   5  -4   19.01    1.68
  -9   5  -4   20.75    1.42
   9   5   4   20.13    1.29
 -10   5  -4   14.22    1.30
  10   5   4   16.36    1.18
 -10   5  -4   17.61    1.56
 -10   5  -4   15.27    0.98
  10   5   4   17.25    1.10
  10   5   4   15.22    1.48
 -10   5  -4   15.30    1.22
  10   5   4   14.47    1.32
  11   5   4    8.63    0.74
 -11   5  -4    9.93    0.80
  11   5   4    8.78    0.72
  11   5   4    7.61    0.81
  11   5   4    7.52    0.94
 -11   5  -4    9.27    1.05
 -12   5  -4    2.25    0.55
 -12   5  -4    1.38    0.92
  12   5   4    1.95    0.33
  12   5   4    2.76    0.50
  12   5   4    2.59    0.51
  13   5   4    0.08    0.30
  13   5   4   -0.33    0.37
 -13   5  -4   -0.20    0.80
 -13   5  -4    0.53    0.47
  13   5   4   -0.02    0.24
  14   5   4    9.66    0.86
 -14   5  -4   11.91    0.80
 -14   5  -4   11.18    1.02
  14   5   4   12.48    0.77
  14   6  -4    5.74    0.62
 -14   6   4    4.52    0.72
 -13   6   4   11.14    1.14
 -13   6   4    9.72    1.06
  13   6  -4    9.08    0.98
 -12   6   4   -0.52    0.66
 -12   6   4   -0.31    0.36
  12   6  -4   -0.39    0.36
  12   6  -4   -0.40    0.50
 -12   6   4   -0.96    0.49
  11   6  -4    0.47    0.75
  11   6  -4    0.75    0.40
 -11   6   4    1.87    0.75
 -11   6   4    0.94    0.83
 -11   6   4    0.85    0.46
  11   6  -4    1.05    0.39
  10   6  -4    1.33    0.30
  10   6  -4    0.82    0.76
 -10   6   4    0.69    0.68
 -10   6   4    0.42    0.38
 -10   6   4    1.46    0.65
 -10   6   4    1.46    0.72
  10   6  -4    1.24    0.45
  -9   6   4    6.97    0.63
   9   6  -4    5.21    0.55
   9   6  -4    6.38    0.76
  -9   6   4    5.17    1.02
  -9   6   4    6.55    0.93
  -9   6   4    6.23    0.73
   9   6  -4    6.09    0.82
   9   6  -4    6.81    0.79
   8   6  -4   21.96    1.55
  -8   6   4   19.76    1.25
   8   6  -4   19.81    1.25
  -8   6   4   21.06    1.97
   8   6  -4   17.84    1.71
  -8   6   4   20.52    1.89
   8   6  -4   19.73    1.67
  -8   6   4   19.07    1.72
  -7   6   4   29.11    2.28
  -7   6   4   27.19    2.22
   7   6  -4   30.50    1.78
   7   6  -4   29.72    2.20
  -7   6   4   32.73    3.04
  -7   6   4   33.17    2.49
   7   6  -4   31.85    2.25
  -7   6   4   32.70    2.51
   7   6  -4   30.50    2.28
   7   6  -4   33.70    2.28
  -7   6   4   30.57    1.74
   7   6  -4   24.60    3.01
  -6   6   4    0.31    0.45
   6   6  -4    0.28    0.55
   6   6  -4    0.99    1.46
  -6   6   4   -0.25    0.53
   6   6  -4    0.17    0.65
   6   6  -4    0.30    0.58
  -6   6   4    0.08    0.75
  -6   6   4   -0.26    0.23
  -6   6   4    0.26    1.47
  -6   6   4   -0.32    0.53
   6   6  -4   -0.11    0.54
   6   6  -4   -0.24    0.29
   5   6  -4   29.41    2.08
   5   6  -4   25.89    2.04
   5   6  -4   29.27    2.09
  -5   6   4   29.14    2.24
   5   6  -4   30.47    1.63
  -5   6   4   31.76    2.17
   5   6  -4   27.34    2.68
  -5   6   4   28.40    2.16
   5   6  -4   30.04    2.17
  -5   6   4   28.47    1.59
  -5   6   4   28.17    3.04
  -5   6   4   26.42    2.14
  -4   6   4    5.22    0.74
  -4   6   4    5.67    0.67
   4   6  -4    5.12    0.78
   4   6  -4    5.54    0.73
   4   6  -4    4.91    0.75
  -4   6   4    5.23    0.86
  -4   6   4    5.88    1.56
  -4   6   4    4.31    0.74
  -4   6   4    5.70    0.78
   4   6  -4    4.17    0.72
   4   6  -4    6.84    1.60
   4   6  -4    5.19    0.46
  -3   6   4    3.19    1.38
  -3   6   4    1.27    0.58
  -3   6   4    1.50    0.61
   3   6  -4    2.26    0.22
   3   6  -4    1.25    0.58
   3   6  -4    1.26    0.93
   3   6  -4    1.92    0.65
   3   6  -4    1.90    0.38
   3   6  -4    1.78    0.56
  -3   6   4    2.04    0.48
  -3   6   4    1.62    0.51
  -3   6   4    1.80    0.72
  -3   6   4    1.58    0.70
   3   6  -4    2.08    0.59
   2   6  -4    1.43    0.54
  -2   6   4    0.83    1.23
   2   6  -4    1.71    0.48
   2   6  -4    1.85    0.57
  -2   6   4    1.16    0.57
   2   6  -4    1.40    0.40
   2   6  -4    1.20    0.33
  -2   6   4   -0.07    0.68
  -2   6   4    1.08    0.57
   2   6  -4    1.64    0.44
  -2   6   4    1.59    0.43
  -2   6   4    2.37    0.69
   2   6  -4    3.66    1.26
  -2   6   4    1.39    0.54
   2   6  -4    1.32    0.15
  -1   6   4   36.91    2.84
   1   6  -4   38.10    2.59
  -1   6   4   32.04    2.60
   1   6  -4   37.05    2.45
   1   6  -4   32.96    2.55
   1   6  -4   39.65    2.54
  -1   6   4   36.16    3.27
  -1   6   4   38.14    2.57
   1   6  -4   34.69    2.38
  -1   6   4   35.79    2.53
   1   6  -4   35.56    3.19
   1   6  -4   38.63    2.57
  -1   6   4   40.04    2.77
  -1   6   4   34.75    2.52
   0   6  -4    0.92    1.11
   0   6  -4   -0.26    0.57
   0   6   4   -0.08    1.20
   0   6  -4    0.36    0.51
   0   6   4    0.37    0.53
   0   6   4    0.07    0.56
   0   6   4    0.85    0.48
   0   6  -4    0.41    0.37
   0   6   4    0.91    0.62
   0   6  -4    0.31    0.58
   0   6   4    0.19    0.31
   0   6   4    0.12    0.87
   0   6  -4   -0.24    0.43
   0   6   4    0.68    0.67
  -1   6  -4    0.11    0.30
  -1   6  -4    0.39    0.42
  -1   6  -4    0.06    0.46
   1   6   4    0.75    0.48
  -1   6  -4    1.96    1.22
   1   6   4    0.04    0.70
  -1   6  -4    0.78    0.52
   1   6   4    0.82    0.62
   1   6   4    0.22    0.58
   1   6   4   -0.09    0.52
  -1   6  -4    0.95    0.38
   1   6   4    0.37    0.09
   1   6   4    0.43    0.48
  -1   6  -4    2.07    0.85
  -1   6  -4    0.21    0.57
   2   6   4   47.97    3.14
  -2   6  -4   45.90    3.12
  -2   6  -4   51.76    3.00
   2   6   4   46.58    3.61
  -2   6  -4   45.53    3.11
  -2   6  -4   46.09    3.22
   2   6   4   43.88    3.24
  -2   6  -4   40.83    3.33
   2   6   4   44.19    2.49
   2   6   4   45.78    3.16
  -2   6  -4   42.40    4.04
  -2   6  -4   49.86    3.16
   2   6   4   44.65    3.18
   2   6   4   46.45    3.34
   3   6   4    3.19    1.23
   3   6   4    3.84    0.74
  -3   6  -4    3.21    0.26
  -3   6  -4    3.48    0.61
  -3   6  -4    2.82    0.63
  -3   6  -4    2.70    1.65
  -3   6  -4    3.18    0.61
  -3   6  -4    3.65    0.71
   3   6   4    3.61    0.31
   3   6   4    4.07    0.63
   3   6   4    3.37    0.67
  -3   6  -4    3.66    0.64
   3   6   4    4.57    0.57
   4   6   4   32.54    1.91
   4   6   4   33.15    2.52
   4   6   4   38.82    2.56
  -4   6  -4   33.23    2.70
  -4   6  -4   36.96    2.46
  -4   6  -4   32.23    3.25
   4   6   4   31.56    2.44
  -4   6  -4   34.09    2.57
  -4   6  -4   32.24    1.89
   4   6   4   37.40    2.45
   4   6   4   29.85    2.76
  -4   6  -4   36.85    2.32
   5   6   4    4.21    0.78
   5   6   4    5.05    0.70
  -5   6  -4    4.08    0.63
  -5   6  -4    4.48    0.40
   5   6   4    4.80    0.79
  -5   6  -4    5.14    0.70
   5   6   4    4.96    0.44
  -5   6  -4    4.31    0.89
   5   6   4    3.93    1.05
  -5   6  -4    3.69    0.76
  -5   6  -4    6.76    1.57
  -6   6  -4   13.91    1.48
   6   6   4   12.84    1.37
   6   6   4   13.34    1.25
  -6   6  -4   13.24    1.31
  -6   6  -4   14.68    1.34
   6   6   4   13.48    0.90
  -6   6  -4   14.29    0.92
   6   6   4   13.55    1.67
   6   6   4   14.68    1.45
  -6   6  -4    9.83    1.98
   7   6   4    2.63    0.76
  -7   6  -4    3.17    1.04
  -7   6  -4    2.96    0.38
  -7   6  -4    3.00    0.86
   7   6   4    3.46    0.62
   7   6   4    3.89    0.42
   7   6   4    2.55    0.69
  -7   6  -4    3.37    0.69
   8   6   4    0.66    0.71
   8   6   4    0.04    0.32
  -8   6  -4    1.20    0.45
  -8   6  -4   -0.49    0.51
  -8   6  -4    0.70    0.33
   8   6   4    0.50    0.56
  -8   6  -4    0.45    0.95
  -9   6  -4    1.18    0.69
   9   6   4    1.37    0.50
   9   6   4    0.86    0.35
  -9   6  -4    0.66    0.37
  -9   6  -4    0.68    0.74
   9   6   4    1.22    0.41
 -10   6  -4   30.12    2.36
  10   6   4   35.07    2.45
  10   6   4   35.42    1.95
 -10   6  -4   35.29    2.02
 -10   6  -4   34.55    2.67
 -11   6  -4    6.68    0.87
 -11   6  -4    5.64    0.49
 -11   6  -4    4.18    0.56
  11   6   4    3.66    0.59
  11   6   4    4.71    0.48
 -12   6  -4   -0.24    0.85
 -12   6  -4    1.13    0.30
  12   6   4    1.11    0.25
  12   6   4    1.56    0.43
 -13   6  -4    3.56    0.29
  13   6   4    3.36    0.45
  13   6   4    3.39    0.30
 -13   6  -4    1.56    0.58
  13   7  -4    1.47    0.38
 -13   7   4    1.31    0.50
 -12   7   4   26.86    2.02
 -12   7   4   31.24    2.05
  12   7  -4   25.68    1.86
 -11   7   4    1.75    0.80
  11   7  -4    1.10    0.56
  11   7  -4    1.47    0.38
 -11   7   4    1.01    0.95
 -10   7   4    2.35    0.74
  10   7  -4    2.76    0.63
  10   7  -4    2.07    0.25
 -10   7   4    3.88    0.68
  10   7  -4    2.76    0.49
   9   7  -4   10.38    0.67
   9   7  -4    9.28    0.95
   9   7  -4   11.52    1.13
  -9   7   4    8.89    1.28
  -9   7   4    9.05    1.20
  -9   7   4   11.02    1.08
   8   7  -4    0.12    0.41
  -8   7   4    0.91    0.52
   8   7  -4    0.66    0.20
   8   7  -4    1.42    0.79
  -8   7   4    0.98    0.68
   8   7  -4    0.43    0.45
  -8   7   4    0.80    0.62
  -7   7   4    4.76    0.75
   7   7  -4    5.93    0.68
   7   7  -4    4.59    0.35
   7   7  -4    4.70    0.77
  -7   7   4    4.57    1.02
  -7   7   4    4.15    0.67
  -7   7   4    4.99    1.00
   7   7  -4    5.54    0.74
   6   7  -4    1.20    0.47
  -6   7   4    1.53    0.72
   6   7  -4    1.32    0.55
  -6   7   4    1.40    0.88
  -6   7   4    1.09    0.87
  -6   7   4    1.07    0.44
   6   7  -4    1.46    0.49
   6   7  -4    1.23    0.57
   5   7  -4   26.60    1.96
   5   7  -4   28.22    1.91
  -5   7   4   24.07    2.16
  -5   7   4   25.99    2.18
  -5   7   4   25.04    1.89
   5   7  -4   23.30    1.96
  -5   7   4   23.35    1.95
   5   7  -4   24.52    1.95
  -4   7   4    0.12    0.61
   4   7  -4    0.04    0.44
   4   7  -4    0.21    0.43
   4   7  -4   -0.72    0.44
  -4   7   4    0.50    0.57
  -4   7   4   -0.65    0.79
  -4   7   4    0.43    0.48
   4   7  -4    0.37    0.64
   3   7  -4   14.00    1.11
  -3   7   4   12.88    1.27
   3   7  -4   10.58    2.00
   3   7  -4   11.62    1.11
  -3   7   4   12.26    1.43
  -3   7   4   11.22    1.97
  -3   7   4   12.30    1.22
   3   7  -4   11.95    1.27
   3   7  -4   10.71    1.10
  -3   7   4   11.34    1.10
  -3   7   4    9.95    1.01
   2   7  -4   10.56    1.07
   2   7  -4   11.09    1.08
  -2   7   4   13.40    1.27
  -2   7   4   12.18    1.23
  -2   7   4   11.46    1.06
  -2   7   4    9.38    1.94
   2   7  -4   10.39    1.11
   2   7  -4   12.69    1.08
  -2   7   4   11.53    1.26
   2   7  -4   11.57    1.98
  -2   7   4   11.88    1.21
  -1   7   4   48.52    3.34
  -1   7   4   51.38    3.16
  -1   7   4   45.99    3.23
   1   7  -4   49.19    3.18
   1   7  -4   50.28    3.07
   1   7  -4   40.30    3.82
  -1   7   4   41.51    3.25
  -1   7   4   45.17    3.28
   1   7  -4   43.17    3.21
   1   7  -4   49.34    3.17
  -1   7   4   43.48    3.94
   1   7  -4   40.94    3.10
   0   7  -4    6.68    0.87
   0   7   4    7.23    0.87
   0   7   4    6.94    0.76
   0   7   4    6.90    0.82
   0   7  -4    7.66    0.86
   0   7  -4    5.85    0.93
   0   7   4    7.83    0.83
   0   7   4    8.35    0.83
   0   7  -4    5.92    1.29
   0   7  -4    7.39    0.95
   0   7   4    8.06    0.88
   0   7  -4    6.95    0.79
   1   7   4   16.78    1.52
   1   7   4   16.96    1.65
  -1   7  -4   19.16    1.51
  -1   7  -4   18.28    1.49
   1   7   4   18.17    1.51
   1   7   4   16.17    1.48
  -1   7  -4   16.78    1.43
   1   7   4   16.82    1.49
  -1   7  -4   18.50    1.34
  -1   7  -4   17.91    1.42
   2   7   4   22.04    1.74
  -2   7  -4   24.55    1.84
  -2   7  -4   25.60    1.75
  -2   7  -4   22.79    1.88
   2   7   4   22.31    1.75
   2   7   4   26.96    1.98
   2   7   4   23.33    1.83
   2   7   4   20.38    2.23
  -2   7  -4   21.51    1.95
  -2   7  -4   23.08    1.71
   3   7   4    5.19    0.77
   3   7   4    2.90    0.73
  -3   7  -4    3.34    0.55
   3   7   4    3.73    0.58
  -3   7  -4    3.00    0.88
   3   7   4    2.85    0.79
  -3   7  -4    3.88    0.78
  -3   7  -4    3.08    0.85
  -4   7  -4    3.44    0.77
   4   7   4    2.37    0.75
  -4   7  -4    1.79    0.88
  -4   7  -4    2.72    0.69
  -4   7  -4    3.82    0.67
   4   7   4    3.59    0.56
   4   7   4    3.71    0.79
  -5   7  -4    3.00    0.97
   5   7   4    1.93    0.73
  -5   7  -4    2.02    0.88
   5   7   4    2.22    0.58
  -5   7  -4    2.41    0.55
   5   7   4    2.82    0.64
   6   7   4   21.23    1.79
  -6   7  -4   20.62    1.79
  -6   7  -4   18.71    1.66
   6   7   4   19.58    1.77
   6   7   4   18.97    1.10
  -6   7  -4   20.82    1.56
   6   7   4   20.17    1.51
   7   7   4    2.18    0.25
  -7   7  -4    2.28    0.62
  -7   7  -4    2.31    0.69
   7   7   4    2.08    0.53
   7   7   4    2.68    0.77
  -7   7  -4    1.51    0.75
   8   7   4   11.14    0.69
  -8   7  -4   10.19    1.14
  -8   7  -4   11.62    1.05
   8   7   4    9.90    1.03
   8   7   4   10.92    1.11
  -8   7  -4   11.74    1.24
   9   7   4    8.09    0.50
  -9   7  -4    7.88    1.18
  -9   7  -4    7.87    0.80
   9   7   4    5.44    0.75
   9   7   4    5.70    0.88
  10   7   4    0.55    0.18
 -10   7  -4    0.42    0.67
 -10   7  -4    0.47    0.60
  10   7   4    0.04    0.44
 -11   7  -4    0.63    0.30
  11   7   4    0.93    0.38
 -11   7  -4    0.12    0.59
 -11   8   4    0.10    0.36
  11   8  -4    0.25    0.35
 -11   8   4    0.77    0.45
 -10   8   4    6.80    0.86
  10   8  -4    9.59    0.76
 -10   8   4   12.48    1.08
   9   8  -4   10.79    1.00
  -9   8   4   13.44    1.17
   9   8  -4   15.94    1.14
   8   8  -4    2.27    0.48
  -8   8   4    2.45    0.94
  -8   8   4    2.02    0.85
   8   8  -4    2.61    0.60
   7   8  -4    1.16    0.48
  -7   8   4    1.79    0.85
   7   8  -4    0.76    0.76
  -7   8   4    1.80    0.69
  -6   8   4    3.63    0.68
   6   8  -4    2.41    0.54
   6   8  -4    2.65    0.61
  -6   8   4    2.86    0.70
   5   8  -4   14.87    1.32
  -5   8   4   12.84    1.38
  -5   8   4   11.66    1.12
   5   8  -4   14.50    1.21
  -5   8   4   12.92    1.50
  -5   8   4   15.71    1.25
   5   8  -4   13.94    1.22
  -4   8   4    1.93    0.62
   4   8  -4    1.62    0.48
   4   8  -4    3.02    0.52
  -4   8   4    2.30    0.56
  -4   8   4    2.37    0.67
   4   8  -4    2.81    0.76
   4   8  -4    1.39    0.50
  -4   8   4    2.17    0.88
  -3   8   4    1.82    0.63
  -3   8   4    1.04    0.87
  -3   8   4    0.43    0.82
   3   8  -4    1.50    0.47
   3   8  -4    0.70    0.50
   3   8  -4    2.12    0.66
   3   8  -4    1.27    0.49
   2   8  -4    0.40    0.64
  -2   8   4   -0.63    0.55
   2   8  -4    0.07    0.58
  -2   8   4   -0.13    0.60
  -2   8   4    0.13    0.59
   2   8  -4    0.24    0.47
   2   8  -4    0.23    0.67
  -2   8   4   -0.39    0.37
  -1   8   4    0.86    0.81
  -1   8   4    0.74    0.47
   1   8  -4    0.44    0.47
   1   8  -4    0.87    0.66
   1   8  -4    1.13    0.52
  -1   8   4    0.61    0.85
  -1   8   4    2.30    0.50
   0   8   4    5.55    0.81
   0   8  -4    6.10    0.75
   0   8   4    4.07    0.96
   0   8  -4    4.95    0.70
   0   8   4    6.52    0.73
   0   8  -4    4.77    0.78
   0   8  -4    4.61    0.78
   1   8   4    1.50    0.55
  -1   8  -4    1.12    0.64
   1   8   4    1.35    0.61
   1   8   4    0.57    0.42
   1   8   4    1.09    0.61
  -1   8  -4    0.69    0.63
  -1   8  -4    0.90    0.52
  -1   8  -4    0.86    0.77
   2   8   4   12.33    1.14
  -2   8  -4   13.59    1.27
   2   8   4   12.63    1.22
  -2   8  -4   14.02    1.40
   2   8   4   12.95    1.26
   2   8   4   13.27    1.26
  -2   8  -4   13.72    1.30
   3   8   4   13.69    1.28
   3   8   4   12.69    1.18
   3   8   4   14.13    1.17
  -3   8  -4   13.16    1.37
  -3   8  -4   14.85    1.35
  -3   8  -4   15.67    1.14
  -3   8  -4   10.27    1.35
   4   8   4    0.35    0.48
  -4   8  -4    0.56    0.48
  -4   8  -4    0.03    0.79
   4   8   4    0.42    0.50
  -4   8  -4    1.74    0.79
   4   8   4    1.34    0.60
   5   8   4    0.73    0.49
  -5   8  -4    1.87    0.87
  -5   8  -4    0.90    0.78
   5   8   4    1.35    0.43
   5   8   4    0.98    0.71
  -5   8  -4    1.27    0.49
  -6   8  -4    5.01    0.75
   6   8   4    3.94    0.64
  -6   8  -4    2.98    0.84
  -6   8  -4    3.67    0.75
   6   8   4    4.45    0.63
   7   8   4    0.71    0.60
  -7   8  -4   -0.91    0.59
  -7   8  -4   -0.51    0.48
   7   8   4    0.77    0.49
   8   8   4    0.99    0.64
  -8   8  -4    0.84    0.50
   8   8   4    0.14    0.34
  -8   8  -4    0.11    0.60
   9   8   4   -0.16    0.30
   9   8   4    0.11    0.40
  -9   8  -4    0.56    0.50
  -9   8  -4   -0.57    0.34
   7   9  -4    8.08    0.69
   7   9  -4    7.38    0.74
  -7   9   4    6.89    0.79
   6   9  -4   36.45    2.46
  -6   9   4   36.75    2.47
  -6   9   4   35.19    2.59
   5   9  -4    0.59    0.46
  -5   9   4   -0.37    0.48
  -5   9   4   -0.01    0.72
   5   9  -4    0.39    0.39
  -4   9   4   -0.06    0.29
  -4   9   4   -0.05    0.53
  -4   9   4    0.58    0.76
   4   9  -4    0.30    0.40
   3   9  -4    0.37    0.40
  -3   9   4    1.02    0.53
  -3   9   4    0.47    0.35
   2   9  -4    0.37    0.38
  -2   9   4    1.45    0.41
   2   9  -4   -0.07    0.41
   1   9  -4    6.42    0.69
   1   9  -4    5.35    0.78
  -1   9   4    6.77    0.77
   0   9  -4    7.56    0.87
   1   9   4    1.67    0.65
   1   9   4    2.51    0.61
  -1   9  -4    3.16    0.68
  -1   9  -4    1.13    0.59
  -1   9  -4    3.38    0.51
  -2   9  -4    9.45    0.87
  -2   9  -4    5.56    0.73
   2   9   4    8.85    0.92
   2   9   4    6.66    0.73
   2   9   4    9.12    0.83
  -3   9  -4    1.38    0.51
   3   9   4    1.53    0.57
   3   9   4    2.32    0.68
   3   9   4    0.54    0.36
   4   9   4    2.04    0.50
  -4   9  -4    1.39    0.44
  -4   9  -4    0.41    0.50
   4   9   4    1.23    0.37
   5   9   4    9.28    0.86
   5   9   4    6.74    0.76
  -5   9  -4    9.66    0.89
   6   9   4   28.52    2.22
  -6   9  -4   38.05    2.24
 -18   0   5   -0.39    0.60
  18   0  -5    0.00    0.24
  17   0  -5    1.61    0.43
 -16   0   5    0.01    0.36
  16   0  -5   -0.07    0.28
  15   0  -5   22.85    1.48
 -15   0   5   23.11    1.46
 -14   0   5   -0.13    0.51
 -13   0   5    6.32    0.61
 -13   0   5    7.90    1.84
 -12   0   5    0.36    0.47
 -12   0   5    0.34    1.36
 -11   0   5   10.59    0.81
  -8   0   5    0.87    0.84
  -8   0   5    0.35    0.66
  -7   0   5   33.79    2.55
  -7   0   5   32.61    2.71
   7   0  -5   37.78    2.40
   7   0  -5   25.63    2.82
   7   0  -5   34.18    2.42
  -7   0   5   36.23    2.42
  -7   0   5   32.36    3.06
  -6   0   5   -0.13    0.53
   6   0  -5    0.48    0.76
  -6   0   5    0.11    0.58
   6   0  -5    0.62    0.49
   6   0  -5    0.00    0.75
  -6   0   5   -0.47    0.72
   6   0  -5   -0.25    0.34
  -6   0   5    0.38    0.54
   5   0  -5    1.04    0.51
  -5   0   5    0.02    0.73
  -5   0   5   -0.37    0.55
  -5   0   5    1.02    0.71
   5   0  -5    1.56    0.78
  -5   0   5    0.85    0.57
   5   0  -5    0.57    1.10
  -5   0   5    0.64    0.76
   5   0  -5    0.87    0.69
   4   0  -5    0.17    0.51
  -4   0   5   -0.65    0.97
  -4   0   5    0.64    0.74
   4   0  -5    0.62    0.49
   4   0  -5    0.33    0.64
  -4   0   5    0.55    0.54
  -4   0   5    0.99    0.59
  -4   0   5   -0.93    0.57
   4   0  -5   -0.28    0.94
   4   0  -5   -0.74    0.73
  -3   0   5  105.83    6.35
   3   0  -5  103.76    5.98
   3   0  -5   95.10    6.40
  -3   0   5  102.88    6.26
  -3   0   5  102.20    6.16
  -3   0   5  109.75    6.06
   3   0  -5  108.32    6.30
   3   0  -5  103.89    6.41
   3   0  -5   98.82    6.15
  -3   0   5  100.68    6.41
  -2   0   5   -0.21    0.42
   2   0  -5    2.15    0.81
  -2   0   5    0.04    0.56
  -2   0   5   -0.05    0.62
   2   0  -5   -0.07    0.62
   2   0  -5   -0.23    0.30
   2   0  -5    0.09    0.45
   2   0  -5   -0.19    0.40
  -2   0   5   -0.59    0.44
  -2   0   5    0.25    0.36
  -1   0   5   39.63    2.46
  -1   0   5   42.50    2.74
   1   0  -5   37.17    2.79
  -1   0   5   34.57    2.50
   1   0  -5   39.82    2.95
  -1   0   5   39.33    2.52
   1   0  -5   37.03    2.47
  -1   0   5   37.69    2.81
   1   0  -5   37.55    2.42
   1   0  -5   37.83    2.43
   0   0  -5   -0.41    0.44
   0   0  -5   -0.23    0.36
   0   0  -5    0.60    0.44
   0   0   5   -0.25    0.66
   0   0   5    1.42    0.87
   0   0  -5    0.63    1.02
   0   0   5    0.28    0.40
   0   0  -5    0.36    0.67
   0   0   5   -0.30    0.52
   0   0   5   -0.85    0.43
  -1   0  -5  124.81    7.36
  -1   0  -5  121.47    7.66
   1   0   5  124.54    7.39
  -1   0  -5  133.09    7.60
   1   0   5  129.41    7.68
   1   0   5  123.14    7.66
   1   0   5  128.68    7.61
  -1   0  -5  134.54    7.76
  -2   0  -5    0.92    1.06
  -2   0  -5   -0.81    0.64
  -2   0  -5   -0.62    1.03
   2   0   5    0.22    0.92
   2   0   5   -0.74    0.65
   2   0   5    0.08    0.92
   2   0   5   -0.12    0.55
  -2   0  -5   -0.45    0.51
   3   0   5   78.51    4.71
  -3   0  -5   79.44    4.72
  -3   0  -5   80.58    5.20
   3   0   5   74.92    5.03
  -3   0  -5   68.75    5.05
  -3   0  -5   80.09    4.80
   3   0   5   79.00    5.03
   3   0   5   78.32    4.80
   4   0   5    0.13    0.85
   4   0   5   -0.67    0.63
   4   0   5    0.73    0.68
  -4   0  -5    0.40    0.96
  -4   0  -5    0.47    0.55
   4   0   5    0.11    0.39
  -4   0  -5    1.50    0.79
  -4   0  -5    0.67    0.71
   4   0   5   -0.07    0.57
  -4   0  -5   -0.74    0.85
  -5   0  -5    2.23    0.68
   5   0   5    2.73    0.82
  -5   0  -5    2.44    0.88
   5   0   5    2.16    0.67
  -5   0  -5    1.68    1.45
  -5   0  -5    1.88    0.75
   5   0   5    2.80    0.77
   5   0   5    2.78    1.14
  -5   0  -5    1.86    0.82
   5   0   5    2.24    0.60
   6   0   5   -0.16    0.69
  -6   0  -5   -0.14    0.81
  -6   0  -5    0.60    0.70
  -6   0  -5   -0.42    0.39
   6   0   5   -1.15    0.44
   6   0   5   -0.41    0.62
   6   0   5    0.21    0.42
  -7   0  -5   17.70    1.69
  -7   0  -5   16.07    1.58
  -7   0  -5   17.37    1.70
 -10   0  -5   -0.56    0.41
 -11   0  -5   92.46    5.09
 -12   0  -5    0.22    0.36
 -13   0  -5    9.93    0.85
 -14   0  -5    0.32    0.36
  14   0   5    0.07    0.38
  15   0   5   10.38    0.87
 -15   0  -5   12.04    0.96
  16   0   5    0.19    0.23
 -16   0  -5    0.08    0.36
  18  -1  -5    1.53    0.29
 -18   1   5    1.89    0.41
  18   1  -5    1.05    0.32
 -18   1   5    1.83    0.52
 -17  -1   5    2.12    0.40
 -17   1   5    2.12    0.39
 -17   1   5    3.02    0.69
 -17   1   5    1.51    0.79
 -16  -1   5   -0.24    0.52
 -16   1   5    1.44    0.68
 -16   1   5    0.49    0.33
  16   1  -5    0.78    0.41
 -15  -1   5    1.11    0.60
  15   1  -5    2.34    0.46
 -15   1   5    2.85    0.76
 -15   1   5    2.35    0.54
 -14   1   5   10.89    0.82
 -14   1   5    8.90    0.92
  14   1  -5    9.03    0.87
  13   1  -5   -0.01    0.37
 -13   1   5    1.75    1.59
  13   1  -5    2.72    1.44
 -12   1   5    3.68    1.62
  12   1  -5    4.37    0.49
 -12   1   5    3.87    0.55
  12   1  -5    2.75    1.39
  11   1  -5   47.90    3.42
  11   1  -5   37.95    2.25
 -11   1   5   39.01    2.88
 -11   1   5   37.80    3.20
 -11   1   5   37.51    2.29
 -11   1   5   47.43    3.67
 -10   1   5    5.02    0.98
  10   1  -5    5.98    1.06
 -10   1   5    3.40    0.41
 -10   1   5    3.25    1.34
  10   1  -5    3.36    0.41
  -9   1   5    0.94    0.73
   9   1  -5    2.37    0.83
   9   1  -5    1.83    0.68
  -9   1   5    0.96    0.82
   9   1  -5    1.46    0.97
  -9   1   5    2.28    1.00
   8   1  -5    3.14    0.72
  -8   1   5    1.41    0.69
   8   1  -5    2.71    0.76
   8   1  -5    1.50    0.80
  -8   1   5    3.69    0.97
  -8   1   5    2.00    1.04
  -7  -1   5    2.28    1.04
  -7   1   5    2.35    0.89
   7   1  -5    1.74    0.61
  -7   1   5    2.28    0.68
   7   1  -5   -0.71    1.07
  -7   1   5    1.29    0.97
   7   1  -5    1.01    0.82
  -7   1   5    0.51    1.19
   7   1  -5    1.54    0.75
  -6  -1   5    2.68    0.88
  -6  -1   5    4.83    1.31
  -6  -1   5    3.82    0.75
   6  -1  -5    0.51    1.20
  -6  -1   5    3.70    1.04
  -6   1   5    2.74    0.80
  -6   1   5    3.59    0.72
   6   1  -5    4.28    0.90
   6   1  -5    4.79    0.69
   6   1  -5    6.03    0.89
   6   1  -5    2.31    1.08
   6   1  -5    3.41    1.18
  -6   1   5    3.64    1.20
  -6   1   5    4.75    0.82
  -6   1   5    4.62    0.95
  -5  -1   5   14.78    1.81
   5  -1  -5   15.67    1.25
  -5  -1   5   12.74    1.37
  -5  -1   5   13.66    1.30
   5  -1  -5   17.03    1.84
   5  -1  -5   14.06    1.66
   5  -1  -5   13.59    1.36
  -5  -1   5   16.66    1.66
  -5   1   5   16.28    1.54
  -5   1   5   16.70    1.78
   5   1  -5   15.84    1.28
  -5   1   5   15.90    1.30
   5   1  -5   13.52    1.65
   5   1  -5   16.53    1.43
   5   1  -5   16.32    1.34
  -5   1   5   15.68    1.55
   5   1  -5   13.93    1.66
  -5   1   5   16.69    1.41
   4  -1  -5   -0.76    1.01
  -4  -1   5    0.36    0.83
  -4  -1   5    0.43    1.01
  -4  -1   5    0.83    0.39
  -4  -1   5   -0.10    0.68
   4  -1  -5   -0.04    0.59
   4  -1  -5    0.07    0.91
   4  -1  -5   -0.21    0.43
   4   1  -5    0.80    0.98
  -4   1   5    0.58    0.52
   4   1  -5   -0.23    0.64
   4   1  -5    0.38    0.66
  -4   1   5   -0.11    0.93
   4   1  -5   -0.86    0.58
  -4   1   5    0.20    0.50
  -4   1   5   -0.62    0.63
  -4   1   5    0.20    0.71
   4   1  -5    0.38    0.35
  -3  -1   5   86.82    6.08
  -3  -1   5   94.81    6.04
   3  -1  -5  102.85    6.18
  -3  -1   5  104.39    6.14
  -3  -1   5   95.45    5.80
   3  -1  -5   99.10    5.91
   3  -1  -5  106.14    6.06
   3  -1  -5   88.44    6.08
  -3  -1   5   96.89    5.92
   3  -1  -5   90.47    5.73
   3   1  -5  101.86    6.06
  -3   1   5  101.96    6.26
  -3   1   5   98.12    6.07
   3   1  -5  104.98    5.76
  -3   1   5  107.23    5.81
   3   1  -5   98.02    6.10
   3   1  -5   94.56    6.23
  -3   1   5  100.16    5.96
  -3   1   5  104.77    5.92
   3   1  -5  100.85    5.92
  -2  -1   5  176.15   10.47
   2  -1  -5  183.08   10.78
   2  -1  -5  179.59   10.80
  -2  -1   5  160.05   11.14
  -2  -1   5  183.16   10.74
  -2  -1   5  171.47   10.80
  -2  -1   5  187.02   10.71
   2  -1  -5  177.10   10.40
   2  -1  -5  198.28   10.69
  -2   1   5  177.98   10.65
   2   1  -5  190.76   10.70
  -2   1   5  187.20   10.70
  -2   1   5  179.07   11.29
  -2   1   5  195.51   10.81
   2   1  -5  184.20   11.34
  -2   1   5  188.43   10.45
   2   1  -5  194.86   10.81
   2   1  -5  172.97   10.73
   2   1  -5  192.66   10.43
   1  -1  -5   69.75    4.43
  -1  -1   5   73.44    4.47
  -1  -1   5   72.50    4.33
   1  -1  -5   62.70    4.20
  -1  -1   5   64.83    4.19
  -1  -1   5   62.51    4.15
   1  -1  -5   73.23    4.53
   1  -1  -5   66.62    4.10
  -1   1   5   70.64    4.22
   1   1  -5   72.42    4.19
  -1   1   5   70.28    4.17
   1   1  -5   72.66    4.39
  -1   1   5   67.81    4.32
   1   1  -5   71.86    4.11
   1   1  -5   66.96    4.41
  -1   1   5   69.97    4.43
  -1   1   5   72.93    4.46
   1   1  -5   70.65    4.45
   0  -1   5    9.13    1.24
   0  -1   5    7.97    0.91
   0  -1   5    7.13    0.79
   0  -1  -5    8.16    1.04
   0  -1  -5    6.16    0.84
   0  -1  -5    7.63    0.76
   0  -1   5    7.83    1.13
   0  -1  -5    7.43    1.25
   0   1  -5    8.60    0.90
   0   1   5    7.05    1.01
   0   1   5    8.69    1.08
   0   1   5    6.90    0.89
   0   1  -5    9.10    1.23
   0   1   5    9.14    0.85
   0   1  -5    6.90    1.18
   0   1  -5    7.53    0.86
   0   1   5    9.59    0.93
   0   1  -5    8.99    0.89
  -1  -1  -5    3.00    1.13
   1  -1   5    1.85    0.57
   1  -1   5    2.11    0.73
  -1  -1  -5    1.97    1.00
  -1  -1  -5    2.27    0.66
   1  -1   5    1.91    0.72
   1  -1   5    2.71    0.54
  -1  -1  -5    2.20    0.52
  -1   1  -5    2.17    0.53
  -1   1  -5    2.31    0.51
   1   1   5    3.90    0.91
  -1   1  -5    3.14    0.69
  -1   1  -5    2.87    0.77
   1   1   5    1.86    0.69
   1   1   5    2.50    0.56
  -1   1  -5    2.22    0.75
   1   1   5    3.34    0.62
   1   1   5    1.83    0.95
   2  -1   5  132.82    8.73
   2  -1   5  153.03    9.01
   2  -1   5  143.69    9.03
  -2  -1  -5  141.47    8.73
   2  -1   5  156.95    9.09
  -2  -1  -5  154.60    9.14
  -2  -1  -5  151.40    9.12
  -2  -1  -5  143.78    9.01
   2   1   5  154.54    9.02
  -2   1  -5  161.62    9.03
   2   1   5  155.29    9.20
  -2   1  -5  151.88    9.08
   2   1   5  152.31    8.75
   2   1   5  149.82    9.03
  -2   1  -5  157.18    8.73
  -2   1  -5  163.43    9.97
   2   1   5  155.06    9.03
  -2   1  -5  150.21    9.07
   3  -1   5   78.38    4.93
   3  -1   5   74.89    4.78
  -3  -1  -5   76.87    5.26
  -3  -1  -5   72.70    5.28
  -3  -1  -5   68.60    4.82
  -3  -1  -5   79.33    4.93
   3  -1   5   81.09    5.14
   3  -1   5   85.09    5.11
   3   1   5   78.77    5.14
  -3   1  -5   83.26    5.52
   3   1   5   80.33    5.15
   3   1   5   81.27    5.06
   3   1   5   87.77    4.95
  -3   1  -5   81.92    5.19
  -3   1  -5   87.41    4.95
   3   1   5   81.35    4.84
  -3   1  -5   76.35    5.10
  -3   1  -5   83.14    4.80
   4  -1   5    8.40    1.39
  -4  -1  -5    7.10    1.45
   4  -1   5    6.44    1.31
  -4  -1  -5    6.91    1.32
  -4  -1  -5    7.87    0.92
  -4  -1  -5    6.66    0.90
   4   1   5    9.56    1.03
   4   1   5    7.29    0.98
  -4   1  -5    8.25    1.57
  -4   1  -5    8.55    1.08
  -4   1  -5   10.87    0.99
   4   1   5    5.10    1.13
   4   1   5    8.89    0.94
  -4   1  -5    8.45    1.18
  -4   1  -5    7.47    1.29
   4   1   5    7.83    1.14
  -5  -1  -5    0.72    0.54
   5  -1   5    0.94    0.76
   5  -1   5   -0.14    0.39
  -5  -1  -5    0.34    1.18
  -5   1  -5    0.16    0.78
  -5   1  -5    1.06    0.46
   5   1   5    0.64    0.70
   5   1   5    0.64    0.47
  -5   1  -5    0.83    0.86
   5   1   5    0.76    1.01
   5   1   5   -0.15    0.58
  -5   1  -5    1.00    1.38
   6   1   5   73.18    5.61
   6   1   5   89.03    5.36
   6   1   5   89.53    5.42
  -6   1  -5   86.26    5.32
  -6   1  -5   81.42    5.32
  -6   1  -5   84.30    5.95
   6   1   5   91.08    5.29
   7   1   5   37.70    2.72
  -7   1  -5   35.51    2.67
  -7   1  -5   34.58    3.01
   7   1   5   39.29    2.64
   7   1   5   36.96    2.57
  -8   1  -5    6.52    0.60
  -8   1  -5    6.80    1.25
   8   1   5    6.38    0.92
   8   1   5    6.98    1.19
  -8   1  -5    9.75    1.34
  -8   1  -5    6.88    1.05
  -9   1  -5    7.08    1.08
  -9   1  -5    8.59    1.45
   9   1   5    8.38    0.69
  -9   1  -5    9.22    0.72
  10   1   5    1.61    0.37
 -10   1  -5    1.13    0.33
  11   1   5    0.75    0.36
 -11   1  -5    1.00    0.47
  12   1   5   14.71    0.99
 -12   1  -5   15.23    1.16
  13   1   5   -0.23    0.37
 -13   1  -5    0.48    0.64
 -13   1  -5   -0.24    0.46
 -13   1  -5   -0.39    0.65
 -14  -1  -5    4.76    0.61
 -14   1  -5    4.76    0.46
  14   1   5    3.06    0.48
 -14   1  -5    5.22    0.79
 -14   1  -5    2.56    0.74
 -15  -1  -5   -0.34    0.33
  15   1   5    0.28    0.24
 -15   1  -5    0.24    0.38
 -15   1  -5    0.97    0.59
  16  -1   5    5.55    0.49
 -16  -1  -5    4.53    0.53
 -16   1  -5    4.25    0.52
 -16   1  -5    4.89    0.41
  16   1   5    4.54    0.40
 -18   2   5    1.18    0.43
  18   2  -5    1.92    0.34
  17   2  -5    5.30    0.47
  17   2  -5    5.54    0.60
  17   2  -5    4.20    0.51
 -17   2   5    4.76    0.73
 -16   2   5    7.82    0.90
 -16   2   5    6.86    0.88
  16   2  -5    8.20    0.76
  16   2  -5    6.03    0.67
  16   2  -5    7.57    0.57
 -15   2   5    6.54    0.86
  15   2  -5    6.05    0.56
 -15   2   5    6.48    0.89
  15   2  -5    6.11    0.75
 -15   2   5    6.00    0.56
  14   2  -5    1.73    0.46
 -14   2   5    2.07    0.65
 -14   2   5    2.41    0.55
 -14   2   5    1.67    0.45
  14   2  -5    2.10    0.34
  13   2  -5    3.50    0.47
 -13   2   5    3.27    0.42
  13   2  -5    3.94    0.64
  13   2  -5    4.04    1.68
 -13   2   5    2.57    1.29
 -13   2   5    3.51    0.58
 -12   2   5    3.45    0.57
 -12   2   5    2.24    0.97
 -12   2   5    5.40    0.54
  12   2  -5    4.19    0.53
 -12   2   5    5.83    1.78
  12   2  -5    5.90    1.56
 -12   2   5    2.19    1.00
  12   2  -5    4.17    0.48
  11   2  -5    3.20    0.54
  11   2  -5    1.18    1.04
 -11   2   5    2.18    1.23
 -11   2   5    2.94    0.36
 -11   2   5    3.63    0.62
  11   2  -5    3.60    1.39
  11   2  -5    1.32    0.80
  11   2  -5    3.25    0.35
 -11   2   5    3.08    0.95
 -11   2   5    0.88    1.06
 -11   2   5    3.59    0.56
 -10   2   5    0.89    0.75
  10   2  -5    1.74    0.45
  10   2  -5    0.71    0.68
  10   2  -5    1.82    0.96
 -10   2   5    3.42    1.41
 -10   2   5    0.85    0.45
 -10   2   5    1.48    0.39
 -10   2   5    1.37    0.38
  10   2  -5    0.72    0.32
 -10   2   5   -0.14    0.71
  10   2  -5    0.81    0.83
   9   2  -5   16.63    1.52
  -9   2   5   16.13    1.16
  -9   2   5   16.63    1.72
  -9   2   5   18.48    2.06
  -9   2   5   16.41    1.06
   9   2  -5   14.50    0.98
   9   2  -5   19.46    1.95
   9   2  -5   19.13    1.75
  -9   2   5   17.85    1.60
  -8   2   5   19.40    1.62
   8   2  -5   17.31    1.74
   8   2  -5   19.26    2.02
  -8   2   5   20.29    1.93
  -8   2   5   18.88    1.88
  -7   2   5    0.47    0.61
  -7   2   5    1.42    0.83
   7   2  -5    1.47    0.60
   7   2  -5    0.91    0.73
   7   2  -5    1.04    0.91
  -7   2   5    1.14    0.74
  -6   2   5    0.78    0.55
  -6   2   5    0.32    0.72
   6   2  -5   -0.32    0.58
  -6   2   5   -0.19    0.90
   6   2  -5    0.35    0.49
   6   2  -5    0.48    0.68
  -5  -2   5    2.40    0.95
  -5   2   5    3.90    0.68
   5   2  -5    4.82    0.81
  -5   2   5    5.11    0.88
  -5   2   5    3.62    0.65
  -5   2   5    2.37    0.97
   5   2  -5    4.41    0.65
   5   2  -5    2.93    0.93
   5   2  -5    3.77    0.76
  -5   2   5    4.27    1.13
   5   2  -5    3.06    1.05
   4  -2  -5   26.63    2.42
   4  -2  -5   32.18    2.61
  -4  -2   5   29.92    2.58
  -4  -2   5   32.83    2.49
  -4   2   5   34.33    2.13
  -4   2   5   31.40    2.52
   4   2  -5   32.27    2.12
  -4   2   5   33.48    2.52
   4   2  -5   33.04    2.16
  -4   2   5   28.85    2.29
  -4   2   5   31.67    2.20
   4   2  -5   33.20    2.54
   4   2  -5   32.36    2.45
  -3  -2   5    8.53    1.17
   3  -2  -5    7.96    1.15
   3  -2  -5    7.26    1.27
  -3  -2   5    6.88    1.20
  -3   2   5    7.04    0.77
   3   2  -5    7.09    1.10
  -3   2   5    8.44    1.04
   3   2  -5    7.12    1.13
   3   2  -5    8.21    0.85
   3   2  -5    9.03    1.10
  -3   2   5    8.22    0.91
  -3   2   5    8.65    0.86
  -3   2   5    6.80    0.75
   3   2  -5    7.79    0.85
  -3   2   5    8.99    1.18
  -3   2   5    8.28    1.18
   2  -2  -5   20.50    1.89
  -2  -2   5   24.55    1.91
  -2  -2   5   19.74    1.91
   2  -2  -5   23.82    2.06
  -2   2   5   24.64    1.51
   2   2  -5   23.48    1.50
   2   2  -5   22.13    1.82
   2   2  -5   19.43    1.53
   2   2  -5   22.07    1.53
   2   2  -5   20.17    1.45
   2   2  -5   20.53    1.89
  -2   2   5   19.89    1.47
   2   2  -5   20.61    1.87
  -2   2   5   22.34    1.73
  -2   2   5   21.39    1.60
  -2   2   5   19.85    1.71
  -2   2   5   20.50    1.88
  -2   2   5   19.58    1.44
  -1  -2   5  187.58   10.91
   1  -2  -5  189.01   10.93
  -1  -2   5  188.67   10.96
   1  -2  -5  197.22   11.00
   1   2  -5  163.52   10.66
   1   2  -5  204.57   11.03
  -1   2   5  166.64   10.61
  -1   2   5  198.23   11.03
  -1   2   5  189.89   10.87
  -1   2   5  165.18   11.02
   1   2  -5  196.33   11.67
   1   2  -5  197.39   10.64
   1   2  -5  169.60   11.02
   1   2  -5  176.10   10.88
   1   2  -5  187.65   10.95
  -1   2   5  197.20   11.61
  -1   2   5  201.64   11.30
  -1   2   5  179.11   10.92
  -1   2   5  198.37   10.68
   0  -2  -5  149.31    8.82
   0  -2   5  148.42    8.84
   0  -2  -5  149.31    8.87
   0  -2   5  146.70    8.77
   0   2  -5  139.04    8.78
   0   2  -5  141.90    8.81
   0   2   5  165.43    8.57
   0   2   5  146.05    8.74
   0   2  -5  148.52    8.79
   0   2   5  152.45    8.82
   0   2   5  155.35    9.33
   0   2  -5  157.79    8.82
   0   2   5  139.16    8.83
   0   2   5  153.47    9.04
   0   2  -5  152.42    9.35
   0   2  -5  161.65    9.79
   0   2   5  127.11    8.50
   0   2   5  158.21    8.83
   0   2  -5  128.97    8.53
   0   2  -5  154.65    8.52
   1  -2   5   15.83    1.53
   1  -2   5   16.26    1.58
  -1  -2  -5   16.61    1.69
  -1  -2  -5   16.64    1.64
  -1   2  -5   17.69    1.72
  -1   2  -5   14.65    1.50
  -1   2  -5   16.66    1.56
   1   2   5   18.53    1.40
   1   2   5   14.73    1.22
  -1   2  -5   16.67    1.25
  -1   2  -5   14.45    1.19
   1   2   5   18.97    1.57
   1   2   5   18.19    1.29
  -1   2  -5   14.97    1.37
   1   2   5   18.72    1.62
   1   2   5   17.01    1.43
  -1   2  -5   17.50    1.35
   1   2   5   14.32    1.22
   1   2   5   16.56    1.64
  -1   2  -5   16.16    1.60
   2  -2   5    1.34    0.86
   2  -2   5    2.20    0.86
  -2  -2  -5    4.32    1.16
  -2  -2  -5    1.03    0.99
  -2   2  -5    3.24    0.69
   2   2   5    2.23    0.78
  -2   2  -5    1.95    0.98
   2   2   5    2.79    0.88
  -2   2  -5    3.29    0.81
  -2   2  -5    2.87    0.52
   2   2   5    1.81    0.71
   2   2   5    2.60    0.66
   2   2   5    4.01    0.64
  -2   2  -5    3.49    0.81
  -2   2  -5    1.25    0.82
  -2   2  -5    1.95    0.36
   3  -2   5   14.40    1.64
  -3  -2  -5   13.10    1.57
  -3   2  -5   16.76    1.27
   3   2   5   13.29    1.43
   3   2   5   15.72    1.30
   3   2   5   13.62    1.56
  -3   2  -5   15.77    1.63
  -3   2  -5   14.09    1.42
  -3   2  -5   14.11    1.75
   3   2   5   14.95    1.38
  -3   2  -5   15.59    1.69
   3   2   5   14.23    1.41
   4   2   5    8.70    1.15
  -4   2  -5    8.55    1.40
  -4   2  -5   10.81    1.02
   4   2   5   10.35    1.11
   4   2   5   10.56    1.04
  -4   2  -5   10.61    1.16
   4   2   5   10.92    1.44
  -5   2  -5   23.77    2.21
  -5   2  -5   24.53    1.88
   5   2   5   24.72    1.96
   5   2   5   24.68    1.93
   5   2   5   25.00    1.89
  -5   2  -5   26.67    2.02
  -6   2  -5   10.18    1.25
  -6   2  -5   10.87    1.54
  -6   2  -5    9.14    1.08
   6   2   5    9.84    1.00
   6   2   5    7.18    0.98
   6   2   5    8.97    1.05
   7   2   5   54.89    3.16
   7   2   5   59.54    3.88
   7   2   5   60.08    3.87
  -7   2  -5   66.15    3.93
  -7   2  -5   57.79    3.82
   7   2   5   59.13    3.91
  -7   2  -5   54.77    3.19
  -7   2  -5   62.10    4.51
   8   2   5   10.04    1.32
  -8   2  -5   10.17    0.90
   8   2   5    7.47    0.72
  -8   2  -5    7.55    0.71
  -8   2  -5    9.39    1.57
  -8   2  -5   11.01    1.40
   8   2   5    7.16    0.64
  -8   2  -5    8.00    1.15
  -8   2  -5    7.83    0.70
   8   2   5    8.12    1.12
   8   2   5   10.39    1.22
   9   2   5   23.16    1.58
  -9   2  -5   22.38    2.58
  -9   2  -5   23.74    2.00
   9   2   5   25.54    2.18
  -9   2  -5   26.00    1.65
  -9   2  -5   25.81    1.49
  -9   2  -5   25.16    2.39
   9   2   5   23.85    2.06
   9   2   5   24.16    1.39
  -9   2  -5   21.14    1.49
 -10   2  -5   -0.18    0.38
 -10   2  -5    1.08    1.17
  10   2   5   -0.09    0.31
 -10   2  -5   -0.26    0.59
  10   2   5    0.71    0.45
  10   2   5   -0.98    0.89
 -10   2  -5    0.60    0.85
 -11   2  -5    0.02    0.28
 -11   2  -5   -0.90    0.60
 -11   2  -5    0.31    0.69
  11   2   5    0.33    0.34
  11   2   5   -0.94    0.33
  12   2   5    1.83    0.43
  12   2   5    0.96    0.51
 -12   2  -5    1.37    0.65
 -12   2  -5    1.85    0.34
  12   2   5    1.52    0.39
 -12   2  -5    2.05    0.76
  13   2   5   -0.19    0.34
  13   2   5    0.39    0.48
 -13   2  -5    0.54    0.50
  13   2   5    0.73    0.36
 -13   2  -5    0.43    0.37
 -13   2  -5    0.07    0.63
  14   2   5   -0.13    0.30
  14   2   5    1.14    0.48
 -14   2  -5    0.55    0.71
 -14   2  -5    0.06    0.28
  14   2   5    0.95    0.32
 -14   2  -5    1.32    0.63
 -15   2  -5   30.11    1.92
 -15   2  -5   26.33    2.08
 -15   2  -5   25.75    1.97
  15   2   5   29.75    1.88
  15   2   5   31.11    1.62
 -16  -2  -5    0.16    0.28
  16   2   5   -0.42    0.25
  16   2   5    0.29    0.11
  16   2   5    0.06    0.27
 -16   2  -5    0.19    0.32
  17   3  -5    2.31    0.44
 -17   3   5    1.36    0.56
 -17   3   5    1.54    0.41
  16   3  -5   -0.44    0.41
  16   3  -5    0.00    0.47
 -16   3   5   -0.30    0.58
 -16   3   5    0.25    0.59
 -16   3   5   -0.09    0.50
  15   3  -5    9.73    1.01
  15   3  -5    9.63    0.87
 -15   3   5   10.28    0.94
 -15   3   5   10.34    1.07
 -15   3   5   10.45    0.92
 -14   3   5    0.18    0.61
 -14   3   5    0.91    0.63
  14   3  -5    0.13    0.29
 -14   3   5   -0.33    0.41
  14   3  -5    0.27    0.54
  14   3  -5    0.03    0.46
 -13   3   5    4.78    0.77
 -13   3   5    3.43    0.72
  13   3  -5    4.20    0.43
 -13   3   5    4.69    0.70
  13   3  -5    4.98    0.66
  13   3  -5    4.07    0.55
 -13   3   5    4.20    0.39
 -12   3   5   13.14    1.19
  12   3  -5   13.01    1.01
  12   3  -5   14.05    1.19
  12   3  -5   13.53    0.88
 -12   3   5   14.20    1.40
 -12   3   5   14.41    0.94
  12   3  -5   16.35    1.38
 -12   3   5   14.01    1.24
  12   3  -5    9.84    2.04
 -12   3   5   14.00    2.42
 -11   3   5    0.94    0.81
 -11   3   5    0.63    1.17
  11   3  -5    0.44    0.53
  11   3  -5    1.15    0.46
 -11   3   5    0.92    0.35
 -11   3   5    0.89    0.54
  11   3  -5    0.63    0.46
  11   3  -5    1.63    1.09
  11   3  -5    0.97    0.31
 -11   3   5    0.09    0.51
  11   3  -5   -0.33    1.41
 -11   3   5    0.85    0.52
 -11   3   5    0.73    1.16
 -10   3   5   11.91    1.60
  10   3  -5   14.75    0.93
  10   3  -5   14.74    1.14
 -10   3   5   14.05    0.91
 -10   3   5   15.63    1.98
  10   3  -5   12.48    1.56
 -10   3   5   13.57    1.12
 -10   3   5   16.22    1.33
  10   3  -5   13.50    1.04
  10   3  -5   13.69    1.44
 -10   3   5   12.57    1.43
  10   3  -5   17.65    2.11
 -10   3   5   15.47    1.19
   9   3  -5   17.63    1.69
  -9   3   5   16.93    1.60
   9   3  -5   14.97    1.13
  -9   3   5   17.68    1.36
  -9   3   5   16.19    1.68
   9   3  -5   16.34    1.59
  -9   3   5   15.76    1.04
   9   3  -5   18.67    2.13
  -9   3   5   17.16    1.26
   9   3  -5   16.66    1.03
   9   3  -5   17.62    1.23
  -9   3   5   16.87    1.11
  -9   3   5   18.36    1.56
  -9   3   5   18.83    2.20
  -8   3   5    3.69    0.91
   8   3  -5    2.20    0.34
  -8   3   5    3.52    0.48
  -8   3   5    2.88    0.70
  -8   3   5    2.11    0.28
  -8   3   5    2.24    0.44
  -8   3   5    1.76    0.60
  -8   3   5    2.71    0.41
  -8   3   5    2.08    0.99
   8   3  -5    2.49    0.44
   8   3  -5    1.86    0.66
   8   3  -5    1.79    0.38
   8   3  -5    2.53    1.22
   8   3  -5    1.60    0.82
   8   3  -5    2.37    0.30
  -7   3   5   18.95    1.53
  -7   3   5   19.12    1.95
   7   3  -5   18.94    1.99
   7   3  -5   18.45    1.69
  -7   3   5   18.82    1.73
   6   3  -5   40.57    2.68
   6   3  -5   36.66    3.07
  -6   3   5   41.86    2.78
  -6   3   5   41.39    2.64
  -6   3   5   35.63    3.17
   6   3  -5   40.68    2.66
   5   3  -5   68.79    4.25
  -5   3   5   72.68    4.31
   5   3  -5   75.30    4.37
  -5   3   5   68.26    4.31
   5   3  -5   67.60    4.80
  -5   3   5   66.65    4.86
   4   3  -5   43.37    3.15
  -4   3   5   40.10    3.28
  -4   3   5   42.61    2.85
   4   3  -5   44.32    2.81
   4   3  -5   44.97    3.25
   4   3  -5   47.22    2.80
  -4   3   5   41.28    2.88
  -4   3   5   47.69    2.80
  -3   3   5   17.55    1.20
  -3   3   5   16.59    1.31
  -3   3   5   14.33    1.41
   3   3  -5   16.77    1.71
  -3   3   5   14.16    1.33
  -3   3   5   16.81    1.79
   3   3  -5   18.25    1.29
  -3   3   5   13.83    1.14
   3   3  -5   18.00    1.29
   3   3  -5   16.10    1.69
   2  -3  -5   51.67    3.59
  -2   3   5   62.67    3.43
   2   3  -5   51.50    3.38
  -2   3   5   46.27    3.49
  -2   3   5   50.95    3.66
  -2   3   5   53.99    3.42
  -2   3   5   50.76    3.30
  -2   3   5   59.15    3.91
   2   3  -5   54.14    3.42
   2   3  -5   60.90    3.46
   2   3  -5   56.92    4.01
   2   3  -5   60.91    3.88
   2   3  -5   62.93    3.37
  -2   3   5   51.50    3.60
   2   3  -5   54.13    3.68
   2   3  -5   56.40    3.65
  -2   3   5   60.13    3.38
   1  -3  -5   30.95    2.45
  -1  -3   5   28.83    2.40
  -1   3   5   36.73    2.19
   1   3  -5   31.24    2.46
   1   3  -5   34.91    2.15
   1   3  -5   35.64    2.72
  -1   3   5   35.71    2.61
   1   3  -5   34.02    2.56
   1   3  -5   30.41    2.16
   1   3  -5   29.80    2.37
  -1   3   5   31.51    2.06
   1   3  -5   32.96    2.12
  -1   3   5   36.66    2.49
   1   3  -5   33.41    2.16
  -1   3   5   32.05    2.15
  -1   3   5   31.50    2.29
  -1   3   5   37.77    2.14
  -1   3   5   31.38    2.43
   0  -3   5   30.28    2.41
   0  -3  -5   29.76    2.44
   0   3  -5   33.02    2.75
   0   3   5   35.22    2.15
   0   3   5   31.45    2.25
   0   3   5   31.08    2.37
   0   3  -5   29.06    2.11
   0   3   5   30.74    2.10
   0   3  -5   35.21    2.51
   0   3  -5   35.10    2.08
   0   3   5   35.76    2.47
   0   3  -5   29.71    2.39
   0   3  -5   31.63    2.08
   0   3   5   28.04    2.01
   0   3  -5   36.21    2.13
   0   3   5   33.87    2.09
   0   3   5   33.95    2.55
   0   3  -5   33.05    2.46
  -1   3  -5   29.04    1.88
   1   3   5   28.27    1.81
  -1   3  -5   26.26    2.05
  -1   3  -5   26.61    2.47
   1   3   5   28.41    2.20
   1   3   5   25.21    1.98
  -1   3  -5   26.22    1.79
   1   3   5   25.62    2.24
  -1   3  -5   26.56    1.76
  -1   3  -5   26.44    2.07
  -1   3  -5   25.56    1.77
   1   3   5   26.98    1.81
  -2   3  -5   39.48    2.43
   2   3   5   38.36    2.80
  -2   3  -5   39.57    2.81
   2   3   5   38.42    2.50
   2   3   5   38.33    2.47
   2   3   5   41.13    2.79
  -2   3  -5   33.21    2.42
  -2   3  -5   32.95    3.09
   3   3   5  114.44    6.85
  -3   3  -5  105.34    7.75
   3   3   5  119.80    6.63
   3   3   5  111.82    7.06
  -3   3  -5  111.23    6.65
  -3   3  -5  113.47    6.79
   4   3   5   13.73    1.33
   4   3   5   12.75    1.33
   4   3   5   13.55    1.26
  -4   3  -5   13.44    1.78
  -4   3  -5   14.44    1.36
  -4   3  -5   14.10    1.21
   5   3   5   38.52    2.67
   5   3   5   38.45    2.82
  -5   3  -5   38.45    3.38
  -5   3  -5   37.71    2.68
  -5   3  -5   37.95    2.63
   5   3   5   42.30    2.71
   6   3   5    1.75    0.25
   6   3   5    2.72    0.40
  -6   3  -5    1.73    0.79
   6   3   5    1.75    0.37
   6   3   5    2.72    0.83
  -6   3  -5    2.90    0.54
  -6   3  -5    2.57    0.69
   6   3   5    3.89    0.80
  -6   3  -5    2.05    0.33
  -6   3  -5    1.67    0.28
   6   3   5    2.41    0.93
  -6   3  -5    1.15    1.26
   7   3   5   22.77    1.85
   7   3   5   20.64    1.18
  -7   3  -5   19.79    1.23
   7   3   5   19.09    1.31
  -7   3  -5   24.02    1.83
  -7   3  -5   24.87    2.59
   7   3   5   20.44    2.07
  -7   3  -5   24.76    1.97
  -7   3  -5   18.21    1.58
   7   3   5   18.81    1.33
   7   3   5   19.76    1.88
  -7   3  -5   20.17    1.33
  -7   3  -5   20.51    1.37
  -8   3  -5    3.16    0.37
   8   3   5    3.16    0.35
  -8   3  -5    3.32    0.54
  -8   3  -5    2.28    1.00
   8   3   5    3.98    0.91
  -8   3  -5    4.52    0.81
  -8   3  -5    3.19    0.61
  -8   3  -5    4.34    1.52
   8   3   5    2.92    0.48
   8   3   5    4.65    1.07
  -8   3  -5    3.51    0.88
  -8   3  -5    4.77    0.62
   8   3   5    3.12    0.48
   8   3   5    4.12    1.01
   9   3   5   12.86    1.63
  -9   3  -5   15.43    1.56
   9   3   5   15.92    0.94
  -9   3  -5   14.43    0.99
  -9   3  -5   15.07    1.24
  -9   3  -5   12.31    2.10
  -9   3  -5   14.14    1.04
  -9   3  -5   15.50    1.42
  -9   3  -5   15.05    1.75
   9   3   5   15.50    1.61
   9   3   5   13.45    1.14
   9   3   5   11.88    1.46
  10   3   5    0.03    0.28
 -10   3  -5    0.40    0.55
 -10   3  -5    0.22    0.73
 -10   3  -5   -1.42    1.11
 -10   3  -5    0.45    0.97
  10   3   5   -0.06    1.03
 -10   3  -5    0.00    0.37
  10   3   5   -0.48    0.53
 -10   3  -5   -0.13    0.29
  10   3   5    0.05    0.30
  10   3   5   -0.45    0.46
  11   3   5    2.10    0.53
 -11   3  -5    1.85    0.81
  11   3   5    2.55    0.35
 -11   3  -5    2.63    0.63
 -11   3  -5    2.38    0.37
 -11   3  -5    2.73    0.63
  11   3   5    2.61    0.51
  12   3   5    5.17    0.63
 -12   3  -5    5.57    0.75
 -12   3  -5    3.48    0.91
  12   3   5    4.57    0.55
 -12   3  -5    5.61    0.63
 -12   3  -5    4.93    0.40
  12   3   5    4.56    0.42
  13   3   5    1.12    0.42
 -13   3  -5   -0.29    0.42
 -13   3  -5    1.21    0.79
  13   3   5    0.49    0.48
  13   3   5    0.04    0.22
 -13   3  -5   -0.02    0.55
 -14   3  -5    5.65    0.59
 -14   3  -5    5.00    0.69
  14   3   5    4.51    0.33
  14   3   5    4.49    0.51
 -14   3  -5    4.60    0.51
  14   3   5    3.21    0.58
  14   3   5    2.85    0.48
  15   3   5    1.96    0.44
 -15   3  -5    1.81    0.45
 -15   3  -5    1.67    0.49
 -15   3  -5    1.21    0.54
  16   3   5    0.43    0.23
 -16   3  -5    1.02    0.20
  17   4  -5    0.57    0.31
  16   4  -5    0.64    0.33
  16   4  -5    0.84    0.33
 -16   4   5    0.90    0.41
  16   4  -5    0.33    0.43
 -16   4   5    0.50    0.59
  15   4  -5    0.90    0.31
 -15   4   5    0.55    0.43
  15   4  -5    1.23    0.37
  15   4  -5    0.99    0.45
 -15   4   5    1.73    0.90
 -14   4   5    0.84    0.90
  14   4  -5    1.89    0.50
  14   4  -5   -0.19    0.50
  14   4  -5    1.80    0.67
 -14   4   5    0.83    0.46
 -14   4   5    1.75    0.62
  13   4  -5    2.12    0.42
 -13   4   5    2.72    0.56
 -13   4   5    1.71    0.94
  13   4  -5    1.87    0.41
  13   4  -5    2.10    0.71
 -13   4   5    2.26    0.49
  12   4  -5    5.90    0.56
  12   4  -5    5.97    0.66
 -12   4   5    6.26    0.61
  12   4  -5    4.63    0.34
 -12   4   5    6.18    0.69
  12   4  -5    5.90    0.72
 -12   4   5    5.93    0.88
 -11   4   5    2.97    0.57
 -11   4   5    3.82    1.87
  11   4  -5    2.54    0.53
 -11   4   5    3.87    0.61
 -11   4   5    3.56    0.72
  11   4  -5    3.13    0.59
  11   4  -5    3.19    0.28
  11   4  -5    1.35    1.21
 -11   4   5    3.80    0.58
  11   4  -5    4.08    0.55
  10   4  -5    3.13    0.29
  10   4  -5    3.83    0.53
 -10   4   5    2.50    0.77
 -10   4   5    2.22    0.96
 -10   4   5    2.83    0.64
 -10   4   5    3.96    0.70
 -10   4   5    4.11    0.56
  10   4  -5    1.92    0.98
  10   4  -5    3.96    1.24
  10   4  -5    3.01    0.62
 -10   4   5    4.18    0.72
 -10   4   5    3.77    0.46
  10   4  -5    3.95    0.83
 -10   4   5    3.90    1.83
  10   4  -5    3.77    0.52
 -10   4   5    3.48    0.53
  10   4  -5    3.54    0.57
  -9   4   5    4.65    0.67
  -9   4   5    4.53    0.62
   9   4  -5    4.64    1.15
  -9   4   5    4.46    1.35
  -9   4   5    3.56    1.09
   9   4  -5    4.54    1.57
   9   4  -5    4.17    0.58
  -9   4   5    4.57    0.60
   9   4  -5    4.01    0.45
  -9   4   5    4.45    0.48
  -9   4   5    3.92    0.89
  -9   4   5    4.45    0.68
  -9   4   5    3.95    0.59
   9   4  -5    4.26    0.83
   9   4  -5    4.18    0.67
   9   4  -5    4.71    0.52
   9   4  -5    4.03    0.36
  -8   4   5    4.38    0.58
  -8   4   5    3.74    1.54
   8   4  -5    3.52    0.77
  -8   4   5    3.27    0.65
   8   4  -5    5.15    0.95
   8   4  -5    3.20    0.53
  -8   4   5    5.18    1.05
  -8   4   5    4.96    0.53
  -8   4   5    3.95    0.74
   8   4  -5    4.42    0.48
  -8   4   5    4.33    0.54
   8   4  -5    4.39    0.68
  -8   4   5    4.22    0.49
  -8   4   5    4.02    0.64
   8   4  -5    3.92    1.18
   8   4  -5    4.51    0.50
   8   4  -5    4.74    0.57
   8   4  -5    3.89    0.47
   8   4  -5    4.12    0.34
  -7   4   5   33.67    2.04
   7   4  -5   35.02    2.83
  -7   4   5   38.35    2.45
   7   4  -5   29.09    1.78
   7   4  -5   36.14    2.41
  -7   4   5   35.34    2.29
   7   4  -5   28.54    2.30
   7   4  -5   29.86    2.17
   7   4  -5   38.51    2.34
   7   4  -5   33.15    2.04
  -7   4   5   33.84    2.26
  -7   4   5   31.65    2.31
   7   4  -5   33.90    1.92
  -7   4   5   36.25    3.24
   7   4  -5   36.34    2.34
  -7   4   5   35.48    1.95
  -7   4   5   32.20    2.48
   7   4  -5   34.68    2.35
  -7   4   5   31.09    2.34
  -6   4   5   19.17    1.44
   6   4  -5   19.38    1.54
   6   4  -5   17.18    1.35
   6   4  -5   19.73    1.44
  -6   4   5   17.76    1.16
   6   4  -5   18.58    1.15
  -6   4   5   16.25    1.47
  -6   4   5   19.46    1.46
  -6   4   5   18.10    1.22
   6   4  -5   17.30    1.41
  -6   4   5   17.83    1.59
   6   4  -5   19.10    1.46
  -6   4   5   20.33    1.58
   6   4  -5   19.48    1.21
  -6   4   5   18.11    1.48
  -6   4   5   19.15    2.17
   6   4  -5   19.65    1.47
   6   4  -5   20.29    2.06
  -5   4   5   25.80    1.77
   5   4  -5   23.63    1.70
  -5   4   5   23.87    1.58
  -5   4   5   27.92    1.85
   5   4  -5   25.66    1.57
  -5   4   5   24.82    1.49
   5   4  -5   27.56    2.22
  -5   4   5   25.40    2.32
   5   4  -5   25.15    1.48
  -5   4   5   24.91    1.84
   5   4  -5   25.51    1.84
   5   4  -5   28.63    1.85
  -5   4   5   27.74    1.77
   4   4  -5   22.63    2.23
  -4   4   5   23.24    2.32
  -4   4   5   24.37    1.61
   4   4  -5   25.03    1.70
  -4   4   5   24.15    1.71
  -3   4   5    2.34    0.38
   3   4  -5    1.30    0.93
   3   4  -5    2.10    0.51
   3   4  -5    2.07    0.68
  -3   4   5    2.17    0.36
   3   4  -5    1.91    0.43
  -3   4   5    1.53    0.65
  -3   4   5    2.74    1.05
  -3   4   5    1.32    0.37
  -3   4   5    2.23    0.49
  -2   4   5    8.22    0.69
   2   4  -5    8.07    1.27
  -2   4   5    8.31    0.79
   2   4  -5    7.73    0.74
  -2   4   5    8.77    0.98
  -2   4   5    8.67    0.71
  -2   4   5    7.69    0.69
   2   4  -5    7.92    0.68
   2   4  -5    8.57    1.33
   2   4  -5    8.62    0.82
   2   4  -5    7.98    0.79
  -2   4   5    7.20    1.28
  -1   4   5   97.13    5.94
  -1   4   5  110.27    5.97
  -1   4   5  100.12    6.17
  -1   4   5  105.58    6.81
   1   4  -5  110.17    6.18
   1   4  -5   91.77    6.17
  -1   4   5  109.68    6.16
   1   4  -5  111.91    5.99
   1   4  -5  103.52    7.13
  -1   4   5  110.69    6.59
   1   4  -5   95.66    5.98
   1   4  -5  103.62    6.79
   0   4  -5   11.71    0.94
   0   4   5   13.09    1.42
   0   4   5   13.83    1.59
   0   4   5   14.01    1.00
   0   4  -5   12.94    1.48
   0   4  -5   13.21    0.98
   0   4   5   13.56    0.96
   0   4  -5   12.43    1.01
   0   4  -5   13.79    1.07
   0   4   5   13.52    0.93
   0   4  -5   12.80    1.68
   0   4   5   12.78    0.96
   1   4   5   55.63    3.80
  -1   4  -5   56.19    3.79
   1   4   5   58.17    3.27
  -1   4  -5   55.43    4.23
  -1   4  -5   56.16    3.26
   1   4   5   56.54    3.35
  -1   4  -5   51.08    3.24
  -1   4  -5   44.83    3.29
   1   4   5   56.54    3.85
  -1   4  -5   57.92    3.32
   2   4   5    0.25    0.84
   2   4   5    0.07    0.46
   2   4   5   -0.28    0.41
  -2   4  -5    0.21    0.43
  -2   4  -5    0.53    0.80
  -2   4  -5   -0.24    0.37
  -2   4  -5    0.69    1.10
  -3   4  -5   38.28    2.64
   3   4   5   35.52    2.44
  -3   4  -5   39.46    2.40
   3   4   5   36.99    2.24
  -3   4  -5   37.95    3.35
   3   4   5   34.84    2.76
   4   4   5    2.69    0.34
   4   4   5    2.45    0.56
  -4   4  -5    3.76    0.52
   4   4   5    2.90    0.66
  -4   4  -5    4.04    0.61
  -4   4  -5    3.70    0.39
  -4   4  -5    3.39    0.46
   4   4   5    3.26    0.58
  -4   4  -5    3.00    0.40
  -4   4  -5    2.49    0.48
   4   4   5    2.63    0.37
  -4   4  -5    2.76    0.67
   4   4   5    3.25    1.03
  -4   4  -5    3.54    0.75
   4   4   5    4.33    0.69
  -4   4  -5    2.07    1.33
   4   4   5    2.94    0.71
   5   4   5    8.31    0.69
  -5   4  -5    8.46    0.82
  -5   4  -5    8.18    0.90
   5   4   5    8.62    0.70
  -5   4  -5    9.56    1.08
   5   4   5    7.17    0.81
  -5   4  -5    8.46    0.87
  -5   4  -5    8.76    0.70
  -5   4  -5    8.55    0.89
   5   4   5    8.31    1.18
   5   4   5    7.61    0.85
   5   4   5    8.33    0.75
  -5   4  -5   10.36    1.83
   5   4   5    7.92    0.98
  -5   4  -5    8.63    0.74
   5   4   5    7.46    0.95
  -5   4  -5    8.27    0.78
   6   4   5    2.78    0.88
  -6   4  -5    2.61    0.43
   6   4   5    2.06    0.35
  -6   4  -5    2.51    0.61
   6   4   5    1.85    0.41
   6   4   5    3.45    1.14
   6   4   5    2.70    0.70
  -6   4  -5    2.13    0.51
  -6   4  -5    2.06    0.40
   6   4   5    1.89    0.37
  -6   4  -5    1.96    0.56
   6   4   5    1.97    0.44
  -6   4  -5    2.00    1.43
  -6   4  -5    2.33    0.77
   6   4   5    1.99    0.46
   6   4   5    1.77    0.17
  -6   4  -5    2.35    0.64
   7   4   5    7.04    0.99
  -7   4  -5    7.10    0.94
  -7   4  -5    6.78    0.98
   7   4   5    5.88    1.28
   7   4   5    6.13    0.56
   7   4   5    5.12    0.78
   7   4   5    5.40    0.39
   7   4   5    5.64    0.55
   7   4   5    6.06    1.14
   7   4   5    5.41    0.62
  -7   4  -5    6.40    1.44
  -7   4  -5    6.40    0.62
  -7   4  -5    5.79    0.59
  -7   4  -5    5.36    0.69
  -7   4  -5    4.39    1.14
  -7   4  -5    6.18    0.81
   7   4   5    5.30    0.69
  -8   4  -5    1.60    0.69
   8   4   5    2.41    0.23
   8   4   5    2.29    0.35
  -8   4  -5    3.11    0.68
  -8   4  -5    2.26    0.52
   8   4   5    1.50    0.81
  -8   4  -5    2.31    1.14
   8   4   5    1.51    0.79
  -8   4  -5    2.43    0.49
   8   4   5    2.14    0.52
   8   4   5    1.86    0.89
  -8   4  -5    3.42    0.51
   8   4   5    2.31    0.51
  -8   4  -5    2.99    1.67
  -8   4  -5    2.35    0.54
  -9   4  -5   20.86    1.37
  -9   4  -5   18.88    1.47
  -9   4  -5   19.55    1.38
   9   4   5   20.39    1.54
  -9   4  -5   11.79    2.40
  -9   4  -5   20.23    1.61
   9   4   5   20.55    1.34
   9   4   5   19.31    1.36
  -9   4  -5   18.96    1.92
   9   4   5   19.09    1.07
   9   4   5   13.04    1.89
  10   4   5    5.54    0.36
  10   4   5    5.93    0.64
 -10   4  -5    6.46    0.68
 -10   4  -5    5.99    1.04
  10   4   5    7.25    0.74
  10   4   5    5.79    0.59
 -10   4  -5    5.29    0.70
  11   4   5    4.44    0.62
 -11   4  -5    3.87    0.58
 -11   4  -5    5.24    0.79
  11   4   5    3.05    0.54
 -11   4  -5    4.02    0.55
  11   4   5    3.24    0.72
 -12   4  -5    0.30    0.85
  12   4   5    1.75    0.49
 -12   4  -5    1.47    0.45
  12   4   5    1.99    0.42
  12   4   5    1.52    0.36
 -12   4  -5    2.15    0.48
  13   4   5    2.65    0.41
 -13   4  -5    1.94    0.42
  13   4   5    1.87    0.34
 -13   4  -5    1.89    0.86
 -13   4  -5    2.20    0.62
  13   4   5    1.67    0.46
  14   4   5    7.18    0.57
 -14   4  -5    7.99    0.64
  14   4   5    7.17    0.64
 -14   4  -5    7.02    0.81
 -14   4  -5    6.03    0.51
  14   4   5    5.72    0.66
  15   4   5    0.80    0.23
 -15   4  -5    0.96    0.44
 -15   4  -5    0.38    0.39
  15   4   5    0.39    0.27
 -16   5   5   -0.78    0.36
  16   5  -5   -0.01    0.23
  16   5  -5    0.16    0.36
 -15   5   5    1.64    0.81
 -15   5   5    2.58    0.38
  15   5  -5    2.34    0.64
  15   5  -5    1.33    0.32
 -14   5   5    4.31    0.78
  14   5  -5    3.97    0.45
  14   5  -5    4.28    0.61
  14   5  -5    3.82    0.40
 -14   5   5    4.28    0.49
  13   5  -5    2.07    0.73
 -13   5   5    2.15    0.98
 -13   5   5    2.01    0.56
  13   5  -5    2.09    0.35
  13   5  -5    1.95    0.50
  12   5  -5    6.73    0.75
  12   5  -5    4.85    0.63
  12   5  -5    4.99    0.54
 -12   5   5    5.26    0.86
 -12   5   5    6.33    0.68
 -12   5   5    6.59    0.91
 -11   5   5   26.92    2.24
 -11   5   5   24.51    2.07
  11   5  -5   26.92    1.61
 -11   5   5   25.27    1.63
  11   5  -5   26.51    1.96
  11   5  -5   25.78    1.59
 -11   5   5   21.70    1.47
 -10   5   5    0.23    0.86
 -10   5   5    0.51    0.43
  10   5  -5    1.05    0.36
  10   5  -5    0.49    0.71
  10   5  -5    0.40    0.49
  10   5  -5    0.45    0.42
 -10   5   5    0.60    0.23
 -10   5   5    1.64    0.55
 -10   5   5    0.61    0.48
   9   5  -5   10.79    0.99
   9   5  -5    4.97    1.42
  -9   5   5    8.36    0.62
   9   5  -5    8.80    0.73
  -9   5   5    8.60    1.05
  -9   5   5    9.72    1.03
   9   5  -5    9.73    0.82
   9   5  -5    8.85    0.87
  -9   5   5   11.32    1.14
  -9   5   5    5.97    0.82
  -9   5   5    8.02    0.92
  -9   5   5    8.87    0.74
   9   5  -5    8.20    0.84
   9   5  -5   10.56    0.99
  -9   5   5   11.14    1.89
  -8   5   5   22.75    1.69
  -8   5   5   22.64    1.56
   8   5  -5   26.11    1.99
  -8   5   5   28.15    2.02
   8   5  -5   31.96    1.94
  -8   5   5   30.40    2.22
   8   5  -5   23.64    2.78
  -8   5   5   26.89    2.22
  -8   5   5   29.52    1.63
   8   5  -5   26.40    2.04
  -8   5   5   25.66    2.93
   8   5  -5   28.78    1.62
   8   5  -5   26.90    1.99
   8   5  -5   26.32    1.98
  -8   5   5   25.73    1.95
   8   5  -5   26.89    1.66
   8   5  -5   28.84    2.00
   7   5  -5    0.90    0.60
   7   5  -5    0.84    0.34
  -7   5   5    0.48    0.65
   7   5  -5    0.45    0.49
   7   5  -5   -0.15    0.61
  -7   5   5    1.42    1.50
   7   5  -5    1.15    0.38
  -7   5   5    0.67    0.58
   7   5  -5   -1.66    1.28
   7   5  -5    0.63    0.30
   7   5  -5    0.96    0.54
   7   5  -5    0.64    0.41
  -7   5   5    0.94    0.34
  -7   5   5    0.99    0.42
  -7   5   5    2.12    0.72
   6   5  -5    2.92    0.58
  -6   5   5    3.65    0.62
   6   5  -5    3.70    0.39
  -6   5   5    2.71    1.13
  -6   5   5    3.67    0.41
   6   5  -5    3.51    0.69
  -6   5   5    4.07    0.75
   6   5  -5    3.50    0.33
   6   5  -5    5.03    1.47
  -6   5   5    3.66    0.66
  -6   5   5    3.33    0.53
   6   5  -5    4.33    0.68
   6   5  -5    3.20    0.55
   6   5  -5    3.84    0.55
   6   5  -5    3.16    0.61
   5   5  -5   54.93    3.36
   5   5  -5   53.74    3.69
   5   5  -5   51.08    3.52
   5   5  -5   55.22    3.21
  -5   5   5   54.37    3.94
  -5   5   5   56.02    3.04
  -5   5   5   55.97    3.77
   5   5  -5   55.20    3.69
   5   5  -5   55.67    3.03
   5   5  -5   56.04    3.69
  -5   5   5   56.30    3.65
   5   5  -5   54.91    4.26
   5   5  -5   57.31    3.30
  -5   5   5   60.14    4.40
  -5   5   5   51.39    3.71
  -4   5   5   15.40    1.47
   4   5  -5   20.11    2.03
   4   5  -5   15.02    0.97
   4   5  -5   17.07    1.34
  -4   5   5   15.46    1.99
  -4   5   5   16.67    0.96
   4   5  -5   15.01    0.98
   4   5  -5   16.91    1.32
  -4   5   5   17.28    1.52
  -4   5   5   17.11    1.35
  -4   5   5   17.31    1.35
   4   5  -5   14.19    0.93
   4   5  -5   16.02    1.29
   4   5  -5   17.34    1.00
   4   5  -5   14.72    1.32
  -3   5   5    0.79    0.86
   3   5  -5    0.17    0.37
  -3   5   5   -0.10    0.48
   3   5  -5   -0.77    1.03
   3   5  -5    0.36    0.46
  -3   5   5    0.02    0.48
  -3   5   5    0.31    0.41
   3   5  -5    0.18    0.20
  -3   5   5    0.74    0.57
   3   5  -5    0.17    0.49
  -3   5   5    0.11    0.60
  -3   5   5    0.52    0.25
   3   5  -5    0.60    0.45
  -3   5   5    0.75    0.37
   2   5  -5   54.13    3.95
  -2   5   5   47.04    3.52
  -2   5   5   50.16    2.83
   2   5  -5   54.24    3.49
   2   5  -5   53.97    3.48
  -2   5   5   53.33    3.48
   2   5  -5   45.75    3.39
  -2   5   5   58.16    3.67
   2   5  -5   53.10    2.84
   2   5  -5   57.17    3.52
  -2   5   5   56.27    4.06
  -2   5   5   47.99    3.46
  -2   5   5   51.78    3.43
   2   5  -5   49.12    3.27
  -2   5   5   51.74    3.61
   2   5  -5   52.18    3.41
  -1   5   5    7.46    1.27
  -1   5   5    8.36    0.86
   1   5  -5    7.88    0.86
  -1   5   5    8.81    0.59
  -1   5   5    8.21    0.92
   1   5  -5    9.36    0.79
   1   5  -5    9.00    1.41
  -1   5   5    8.21    0.90
   1   5  -5    8.73    0.89
   1   5  -5    8.57    1.23
  -1   5   5    9.34    1.23
   1   5  -5    9.77    0.94
   1   5  -5    8.44    0.60
  -1   5   5    8.40    0.81
  -1   5   5    9.89    0.96
   1   5  -5    8.47    0.95
   0   5   5   -0.57    0.52
   0   5  -5    0.48    0.52
   0   5  -5   -0.19    0.44
   0   5   5    0.47    0.79
   0   5   5    0.43    0.34
   0   5  -5   -1.45    1.03
   0   5  -5   -0.25    0.21
   0   5   5    0.15    0.22
   0   5  -5    0.50    0.47
   0   5  -5    0.94    0.75
   0   5  -5    0.51    0.29
   0   5   5    0.73    0.59
   0   5  -5    0.13    0.52
   0   5   5    0.75    0.51
   0   5   5    0.45    0.42
   0   5   5    0.70    0.66
  -1   5  -5   13.86    1.30
   1   5   5   16.66    1.71
   1   5   5   11.93    1.25
   1   5   5   11.46    1.12
   1   5   5   16.19    1.67
  -1   5  -5   13.72    0.83
  -1   5  -5   12.54    1.09
  -1   5  -5   15.11    1.56
   1   5   5   12.84    1.16
  -1   5  -5   15.80    1.98
  -1   5  -5   12.73    1.10
   1   5   5   11.81    1.13
   1   5   5   12.46    0.82
   1   5   5   14.99    1.33
  -1   5  -5   15.68    1.08
  -1   5  -5   12.87    1.09
   2   5   5    1.55    0.59
  -2   5  -5    1.71    0.25
   2   5   5    2.77    0.70
  -2   5  -5    1.25    0.47
  -2   5  -5    1.23    0.74
  -2   5  -5    2.23    0.52
  -2   5  -5    0.78    1.33
   2   5   5    1.59    0.48
  -2   5  -5    1.66    0.57
  -2   5  -5    1.19    0.56
   2   5   5    1.70    1.02
   2   5   5    1.37    0.39
   2   5   5    1.78    0.27
   2   5   5    1.28    0.56
  -2   5  -5    1.42    0.48
   3   5   5   26.75    1.98
   3   5   5   27.96    1.58
  -3   5  -5   25.35    1.59
  -3   5  -5   30.70    3.12
  -3   5  -5   32.71    2.02
  -3   5  -5   25.94    2.17
   3   5   5   28.84    2.56
   3   5   5   28.07    2.00
   3   5   5   26.99    1.62
  -3   5  -5   28.00    1.83
  -3   5  -5   26.95    1.99
   3   5   5   27.81    1.73
   3   5   5   26.37    1.97
   3   5   5   28.60    1.70
  -3   5  -5   28.25    1.95
   3   5   5   25.15    2.08
  -4   5  -5   15.21    0.97
   4   5   5   15.48    1.82
   4   5   5   13.33    1.12
  -4   5  -5   13.93    1.50
   4   5   5   16.24    1.26
  -4   5  -5   14.54    2.19
   4   5   5   14.86    1.36
   4   5   5   13.92    1.22
  -4   5  -5   14.66    1.28
  -4   5  -5   13.71    1.26
   4   5   5   12.99    0.92
   4   5   5   16.64    1.20
   4   5   5   14.46    0.92
   4   5   5   13.47    1.21
  -4   5  -5   14.65    1.08
   5   5   5   42.24    2.94
  -5   5  -5   42.12    2.31
   5   5   5   36.01    2.66
   5   5   5   40.44    2.80
   5   5   5   37.74    2.84
  -5   5  -5   41.52    2.93
   5   5   5   39.69    2.43
   5   5   5   42.52    2.32
  -5   5  -5   40.49    3.95
   5   5   5   36.09    3.12
   5   5   5   39.75    2.63
  -5   5  -5   46.01    2.64
  -5   5  -5   43.07    3.13
  -5   5  -5   40.91    2.82
   6   5   5    3.77    0.57
   6   5   5    3.85    0.74
  -6   5  -5    3.75    0.47
   6   5   5    3.39    0.78
   6   5   5    3.70    0.59
  -6   5  -5    3.78    0.54
   6   5   5    3.49    0.45
  -6   5  -5    4.62    0.68
  -6   5  -5    4.17    0.68
  -6   5  -5    3.82    0.46
  -6   5  -5    5.25    0.95
   6   5   5    3.81    0.39
  -6   5  -5    3.86    0.37
   6   5   5    3.16    1.28
   6   5   5    4.36    0.77
  -6   5  -5    2.94    1.79
  -7   5  -5   11.91    0.93
  -7   5  -5   11.58    1.18
   7   5   5   13.19    1.37
   7   5   5   11.17    1.10
   7   5   5   11.34    1.30
  -7   5  -5   11.92    1.18
  -7   5  -5   12.42    1.18
  -7   5  -5   10.90    2.22
  -7   5  -5   13.85    1.41
   7   5   5   11.06    1.56
   7   5   5   14.51    1.11
  -7   5  -5   11.59    0.81
   7   5   5   12.66    0.92
  -8   5  -5    3.75    0.64
   8   5   5    3.81    0.56
  -8   5  -5    4.16    0.55
  -8   5  -5    3.79    0.53
   8   5   5    2.08    0.61
   8   5   5    3.36    0.63
  -8   5  -5    3.42    0.77
   8   5   5    3.99    0.43
  -8   5  -5    4.14    0.39
   8   5   5    2.59    0.97
   8   5   5    3.55    0.52
  -8   5  -5    3.38    1.83
   9   5   5   12.65    1.12
  -9   5  -5   13.11    0.89
   9   5   5   14.56    0.96
  -9   5  -5   12.48    1.41
  -9   5  -5   13.85    1.49
  -9   5  -5   13.39    1.10
  -9   5  -5   14.92    1.22
   9   5   5   13.27    1.41
   9   5   5   13.23    0.97
  10   5   5   15.92    1.05
  10   5   5   16.29    1.15
 -10   5  -5   13.41    0.90
 -10   5  -5   16.21    1.78
 -10   5  -5   15.92    1.40
  10   5   5   14.98    1.46
 -10   5  -5   15.23    1.18
 -11   5  -5    1.08    0.38
 -11   5  -5    1.40    0.92
  11   5   5    1.25    0.48
  11   5   5    1.08    0.33
  11   5   5    1.57    0.36
 -12   5  -5    1.16    0.63
  12   5   5    1.17    0.46
  12   5   5    0.88    0.61
  12   5   5    1.29    0.28
 -12   5  -5    1.03    0.38
  13   5   5    4.54    0.34
 -13   5  -5    5.07    0.58
 -13   5  -5    5.36    0.75
  13   5   5    4.35    0.53
  13   5   5    3.82    0.53
  14   5   5    1.76    0.27
  14   5   5    1.31    0.29
 -14   5  -5    2.84    0.32
 -14   5  -5    1.26    0.45
 -14   6   5   -0.03    0.21
  14   6  -5    0.01    0.58
 -14   6   5   -0.26    0.51
  14   6  -5    0.01    0.29
 -13   6   5    4.64    0.44
  13   6  -5    4.43    0.48
 -13   6   5    5.66    1.01
  13   6  -5    3.60    0.77
 -12   6   5    0.64    0.68
 -12   6   5    0.64    0.50
  12   6  -5    0.60    0.39
  12   6  -5    0.31    0.50
 -12   6   5    0.89    0.36
  11   6  -5    4.98    0.64
 -11   6   5    4.79    1.06
  11   6  -5    3.95    0.50
 -11   6   5    3.62    0.89
 -11   6   5    4.90    0.50
  11   6  -5    3.50    0.83
 -10   6   5    9.29    1.27
  10   6  -5    7.82    1.06
  10   6  -5    8.83    1.03
 -10   6   5   11.89    0.83
  10   6  -5   10.78    0.85
 -10   6   5   10.75    1.14
  -9   6   5   10.80    1.23
  -9   6   5   12.09    1.11
  -9   6   5   11.19    0.83
  -9   6   5   12.31    1.32
   9   6  -5    9.36    0.97
   9   6  -5   10.54    0.86
   9   6  -5   11.48    1.12
   8   6  -5   14.73    1.18
  -8   6   5   12.14    1.37
  -8   6   5   13.04    1.42
   8   6  -5   14.46    1.29
   8   6  -5   12.05    1.25
   8   6  -5   13.76    0.96
  -8   6   5   12.87    1.31
  -8   6   5   13.81    0.97
  -8   6   5   16.06    1.43
   8   6  -5   14.18    1.30
   7   6  -5   20.80    2.80
  -7   6   5   26.06    1.54
  -7   6   5   26.97    2.04
   7   6  -5   28.30    2.02
   7   6  -5   25.90    1.92
  -7   6   5   24.10    1.93
   7   6  -5   31.06    2.03
   7   6  -5   23.04    1.99
  -7   6   5   26.42    2.22
   7   6  -5   26.67    1.58
  -7   6   5   26.68    2.22
  -6   6   5    0.07    0.24
   6   6  -5    0.32    0.26
   6   6  -5    1.84    1.54
   6   6  -5    0.87    0.64
   6   6  -5   -0.13    0.39
  -6   6   5   -0.09    0.75
  -6   6   5   -0.39    0.73
   6   6  -5   -0.09    0.38
  -6   6   5   -0.15    0.44
  -6   6   5    0.30    0.60
   6   6  -5    0.38    0.64
  -6   6   5   -0.08    1.08
  -5   6   5   48.00    3.29
   5   6  -5   46.65    3.23
   5   6  -5   54.63    3.32
   5   6  -5   47.29    3.81
  -5   6   5   47.17    3.43
   5   6  -5   47.23    2.61
  -5   6   5   44.92    3.30
  -5   6   5   46.39    4.06
   5   6  -5   44.96    3.29
   5   6  -5   47.42    3.15
  -5   6   5   46.84    2.59
  -5   6   5   47.50    3.19
  -4   6   5    3.26    1.22
  -4   6   5    2.68    0.78
  -4   6   5    3.32    0.69
   4   6  -5    3.04    0.68
   4   6  -5    3.82    0.74
  -4   6   5    3.26    0.27
   4   6  -5    3.34    0.33
   4   6  -5    2.85    0.50
   4   6  -5    2.78    0.65
  -4   6   5    4.22    0.84
  -4   6   5    3.32    0.56
   4   6  -5    4.06    1.55
   3   6  -5   49.31    4.22
  -3   6   5   55.15    4.16
   3   6  -5   58.72    3.62
  -3   6   5   50.33    2.86
  -3   6   5   58.68    3.87
   3   6  -5   53.91    3.45
   3   6  -5   58.07    3.62
   3   6  -5   52.95    2.90
  -3   6   5   53.84    3.58
  -3   6   5   52.75    3.68
   3   6  -5   53.33    3.59
  -3   6   5   53.48    3.65
  -3   6   5   43.45    3.61
   2   6  -5   16.41    1.44
   2   6  -5   19.18    1.47
  -2   6   5   18.09    1.60
  -2   6   5   14.09    1.44
   2   6  -5   16.63    1.51
  -2   6   5   20.10    2.31
  -2   6   5   17.25    1.37
   2   6  -5   16.09    2.12
  -2   6   5   17.67    1.34
   2   6  -5   16.97    1.41
   2   6  -5   19.64    1.45
   2   6  -5   16.09    0.98
  -2   6   5   17.68    1.65
  -1   6   5   16.26    1.22
   1   6  -5   13.71    1.27
   1   6  -5   15.62    1.23
   1   6  -5   15.56    0.87
  -1   6   5   10.76    1.94
  -1   6   5   14.47    1.26
   1   6  -5   15.59    1.27
  -1   6   5   14.30    0.83
   1   6  -5   14.33    1.27
   1   6  -5   18.37    2.07
   1   6  -5   17.08    1.22
  -1   6   5   15.78    1.36
  -1   6   5   12.04    1.59
  -1   6   5   16.67    1.33
  -1   6   5   16.22    1.51
   0   6   5   -0.11    0.95
   0   6   5    0.08    0.30
   0   6  -5    0.42    0.14
   0   6   5    0.36    0.64
   0   6   5   -0.27    0.40
   0   6  -5   -0.69    0.63
   0   6   5    0.12    0.13
   0   6  -5    0.23    0.45
   0   6  -5   -0.16    0.51
   0   6   5    0.17    0.89
   0   6  -5    0.50    0.60
   0   6   5    0.04    0.70
   0   6   5    0.32    0.38
   0   6  -5   -0.19    0.37
   0   6  -5    0.11    1.14
   0   6  -5    1.62    1.40
  -1   6  -5    1.44    0.73
  -1   6  -5    1.20    0.40
   1   6   5    0.63    0.48
   1   6   5    1.05    0.73
  -1   6  -5    1.12    0.63
  -1   6  -5    0.89    1.18
   1   6   5    1.02    0.42
  -1   6  -5    0.86    0.16
   1   6   5    0.19    1.03
   1   6   5    0.71    0.17
  -1   6  -5    1.90    1.46
   1   6   5    1.42    0.49
  -1   6  -5    1.19    0.42
   1   6   5    1.09    0.46
  -2   6  -5   38.39    2.03
   2   6   5   33.76    3.14
   2   6   5   36.18    2.57
   2   6   5   36.90    2.68
   2   6   5   35.84    2.58
   2   6   5   36.58    2.71
  -2   6  -5   33.12    2.76
  -2   6  -5   36.40    2.62
  -2   6  -5   33.11    3.67
  -2   6  -5   38.95    2.62
  -2   6  -5   39.87    2.48
   2   6   5   37.03    2.04
  -2   6  -5   39.49    2.65
  -3   6  -5    2.63    0.81
  -3   6  -5    2.00    0.57
  -3   6  -5    1.81    0.51
   3   6   5    2.13    1.20
   3   6   5    1.82    0.59
  -3   6  -5    0.94    0.69
   3   6   5    1.76    0.53
  -3   6  -5    1.62    1.23
   3   6   5    2.69    0.63
  -3   6  -5    1.76    0.23
   3   6   5    2.25    0.74
  -4   6  -5    1.14    0.41
   4   6   5    0.19    0.60
  -4   6  -5    0.38    0.25
   4   6   5    0.68    0.47
  -4   6  -5    0.49    0.61
   4   6   5   -0.01    0.56
   4   6   5    0.57    0.40
  -4   6  -5    2.21    1.71
  -4   6  -5    1.46    0.80
  -4   6  -5    0.99    0.57
   4   6   5    0.60    0.91
   5   6   5    7.60    0.61
  -5   6  -5    7.85    0.79
   5   6   5    7.27    0.81
   5   6   5    7.64    0.83
  -5   6  -5    6.61    0.61
  -5   6  -5    4.37    1.93
  -5   6  -5    5.21    1.06
  -5   6  -5    8.36    0.93
   5   6   5    6.99    0.80
  -5   6  -5    6.22    1.01
   5   6   5    6.94    1.28
  -6   6  -5   -0.27    0.59
  -6   6  -5    0.77    0.65
   6   6   5   -0.25    0.61
   6   6   5    1.43    0.71
   6   6   5   -0.04    0.50
  -6   6  -5    0.31    0.33
  -6   6  -5    0.26    0.53
   6   6   5   -0.03    0.30
   7   6   5    1.29    0.64
  -7   6  -5    0.44    0.78
  -7   6  -5    2.34    0.77
  -7   6  -5    1.87    0.36
  -7   6  -5    1.94    0.49
   7   6   5    1.17    0.35
   7   6   5    2.42    0.76
   7   6   5    1.63    0.52
   8   6   5    6.42    0.88
  -8   6  -5    9.05    0.90
  -8   6  -5    9.83    1.15
  -8   6  -5    9.03    0.76
   8   6   5   10.09    1.06
   8   6   5    9.13    0.76
  -8   6  -5    8.95    1.09
  -9   6  -5   -0.31    0.96
  -9   6  -5    0.61    0.72
   9   6   5    0.22    0.34
  -9   6  -5    0.52    0.44
   9   6   5    0.03    0.67
   9   6   5    0.10    0.37
  10   6   5    6.67    0.54
 -10   6  -5    5.58    0.70
 -10   6  -5    4.58    1.10
  10   6   5    5.92    0.85
 -10   6  -5    6.28    0.56
  11   6   5   12.51    0.89
  11   6   5   10.21    1.06
 -11   6  -5   14.04    0.88
 -11   6  -5   13.08    1.50
  12   6   5   -0.23    0.34
 -12   6  -5   -0.44    0.56
 -12   6  -5   -0.05    0.29
  12   6   5   -0.11    0.28
  13   6   5   13.69    1.02
  13   6   5   13.60    0.81
  13   7  -5    1.10    0.39
 -13   7   5    1.10    0.44
 -12   7   5   -0.07    0.40
 -12   7   5   -0.18    0.54
  12   7  -5    0.68    0.47
 -11   7   5    2.68    0.71
 -11   7   5    1.13    0.74
  11   7  -5    1.28    0.53
  11   7  -5    1.46    0.21
  11   7  -5    0.94    0.45
 -10   7   5    1.40    0.83
 -10   7   5    2.61    0.72
  10   7  -5   -0.51    0.74
  10   7  -5    1.61    0.42
  10   7  -5    1.43    0.25
   9   7  -5   24.18    1.86
   9   7  -5   24.94    1.39
   9   7  -5   22.67    1.80
  -9   7   5   26.04    1.98
  -9   7   5   23.72    1.93
   8   7  -5    6.38    0.80
  -8   7   5    6.83    1.12
   8   7  -5    6.84    0.75
   8   7  -5    6.84    0.53
  -8   7   5    7.87    0.91
  -7   7   5    0.31    0.48
  -7   7   5    0.44    0.42
   7   7  -5   -0.28    0.50
  -7   7   5   -0.08    0.63
   7   7  -5    0.08    0.18
   7   7  -5   -0.40    0.44
   7   7  -5   -0.10    0.55
  -7   7   5   -0.76    0.58
   6   7  -5    5.51    0.70
   6   7  -5    6.10    0.73
   6   7  -5    5.40    0.81
  -6   7   5    4.82    0.82
  -6   7   5    6.11    1.01
  -6   7   5    6.05    0.86
  -6   7   5    5.14    0.70
   6   7  -5    5.04    0.66
  -5   7   5    5.06    0.81
  -5   7   5    5.52    0.96
   5   7  -5    4.54    0.79
  -5   7   5    4.68    0.68
   5   7  -5    4.05    0.73
   5   7  -5    4.35    0.66
  -5   7   5    4.59    0.96
   5   7  -5    4.69    0.82
  -4   7   5   11.63    1.06
  -4   7   5   10.16    1.08
   4   7  -5    9.51    1.05
  -4   7   5    8.85    1.19
   4   7  -5   10.39    1.02
   4   7  -5    9.65    1.04
  -4   7   5    9.62    1.05
   4   7  -5   11.06    1.03
   3   7  -5    2.78    0.73
  -3   7   5    2.82    0.88
   3   7  -5    2.61    0.71
   3   7  -5    3.77    0.56
   3   7  -5    2.90    1.31
  -3   7   5    2.43    0.50
  -3   7   5    4.03    0.87
  -3   7   5    3.23    0.74
  -3   7   5    3.41    0.72
   3   7  -5    3.96    0.66
  -2   7   5   41.55    2.95
   2   7  -5   37.09    2.77
  -2   7   5   43.26    2.80
   2   7  -5   38.56    2.80
  -2   7   5   36.34    2.78
   2   7  -5   41.66    2.64
   2   7  -5   43.85    2.85
   2   7  -5   36.14    3.35
  -2   7   5   38.61    2.86
  -2   7   5   41.15    2.93
   1   7  -5   -0.03    1.00
   1   7  -5    1.60    0.65
   1   7  -5    0.58    0.69
   1   7  -5    1.42    0.48
   1   7  -5    1.86    0.74
  -1   7   5    0.41    0.76
   1   7  -5    2.22    0.58
  -1   7   5    2.35    0.64
  -1   7   5    1.69    0.50
  -1   7   5    0.88    0.48
   0   7  -5   16.24    1.45
   0   7  -5   13.71    1.28
   0   7  -5    8.88    1.92
   0   7   5   14.66    1.54
   0   7   5   12.44    1.34
   0   7  -5   14.84    1.19
   0   7  -5   13.77    1.28
   0   7   5   13.85    1.31
   0   7   5   14.73    1.49
  -1   7  -5    5.28    0.64
  -1   7  -5    4.76    0.73
   1   7   5    3.75    1.14
   1   7   5    5.60    0.76
  -1   7  -5    4.99    0.93
   1   7   5    4.55    0.61
   1   7   5    5.25    0.88
   1   7   5    4.80    0.66
  -1   7  -5    4.96    0.85
  -2   7  -5    2.65    0.85
   2   7   5    1.49    0.62
  -2   7  -5    1.81    0.67
   2   7   5    2.06    0.63
  -2   7  -5    2.01    0.56
   2   7   5    2.19    0.57
  -2   7  -5    1.23    0.46
   2   7   5    2.16    0.64
  -2   7  -5    2.14    0.72
   3   7   5   16.75    1.35
  -3   7  -5   15.94    1.33
  -3   7  -5   16.22    1.38
  -3   7  -5   16.74    1.45
   3   7   5   16.13    1.58
  -3   7  -5   13.26    1.38
   3   7   5   14.92    1.42
   3   7   5   15.09    1.58
   4   7   5    0.45    0.72
  -4   7  -5    0.14    0.42
   4   7   5    0.45    0.50
  -4   7  -5    0.49    0.47
   4   7   5    0.67    0.40
  -4   7  -5    0.65    0.59
  -4   7  -5   -0.03    0.60
  -5   7  -5   26.79    2.16
   5   7   5   28.41    2.25
  -5   7  -5   29.49    2.28
   5   7   5   29.07    2.04
   5   7   5   26.94    2.24
  -5   7  -5   28.43    2.15
   6   7   5   -0.11    0.14
  -6   7  -5   -0.04    0.44
   6   7   5   -0.04    0.37
   6   7   5    0.03    0.66
   6   7   5   -0.28    0.50
  -6   7  -5   -0.45    0.93
  -6   7  -5    0.22    0.59
  -7   7  -5    6.20    1.03
  -7   7  -5    7.45    0.91
   7   7   5    9.12    0.98
   7   7   5    8.49    0.55
  -7   7  -5    7.41    1.22
   7   7   5    7.32    0.93
  -8   7  -5    0.80    0.54
  -8   7  -5   -1.02    0.98
   8   7   5    0.13    0.18
   8   7   5    0.26    0.58
  -8   7  -5    0.99    0.61
   8   7   5    0.27    0.68
   9   7   5    6.81    0.75
   9   7   5    6.69    0.71
   9   7   5    6.52    0.45
  -9   7  -5    5.40    0.86
  -9   7  -5    7.47    0.96
 -10   7  -5    1.06    0.44
 -10   7  -5    0.60    0.63
  10   7   5    1.20    0.44
  11   7   5    0.36    0.32
 -11   7  -5    0.57    0.55
 -10   8   5    1.59    0.58
  10   8  -5    0.57    0.28
 -10   8   5    0.14    0.46
  10   8  -5    0.88    0.42
   9   8  -5    0.06    0.69
   9   8  -5    0.50    0.50
  -9   8   5    0.41    0.71
  -9   8   5    0.59    0.59
  -8   8   5   -0.27    0.55
   8   8  -5    0.40    0.51
  -8   8   5    0.81    0.65
   8   8  -5   -0.50    0.38
  -7   8   5    3.85    0.69
   7   8  -5    3.16    0.62
  -7   8   5    3.23    0.96
   7   8  -5    2.97    0.53
  -6   8   5   42.73    2.96
  -6   8   5   43.05    3.19
  -6   8   5   42.99    3.01
   6   8  -5   40.90    2.93
   6   8  -5   44.98    2.84
   5   8  -5    1.29    0.66
   5   8  -5    1.35    0.45
  -5   8   5    1.12    0.62
   5   8  -5    2.13    0.57
  -5   8   5    1.59    0.63
  -5   8   5    2.06    0.49
  -4   8   5    0.53    0.81
  -4   8   5    0.50    0.61
   4   8  -5    0.24    0.45
   4   8  -5    0.78    0.51
   4   8  -5    0.29    0.44
  -4   8   5    0.37    0.60
  -3   8   5    0.82    0.47
   3   8  -5    1.82    0.70
  -3   8   5    0.23    0.59
  -3   8   5    0.33    0.61
   3   8  -5   -0.46    0.67
   3   8  -5    0.54    0.47
   2   8  -5   59.91    4.34
  -2   8   5   64.16    4.41
  -2   8   5   63.71    4.43
  -2   8   5   67.75    4.65
   2   8  -5   69.75    4.39
  -2   8   5   69.21    4.45
   2   8  -5   64.18    4.14
  -1   8   5   36.02    2.55
  -1   8   5   33.11    2.51
   1   8  -5   34.94    2.51
  -1   8   5   35.32    2.61
   1   8  -5   40.22    2.37
  -1   8   5   32.44    2.58
   1   8  -5   33.68    2.49
   0   8   5    7.34    0.92
   0   8   5    8.05    0.90
   0   8  -5    7.84    1.00
   0   8  -5    8.27    0.85
   0   8  -5    7.91    0.79
   0   8   5    8.79    0.88
   0   8  -5    6.63    0.98
   1   8   5    1.04    0.54
   1   8   5    1.85    0.48
  -1   8  -5    0.30    0.56
   1   8   5    0.79    0.61
  -1   8  -5    0.86    0.70
  -1   8  -5    1.46    0.48
   1   8   5    1.01    0.41
  -2   8  -5   11.11    1.19
   2   8   5   10.80    1.12
   2   8   5    8.90    0.95
  -2   8  -5    8.77    0.96
   2   8   5   11.99    1.16
  -2   8  -5   10.87    0.98
   2   8   5   11.72    1.23
   3   8   5    2.20    0.51
   3   8   5    1.99    0.62
  -3   8  -5    2.67    0.65
  -3   8  -5    2.80    0.56
  -3   8  -5    1.68    0.67
   3   8   5    2.55    0.60
   4   8   5   26.47    1.85
  -4   8  -5   19.43    1.84
   4   8   5   23.50    1.80
  -4   8  -5   26.28    1.80
   4   8   5   25.00    1.85
  -4   8  -5   24.17    1.89
   5   8   5    4.97    0.72
  -5   8  -5    5.61    0.67
   5   8   5    4.48    0.67
  -5   8  -5    2.94    0.89
  -5   8  -5    4.43    0.91
   5   8   5    5.05    0.68
   6   8   5    1.58    0.51
  -6   8  -5    1.84    0.50
   6   8   5    1.83    0.53
  -6   8  -5    2.95    0.82
  -6   8  -5    1.77    0.62
  -7   8  -5    0.26    0.52
   7   8   5   -0.29    0.40
  -7   8  -5    0.30    0.56
   7   8   5   -0.34    0.44
   8   8   5   -0.15    0.41
  -8   8  -5    0.92    0.46
   8   8   5    1.00    0.35
  -8   8  -5    0.89    0.54
  -9   8  -5    0.95    0.44
   9   8   5    0.65    0.37
  -9   8  -5    0.70    0.38
   7   9  -5    5.16    0.54
  -7   9   5    6.00    0.66
  -6   9   5   -0.03    0.52
  -6   9   5    2.82    0.74
   6   9  -5    2.37    0.47
   6   9  -5    0.97    0.36
  -5   9   5   50.12    3.61
  -5   9   5   55.29    3.45
   5   9  -5   50.39    3.44
  -4   9   5    0.87    0.35
   4   9  -5    0.91    0.55
  -3   9   5    3.70    0.49
   3   9  -5    1.77    0.49
   3   9  -5    1.42    0.46
   3   9  -5    2.42    0.46
   2   9  -5    3.73    0.57
  -2   9   5    3.79    0.56
  -1   9   5    2.98    0.45
   1   9  -5    1.62    0.49
   0   9   5    5.11    0.62
   0   9  -5    5.01    0.73
   0   9  -5    3.36    0.61
   0   9   5    6.42    0.65
  -1   9  -5    2.50    0.51
  -1   9  -5    1.20    0.47
   1   9   5    3.50    0.51
   1   9   5    1.32    0.66
  -1   9  -5    0.80    0.59
   2   9   5    0.50    0.65
   2   9   5    0.23    0.54
  -2   9  -5    0.39    0.48
  -3   9  -5    1.43    0.52
   3   9   5    2.55    0.52
   3   9   5    2.33    0.45
   4   9   5   -0.15    0.29
  -4   9  -5   -0.01    0.44
   4   9   5   -0.07    0.41
   5   9   5    0.66    0.38
  -5   9  -5    0.97    0.48
 -18   0   6    5.20    0.48
  18   0  -6    5.84    0.50
 -18   0   6    6.22    0.62
 -17   0   6    0.08    0.45
 -17   0   6    0.57    0.49
  17   0  -6    0.11    0.28
 -16   0   6    2.67    0.43
  16   0  -6    1.96    0.36
 -15   0   6   -0.21    0.36
  15   0  -6    0.66    0.42
 -14   0   6   58.05    3.31
  13   0  -6    1.49    1.27
 -13   0   6    1.61    1.51
 -13   0   6   -0.46    0.33
 -12   0   6   62.40    3.69
  12   0  -6   72.93    4.93
 -12   0   6   70.29    5.17
 -11   0   6    0.78    1.24
 -11   0   6   -0.54    0.41
 -10   0   6    1.66    1.19
  -9   0   6    1.87    1.02
  -8   0   6   40.18    3.23
  -8   0   6   46.41    3.13
  -8   0   6   42.27    2.95
   7   0  -6   -0.66    0.70
  -7   0   6   -0.22    0.62
  -7   0   6    0.19    0.81
  -7   0   6   -0.74    0.77
   7   0  -6   -2.03    1.14
   7   0  -6    0.66    0.56
  -6   0   6  113.32    7.52
  -6   0   6  124.66    7.79
   6   0  -6  128.11    7.42
   6   0  -6  128.26    7.76
   6   0  -6  113.71    7.70
   6   0  -6  118.27    7.68
  -6   0   6  112.44    7.73
  -6   0   6  124.77    7.31
   6   0  -6  121.05    7.21
  -6   0   6  128.46    7.43
  -5   0   6    0.60    0.76
  -5   0   6    0.24    0.54
   5   0  -6   -0.26    0.54
   5   0  -6   -0.12    0.49
   5   0  -6    0.76    1.04
   5   0  -6   -0.42    0.68
  -5   0   6    0.24    0.78
   5   0  -6   -0.88    0.70
  -5   0   6   -0.55    0.55
  -5   0   6    0.03    0.64
   4   0  -6   31.88    2.36
  -4   0   6   35.33    2.46
  -4   0   6   35.66    2.67
  -4   0   6   34.02    2.66
   4   0  -6   32.99    2.62
  -4   0   6   36.14    2.34
  -4   0   6   35.92    2.44
   4   0  -6   35.40    2.33
   4   0  -6   35.26    2.36
   4   0  -6   33.89    2.91
  -3   0   6    0.23    0.78
  -3   0   6   -2.43    0.89
   3   0  -6   -0.15    0.42
  -3   0   6   -0.22    0.70
  -3   0   6    0.01    0.56
   3   0  -6   -0.01    0.63
   3   0  -6   -0.01    0.47
   3   0  -6   -0.07    0.93
   3   0  -6   -0.73    1.04
  -3   0   6   -1.22    0.58
  -2   0   6   35.39    2.78
  -2   0   6   34.45    2.53
   2   0  -6   35.50    2.33
  -2   0   6   37.59    2.47
   2   0  -6   37.19    2.79
  -2   0   6   35.63    2.30
   2   0  -6   37.09    2.28
   2   0  -6   35.22    2.37
   2   0  -6   36.31    2.71
  -2   0   6   32.65    2.36
  -1   0   6    0.01    0.54
  -1   0   6    0.39    0.97
   1   0  -6    0.07    0.37
  -1   0   6   -0.18    0.38
   1   0  -6   -0.35    0.99
   1   0  -6   -0.04    0.46
   1   0  -6    0.32    1.10
   1   0  -6    0.41    0.62
  -1   0   6    0.69    0.86
  -1   0   6   -1.24    0.66
   0   0  -6    6.92    0.64
   0   0   6    6.62    0.93
   0   0   6    5.59    1.22
   0   0   6    5.54    0.65
   0   0   6    5.99    0.89
   0   0  -6    5.17    0.83
   0   0   6    5.54    0.66
   0   0  -6    5.85    0.62
   0   0  -6    5.03    0.98
   0   0  -6    4.55    1.18
  -1   0  -6   -1.13    0.96
   1   0   6    0.49    0.72
   1   0   6   -1.36    0.64
  -1   0  -6    0.12    0.66
   1   0   6    0.20    0.57
  -1   0  -6   -0.09    0.70
  -1   0  -6    0.14    0.49
   1   0   6   -0.29    0.84
  -2   0  -6   64.19    4.43
   2   0   6   63.45    4.33
   2   0   6   60.83    3.92
   2   0   6   63.53    4.04
  -2   0  -6   62.59    4.01
  -2   0  -6   69.08    3.92
   2   0   6   63.41    4.24
  -2   0  -6   67.02    4.32
   3   0   6    0.35    0.70
   3   0   6   -0.48    0.91
  -3   0  -6   -0.54    1.12
  -3   0  -6   -0.23    0.99
   3   0   6    0.44    0.61
   3   0   6    1.11    0.95
  -3   0  -6   -0.08    0.53
  -3   0  -6    0.12    0.74
   4   0   6   46.31    3.79
  -4   0  -6   52.46    3.47
  -4   0  -6   58.34    3.87
   4   0   6   57.09    3.48
  -4   0  -6   44.46    3.87
   4   0   6   58.46    3.53
   4   0   6   52.84    3.47
  -4   0  -6   52.97    3.51
   4   0   6   56.85    3.80
  -4   0  -6   45.53    4.09
   5   0   6    0.27    0.68
   5   0   6    0.49    0.45
  -5   0  -6    0.11    0.39
   5   0   6    0.92    0.59
  -5   0  -6   -0.49    0.67
  -5   0  -6   -0.14    0.78
   5   0   6    0.17    0.68
   6   0   6   14.99    1.39
  -6   0  -6   15.54    1.47
  -6   0  -6   15.96    1.69
  -6   0  -6   14.88    1.49
  -7   0  -6    0.17    0.73
  -9   0  -6   -0.07    0.30
 -10   0  -6    2.07    0.38
 -11   0  -6    0.12    0.48
 -12   0  -6   21.05    1.47
  13   0   6    0.34    0.27
 -13   0  -6   -0.02    0.50
  14   0   6    0.36    0.28
 -14   0  -6    1.39    0.37
 -14   0  -6    0.73    0.42
 -15   0  -6    0.29    0.43
  15   0   6    0.73    0.35
 -16   0  -6   14.25    0.87
 -18  -1   6   10.21    0.78
  18  -1  -6    8.07    0.62
  18   1  -6    8.80    0.71
 -18   1   6    7.72    0.89
 -17  -1   6   13.45    1.10
 -17   1   6   12.88    1.20
  17   1  -6   16.58    0.99
 -17   1   6   13.46    1.10
 -17   1   6   14.19    0.95
  17   1  -6   13.53    1.08
 -16  -1   6   21.45    1.57
 -16   1   6   25.11    1.43
 -16   1   6   24.09    1.98
  16   1  -6   23.04    1.41
 -16   1   6   24.56    1.69
 -15  -1   6    4.69    0.66
  15   1  -6    4.74    0.55
 -15   1   6    4.62    0.84
 -15   1   6    4.12    0.61
  14   1  -6    1.05    0.43
 -14   1   6    0.98    0.69
 -14   1   6    1.80    0.40
 -13  -1   6   15.28    2.15
 -13   1   6   22.14    1.43
 -13   1   6   21.70    2.66
  13   1  -6   22.67    1.37
  13   1  -6   18.98    2.22
 -12  -1   6   18.67    2.38
  12   1  -6   24.30    2.46
  12   1  -6   20.71    1.37
 -12   1   6   24.02    2.61
 -12   1   6   23.07    1.45
  11   1  -6    0.31    0.35
 -11   1   6    0.11    0.82
  11   1  -6    1.41    1.20
 -11   1   6    0.10    1.33
 -11   1   6    1.19    0.44
 -11   1   6    0.51    0.76
 -10   1   6    1.87    1.10
 -10   1   6    4.30    1.36
 -10   1   6    2.75    0.89
 -10   1   6    2.92    0.38
  10   1  -6    4.38    1.24
  10   1  -6    3.25    0.34
   9   1  -6   32.60    2.44
   9   1  -6   31.92    2.50
  -9   1   6   32.73    2.45
  -9   1   6   28.13    2.61
   9   1  -6   35.39    2.76
  -9   1   6   35.29    2.91
   8   1  -6   92.89    5.85
   8   1  -6   96.38    5.99
  -8   1   6   96.38    6.00
   8   1  -6   97.07    6.37
  -8   1   6   92.86    5.95
  -8   1   6  101.57    6.47
  -7  -1   6    0.48    0.71
  -7   1   6    2.63    1.34
   7   1  -6    0.80    0.76
  -7   1   6    1.01    0.88
   7   1  -6    1.14    0.83
   7   1  -6    1.23    1.27
   7   1  -6    0.23    0.40
  -7   1   6    0.31    0.84
  -7   1   6    1.04    0.68
  -6  -1   6    7.80    1.38
   6  -1  -6    9.36    1.69
   6   1  -6    8.03    1.45
  -6   1   6   11.49    1.28
  -6   1   6   10.11    1.45
   6   1  -6    9.64    1.41
  -6   1   6   12.88    1.35
   6   1  -6   11.11    1.13
  -6   1   6   11.99    1.18
   6   1  -6   11.70    1.25
   6   1  -6   11.55    1.19
   5  -1  -6    8.19    1.36
  -5  -1   6    8.48    1.32
  -5  -1   6    7.79    1.08
  -5  -1   6    7.52    0.91
  -5  -1   6    6.18    1.37
  -5  -1   6    5.98    0.94
   5  -1  -6    8.86    1.28
  -5   1   6    6.81    1.00
  -5   1   6    8.82    0.86
   5   1  -6    7.89    1.00
  -5   1   6    7.77    1.39
  -5   1   6    8.85    1.09
   5   1  -6    8.67    1.35
   5   1  -6   10.21    1.49
   5   1  -6    8.99    1.05
   5   1  -6   10.23    0.92
  -5   1   6    8.26    1.12
  -4  -1   6   44.55    3.35
   4  -1  -6   43.28    2.86
  -4  -1   6   42.17    2.93
   4  -1  -6   46.51    3.29
   4  -1  -6   43.32    3.44
  -4  -1   6   43.33    3.12
  -4  -1   6   43.62    2.89
  -4  -1   6   43.85    2.98
   4  -1  -6   41.83    2.87
   4  -1  -6   41.40    2.88
  -4   1   6   45.74    3.14
   4   1  -6   46.92    2.89
  -4   1   6   44.69    3.14
  -4   1   6   46.96    2.89
  -4   1   6   46.68    3.34
  -4   1   6   50.49    2.98
   4   1  -6   44.38    3.08
   4   1  -6   45.96    2.90
   4   1  -6   48.94    3.35
   4   1  -6   44.78    3.31
   3  -1  -6    0.27    0.78
  -3  -1   6    0.06    0.48
  -3  -1   6   -0.10    0.52
  -3  -1   6    0.45    0.37
  -3  -1   6    0.31    0.68
  -3  -1   6    0.25    0.64
   3  -1  -6    0.35    0.60
   3  -1  -6    0.02    0.25
   3  -1  -6    0.73    0.96
   3  -1  -6    0.15    0.32
  -3   1   6    0.44    0.92
  -3   1   6   -0.03    0.38
  -3   1   6    0.10    0.49
   3   1  -6    1.44    0.96
  -3   1   6    0.75    0.71
  -3   1   6   -0.50    0.45
   3   1  -6    0.23    0.61
   3   1  -6    0.11    0.50
   3   1  -6    0.53    0.46
   3   1  -6   -0.33    0.66
  -2  -1   6   23.06    1.82
   2  -1  -6   22.08    1.59
   2  -1  -6   22.07    1.94
  -2  -1   6   22.90    2.18
  -2  -1   6   22.14    1.51
   2  -1  -6   25.01    2.23
  -2  -1   6   21.69    1.67
   2  -1  -6   22.98    1.63
  -2  -1   6   23.12    2.10
   2   1  -6   25.52    1.67
   2   1  -6   21.93    2.19
  -2   1   6   21.54    1.68
   2   1  -6   25.00    2.19
  -2   1   6   22.38    1.96
  -2   1   6   24.22    1.68
   2   1  -6   23.48    1.77
  -2   1   6   23.28    1.96
  -2   1   6   25.06    1.85
   2   1  -6   25.16    1.73
  -1  -1   6   -0.58    0.57
  -1  -1   6    0.45    0.52
   1  -1  -6    1.19    0.99
  -1  -1   6   -0.19    0.65
   1  -1  -6    0.34    0.60
   1  -1  -6    1.58    1.14
   1  -1  -6    0.87    0.46
  -1  -1   6    1.25    0.72
  -1   1   6    0.23    0.69
  -1   1   6    0.31    0.60
   1   1  -6   -0.22    0.66
  -1   1   6    0.11    0.54
   1   1  -6    0.65    0.57
  -1   1   6    0.57    0.94
   1   1  -6    0.76    0.61
   1   1  -6    0.98    0.48
   1   1  -6    0.84    0.69
  -1   1   6    0.02    0.68
   0  -1   6    8.87    1.26
   0  -1   6    8.51    1.34
   0  -1  -6   10.23    1.49
   0  -1   6    8.19    0.89
   0  -1  -6    7.34    0.81
   0  -1   6    6.97    0.95
   0  -1  -6    8.49    0.85
   0  -1  -6    9.17    1.16
   0   1  -6    8.58    0.95
   0   1   6    8.38    1.15
   0   1  -6    9.48    0.88
   0   1  -6    6.95    1.29
   0   1   6   10.08    0.93
   0   1   6    9.67    1.01
   0   1  -6    6.95    1.22
   0   1   6    9.16    1.17
   0   1  -6    9.01    0.94
   0   1   6    9.20    0.99
   1  -1   6    1.52    0.70
  -1  -1  -6    0.87    0.65
  -1  -1  -6    1.41    1.12
  -1  -1  -6    1.00    1.05
   1  -1   6    0.76    0.95
   1  -1   6    1.38    0.59
   1  -1   6    1.25    0.71
  -1  -1  -6    0.51    0.50
  -1   1  -6    1.59    0.64
   1   1   6    1.61    0.73
   1   1   6    1.28    0.68
  -1   1  -6    2.27    1.04
  -1   1  -6    1.01    0.69
   1   1   6    1.07    0.61
  -1   1  -6    1.60    0.72
  -1   1  -6    1.63    0.55
   1   1   6    0.90    0.97
   1   1   6    2.28    0.86
  -2  -1  -6    1.15    0.87
   2  -1   6    2.10    1.00
  -2  -1  -6    0.76    0.66
  -2  -1  -6    0.48    0.52
  -2  -1  -6    0.18    1.03
   2  -1   6   -0.18    0.38
   2  -1   6    0.09    0.66
   2  -1   6    1.17    0.73
   2   1   6    0.10    0.89
  -2   1  -6   -0.13    0.65
   2   1   6   -0.13    0.56
   2   1   6   -0.21    0.67
  -2   1  -6   -0.37    1.00
   2   1   6    0.27    0.59
  -2   1  -6    1.00    0.69
  -2   1  -6    0.22    0.36
  -3  -1  -6   21.34    2.20
  -3  -1  -6   21.19    1.88
  -3  -1  -6   27.93    2.57
   3  -1   6   21.51    2.09
   3  -1   6   20.32    2.13
  -3  -1  -6   24.32    1.71
  -3   1  -6   24.65    2.37
   3   1   6   25.06    2.27
  -3   1  -6   25.74    1.92
   3   1   6   24.96    1.95
  -3   1  -6   20.41    2.03
   3   1   6   24.46    1.91
   3   1   6   24.62    1.82
  -3   1  -6   26.64    2.21
  -3   1  -6   24.52    1.80
   3   1   6   23.14    2.04
  -4  -1  -6   -0.42    1.14
   4  -1   6    0.49    1.01
  -4   1  -6    0.65    0.57
   4   1   6   -0.22    0.59
   4   1   6    1.11    1.00
   4   1   6    0.85    0.69
  -4   1  -6    0.30    0.88
  -4   1  -6    0.19    0.78
  -4   1  -6   -2.63    1.14
   4   1   6    0.10    0.69
   5  -1   6   23.32    1.78
  -5  -1  -6   22.48    2.06
  -5   1  -6   21.59    2.26
  -5   1  -6   25.21    1.91
  -5   1  -6   25.97    2.08
  -5   1  -6   22.89    2.51
   5   1   6   22.39    2.42
   5   1   6   26.81    2.01
   5   1   6   25.82    1.92
   5   1   6   27.29    2.02
  -6   1  -6    0.06    0.85
   6   1   6   -0.19    0.65
  -6   1  -6   -0.05    0.65
  -6   1  -6    0.37    0.92
   6   1   6    1.08    0.78
   6   1   6    0.84    0.68
  -7   1  -6   12.67    1.63
  -7   1  -6   11.85    1.33
  -7   1  -6   14.34    1.59
   7   1   6   13.29    1.28
   7   1   6   12.87    1.30
   7   1   6   12.02    1.44
  -8   1  -6    0.00    0.71
   8   1   6   -0.06    0.30
  -8   1  -6    0.20    0.95
  -8   1  -6   -0.18    0.93
  -8   1  -6    0.57    0.38
   9   1   6    9.03    0.75
  -9   1  -6    9.01    0.73
 -10   1  -6   36.26    2.09
  10   1   6   34.02    1.99
  11   1   6    2.30    0.41
 -11   1  -6    1.18    0.37
 -12   1  -6   18.49    1.22
  12   1   6   18.78    1.25
 -13  -1  -6   11.54    0.97
 -13   1  -6   10.03    1.15
 -13   1  -6   11.33    1.00
  13   1   6   10.66    0.90
 -13   1  -6   11.51    0.98
 -14  -1  -6    2.83    0.54
 -14   1  -6    2.41    0.47
  14   1   6    1.42    0.40
 -14   1  -6    2.79    0.70
 -14   1  -6    3.07    0.55
  14   1   6    1.60    0.48
 -15  -1  -6   -0.15    0.31
 -15   1  -6   -0.40    0.36
  15   1   6   -0.36    0.21
 -15   1  -6   -0.65    0.39
 -15   1  -6    0.11    0.23
  16  -1   6   10.19    0.65
 -16  -1  -6    8.28    0.68
  16   1   6   10.10    0.64
 -18   2   6    0.91    0.42
 -18   2   6    0.33    0.39
  18   2  -6    0.70    0.29
  17   2  -6    0.81    0.23
  17   2  -6    0.25    0.34
 -17   2   6    0.75    0.58
 -17   2   6    1.17    0.57
  17   2  -6    1.21    0.54
 -16   2   6   38.52    2.51
  16   2  -6   39.64    2.47
  16   2  -6   41.98    2.65
 -16   2   6   39.39    2.77
  16   2  -6   38.72    2.19
 -16   2   6   39.22    2.17
  15   2  -6    2.35    0.62
 -15   2   6    3.32    0.42
  15   2  -6    4.08    0.73
 -15   2   6    4.87    0.80
 -15   2   6    3.34    0.90
  15   2  -6    3.88    0.46
 -14   2   6    3.89    0.62
  14   2  -6    3.68    0.52
 -14   2   6    3.34    0.49
  14   2  -6    3.12    0.38
 -14   2   6    3.45    0.69
 -13   2   6    1.07    0.46
 -13   2   6    0.42    0.42
 -13   2   6    0.73    1.68
 -13   2   6    0.35    0.54
  13   2  -6    0.65    0.28
  13   2  -6    1.31    0.42
  12   2  -6   10.48    0.94
 -12   2   6   11.96    0.94
 -12   2   6   10.88    1.77
 -12   2   6   12.00    1.16
  12   2  -6   12.14    1.94
 -12   2   6    6.52    1.31
  12   2  -6   12.31    0.79
 -12   2   6    9.40    1.70
 -11   2   6    1.54    1.43
 -11   2   6    2.75    0.44
  11   2  -6    2.48    1.37
 -11   2   6    2.28    0.43
 -11   2   6    1.31    1.16
  11   2  -6    1.21    1.08
 -11   2   6    1.01    0.64
  11   2  -6    2.06    0.51
  11   2  -6    2.67    0.40
  11   2  -6    1.61    0.80
 -11   2   6    2.29    0.46
 -10   2   6   18.96    2.10
  10   2  -6   23.98    1.62
  10   2  -6   23.21    2.01
 -10   2   6   21.18    2.01
  10   2  -6   24.26    2.27
 -10   2   6   22.01    1.66
 -10   2   6   24.88    1.45
  10   2  -6   25.33    1.42
  10   2  -6   26.16    2.27
 -10   2   6   25.80    2.72
 -10   2   6   22.80    1.55
  -9   2   6   -0.94    0.90
  -9   2   6   -0.24    1.11
   9   2  -6    0.01    0.38
  -9   2   6    0.67    0.44
  -9   2   6    0.69    0.72
   9   2  -6    0.12    0.29
  -9   2   6    0.31    0.33
  -9   2   6    0.38    0.33
   9   2  -6    0.23    0.85
   9   2  -6    0.83    1.08
   8   2  -6    4.88    0.85
  -8   2   6    5.29    0.49
  -8   2   6    6.27    1.11
   8   2  -6    4.39    0.99
  -8   2   6    5.77    0.89
   8   2  -6    6.15    1.04
  -8   2   6    6.51    1.33
  -7   2   6   47.94    3.16
   7   2  -6   45.83    3.04
   7   2  -6   46.88    3.30
  -7   2   6   43.19    3.45
  -7   2   6   43.75    2.97
   7   2  -6   45.47    3.07
   6   2  -6   39.63    2.59
  -6   2   6   39.05    2.59
  -6   2   6   36.57    2.98
  -6   2   6   40.01    2.71
   6   2  -6   35.00    2.90
   6   2  -6   38.26    2.64
   5   2  -6   32.09    2.98
   5   2  -6   37.68    2.52
   5   2  -6   37.85    2.85
   5   2  -6   35.45    2.55
  -5   2   6   39.83    2.54
  -5   2   6   42.25    2.64
  -5   2   6   37.99    2.80
  -4  -2   6    8.28    1.29
   4   2  -6    8.03    1.27
   4   2  -6   11.80    1.26
   4   2  -6   10.61    1.05
   4   2  -6   10.05    1.40
  -4   2   6    8.72    1.38
  -4   2   6    7.63    1.11
   4   2  -6   10.93    1.02
  -4   2   6   11.50    1.05
  -4   2   6   11.64    1.15
  -4   2   6   10.81    1.31
  -3  -2   6    2.64    1.00
   3  -2  -6    2.91    0.99
  -3  -2   6    3.34    0.96
   3  -2  -6    2.80    1.11
   3   2  -6    3.41    1.02
   3   2  -6    2.44    0.80
  -3   2   6    1.98    0.72
  -3   2   6    3.47    1.01
   3   2  -6    3.06    0.57
  -3   2   6    2.62    0.57
  -3   2   6    2.20    0.91
  -3   2   6    2.56    0.73
   3   2  -6    0.76    0.45
   3   2  -6    2.91    0.66
   2  -2  -6   23.06    2.14
  -2  -2   6   23.44    2.19
  -2  -2   6   26.29    2.17
   2  -2  -6   22.06    2.07
  -2   2   6   25.32    2.05
   2   2  -6   24.51    2.00
  -2   2   6   23.65    1.84
   2   2  -6   26.34    1.78
  -2   2   6   26.19    1.93
   2   2  -6   21.61    2.13
  -2   2   6   21.22    2.10
   2   2  -6   27.64    1.74
  -2   2   6   26.46    1.76
   1  -2  -6   16.79    1.85
   1  -2  -6   16.75    1.73
  -1  -2   6   17.10    1.79
  -1  -2   6   18.37    1.81
   1   2  -6   19.48    1.38
   1   2  -6   16.65    1.73
   1   2  -6   18.93    1.47
  -1   2   6   18.81    1.69
  -1   2   6   18.74    1.69
  -1   2   6   18.69    1.39
   1   2  -6   17.16    1.65
   1   2  -6   20.36    1.82
  -1   2   6   22.34    1.67
  -1   2   6   18.46    1.64
   0  -2  -6    1.35    0.91
   0  -2   6    1.58    0.84
   0  -2   6    0.73    0.84
   0  -2  -6    1.35    1.01
   0   2   6    1.77    0.70
   0   2  -6    1.03    0.81
   0   2  -6    1.66    0.47
   0   2   6    1.27    0.58
   0   2  -6    2.39    0.92
   0   2   6    1.25    0.53
   0   2   6    1.23    0.78
   0   2  -6    2.46    0.99
   0   2  -6    1.24    0.55
   0   2   6    2.22    0.92
   0   2   6    2.63    0.68
   0   2  -6    2.22    0.64
  -1  -2  -6    4.57    1.17
  -1  -2  -6    5.55    1.02
   1  -2   6    5.66    1.09
   1  -2   6    5.12    1.12
   1   2   6    6.33    0.87
  -1   2  -6    4.27    0.98
   1   2   6    4.47    1.06
  -1   2  -6    5.12    0.89
  -1   2  -6    5.87    0.70
  -1   2  -6    6.00    0.83
   1   2   6    6.85    0.87
  -1   2  -6    5.51    1.16
   1   2   6    5.33    0.93
   1   2   6    5.41    0.76
  -1   2  -6    2.97    1.10
  -2  -2  -6  164.11   10.40
  -2   2  -6  172.88   11.47
  -2   2  -6  191.58   10.93
  -2   2  -6  187.27   10.35
   2   2   6  167.34   10.35
   2   2   6  167.07   10.35
   2   2   6  154.69   10.30
  -2   2  -6  179.69   10.02
   2   2   6  180.28   10.04
   2   2   6  166.53   10.56
  -2   2  -6  170.15   10.42
  -3   2  -6   10.10    1.43
  -3   2  -6    9.31    0.95
   3   2   6    6.21    1.29
   3   2   6   10.36    1.09
  -3   2  -6    9.29    1.10
   3   2   6    9.99    1.19
   3   2   6    8.66    0.99
   4   2   6    2.31    0.69
  -4   2  -6   -0.37    0.73
  -4   2  -6    2.17    0.81
   4   2   6    1.26    0.73
   4   2   6    1.30    0.59
  -4   2  -6    1.14    0.58
  -5   2  -6    7.63    0.97
  -5   2  -6    6.96    1.39
  -5   2  -6    7.55    1.01
   5   2   6    6.82    1.09
   5   2   6    7.48    1.06
   5   2   6    9.69    1.05
   6   2   6    0.29    0.78
  -6   2  -6   -0.06    1.05
  -6   2  -6    0.05    0.86
   6   2   6    1.21    0.70
  -6   2  -6    0.45    0.64
   6   2   6   -0.20    0.72
   7   2   6    9.63    1.17
   7   2   6    8.74    1.24
  -7   2  -6   12.18    1.67
   7   2   6    7.78    0.81
   7   2   6    8.59    0.66
  -7   2  -6    8.64    0.71
   7   2   6    9.62    1.23
  -7   2  -6    9.64    1.16
  -7   2  -6    7.79    0.71
  -8   2  -6   11.75    1.13
   8   2   6   10.19    1.36
   8   2   6   11.05    0.96
   8   2   6   13.61    1.53
  -8   2  -6   13.43    1.41
  -8   2  -6   10.45    0.97
  -8   2  -6   12.50    1.79
   8   2   6   11.31    0.79
  -8   2  -6    9.95    0.85
  -8   2  -6   12.17    1.54
   8   2   6   14.09    1.45
   9   2   6    0.05    0.29
  -9   2  -6    0.01    0.37
  -9   2  -6    0.47    0.44
   9   2   6    0.32    0.22
  -9   2  -6    0.69    0.83
   9   2   6   -1.75    0.75
  -9   2  -6    0.94    1.08
  -9   2  -6    0.13    1.21
   9   2   6   -0.09    0.67
  10   2   6   34.54    2.25
 -10   2  -6   35.10    2.03
 -10   2  -6   32.92    3.07
 -10   2  -6   26.65    2.69
  10   2   6   36.66    1.98
 -10   2  -6   35.12    2.34
 -11   2  -6   10.90    1.08
 -11   2  -6   12.32    0.93
  11   2   6   11.68    0.87
  11   2   6    9.48    0.92
 -12   2  -6    1.66    0.51
 -12   2  -6    0.93    0.42
 -12   2  -6    0.65    0.76
  12   2   6    1.62    0.30
  12   2   6    1.69    0.53
  13   2   6    1.75    0.43
 -13   2  -6    1.22    0.49
 -13   2  -6    0.59    0.76
 -13   2  -6    1.52    0.36
  13   2   6    1.37    0.50
  13   2   6    1.08    0.27
  14   2   6    8.71    0.79
 -14   2  -6    6.27    0.97
 -14   2  -6    9.24    0.84
 -14   2  -6    8.25    0.58
  14   2   6    7.96    0.76
  14   2   6    9.95    0.68
  15   2   6    2.48    0.22
  15   2   6    2.38    0.50
 -15   2  -6    2.32    0.48
 -15   2  -6    2.54    0.56
 -16   2  -6    0.40    0.37
  17   3  -6    1.24    0.29
 -17   3   6    1.56    0.53
 -17   3   6    1.05    0.30
  17   3  -6    1.08    0.38
 -17   3   6    2.07    0.55
 -16   3   6   -0.18    0.36
  16   3  -6    0.43    0.47
 -16   3   6    0.47    0.42
 -16   3   6    1.25    0.61
  16   3  -6    0.70    0.43
  15   3  -6    1.62    0.55
  15   3  -6    0.12    0.62
 -15   3   6    1.26    0.46
 -15   3   6    1.49    0.63
  15   3  -6    0.42    0.22
 -15   3   6    0.56    0.85
  14   3  -6    1.51    0.68
 -14   3   6    1.06    0.46
  14   3  -6    1.17    0.31
 -14   3   6    1.16    0.66
 -14   3   6    1.22    0.64
  14   3  -6    2.53    0.59
 -13   3   6    1.48    0.64
  13   3  -6    0.34    0.55
 -13   3   6    2.55    0.63
  13   3  -6    1.74    0.34
 -13   3   6    2.14    0.86
 -13   3   6    2.05    0.31
  13   3  -6    1.83    0.69
  12   3  -6    4.01    0.61
 -12   3   6    2.04    0.64
  12   3  -6    4.83    0.43
 -12   3   6    3.92    0.89
 -12   3   6    3.65    1.46
 -12   3   6    3.72    0.53
  12   3  -6    3.76    0.64
  12   3  -6    4.20    1.70
 -12   3   6    3.59    0.37
 -12   3   6    4.66    0.70
 -11   3   6   -2.90    1.46
 -11   3   6   -0.66    0.50
 -11   3   6   -0.10    0.51
 -11   3   6    0.48    1.11
 -11   3   6    0.07    0.70
  11   3  -6    0.19    0.43
  11   3  -6   -0.57    0.98
 -11   3   6    0.25    0.28
  11   3  -6    0.40    0.48
 -11   3   6    0.54    0.81
  11   3  -6    0.04    0.30
  11   3  -6   -0.12    0.95
  11   3  -6   -0.57    0.70
  11   3  -6    0.89    0.61
 -10   3   6    9.06    0.67
  10   3  -6    9.29    0.78
  10   3  -6    7.70    1.14
  10   3  -6    9.68    0.69
 -10   3   6    7.23    1.80
 -10   3   6    9.65    0.78
 -10   3   6    6.43    1.33
 -10   3   6    6.39    1.10
  10   3  -6    7.92    0.72
 -10   3   6    9.95    1.03
 -10   3   6    9.28    0.85
  10   3  -6    8.58    1.45
  10   3  -6    9.80    0.92
  10   3  -6    7.20    1.29
   9   3  -6   11.08    0.74
   9   3  -6    9.99    0.86
  -9   3   6   11.16    1.06
  -9   3   6   10.94    1.63
  -9   3   6   10.83    0.73
  -9   3   6   11.07    1.21
  -9   3   6   10.53    0.97
   9   3  -6    9.94    0.91
   9   3  -6   10.58    1.22
  -9   3   6    9.04    1.36
   9   3  -6    9.93    0.93
  -9   3   6   10.94    0.83
   9   3  -6   10.46    1.69
   9   3  -6   10.59    1.36
  -8   3   6   22.31    1.40
   8   3  -6   21.08    1.40
   8   3  -6   20.24    1.56
  -8   3   6   22.09    1.26
  -8   3   6   21.07    1.48
  -8   3   6   24.21    2.01
  -8   3   6   21.00    1.72
  -8   3   6   22.22    2.37
   8   3  -6   23.10    2.35
   8   3  -6   20.68    1.25
   8   3  -6   21.62    1.35
   8   3  -6   22.40    1.95
  -8   3   6   20.83    1.77
   7   3  -6    5.19    0.94
  -7   3   6    3.16    0.90
   7   3  -6    4.96    0.55
   7   3  -6    5.02    0.51
  -7   3   6    4.08    0.40
  -7   3   6    4.77    0.77
   7   3  -6    4.42    0.37
  -7   3   6    6.08    1.35
   7   3  -6    4.88    0.80
  -7   3   6    4.88    0.53
  -7   3   6    4.46    0.54
  -7   3   6    4.18    0.66
   7   3  -6    4.50    1.18
  -6   3   6    7.26    0.84
  -6   3   6    6.16    0.97
   6   3  -6    7.56    0.97
   6   3  -6    7.14    0.86
  -6   3   6    5.43    1.29
   6   3  -6    5.33    1.23
  -5   3   6    0.91    0.43
   5   3  -6    0.90    0.51
  -5   3   6    1.53    0.68
   5   3  -6    0.51    0.62
  -5   3   6   -0.79    0.94
   5   3  -6    1.95    0.95
  -5   3   6    0.71    0.50
   4   3  -6   56.03    3.35
  -4   3   6   49.41    3.52
  -4   3   6   53.78    3.37
  -4   3   6   55.03    3.90
   4   3  -6   53.53    3.83
   4   3  -6   56.35    3.40
  -4   3   6   50.51    3.41
   4   3  -6   54.55    3.82
   3   3  -6   -0.90    0.94
   3   3  -6   -0.25    0.40
  -3   3   6    0.08    0.55
   3   3  -6    0.91    0.80
  -3   3   6    0.49    0.46
  -3   3   6    0.41    0.42
  -3   3   6    0.03    0.88
   3   3  -6    0.02    0.51
   2   3  -6    0.72    0.50
   2   3  -6    1.14    0.82
   2   3  -6   -0.61    0.87
   2   3  -6    0.17    0.40
  -2   3   6   -0.31    0.49
  -2   3   6   -0.58    0.67
  -2   3   6    0.02    0.41
  -2   3   6    0.50    0.61
  -1   3   6    7.28    1.16
  -1   3   6    8.26    0.82
   1   3  -6    7.21    1.29
   1   3  -6    7.55    0.74
   1   3  -6    7.51    0.87
   1   3  -6    7.17    1.11
  -1   3   6    7.03    0.90
  -1   3   6    7.60    0.94
   0   3   6    0.39    0.44
   0   3   6    0.66    0.53
   0   3  -6    1.01    0.75
   0   3  -6    0.13    0.45
   0   3   6    1.09    0.85
   0   3  -6   -0.91    0.72
   0   3   6    0.29    0.52
   0   3  -6    1.58    0.54
  -1   3  -6    3.40    1.22
   1   3   6    4.30    0.98
  -1   3  -6    4.33    0.63
   1   3   6    4.62    0.64
   1   3   6    2.15    0.94
   1   3   6    4.91    0.81
  -1   3  -6    5.41    0.82
  -1   3  -6    3.64    0.92
  -2   3  -6    0.62    0.75
   2   3   6    2.22    0.59
   2   3   6    2.90    0.68
  -2   3  -6    2.96    0.86
  -2   3  -6    1.23    1.11
  -2   3  -6    1.89    0.50
   2   3   6    1.93    0.67
  -3   3  -6   15.61    1.40
   3   3   6   15.79    1.36
  -3   3  -6   14.51    1.87
  -3   3  -6   15.03    1.28
   3   3   6   14.64    1.57
   3   3   6   16.13    1.43
  -4   3  -6   50.65    3.33
  -4   3  -6   45.32    4.03
   4   3   6   51.94    3.37
  -4   3  -6   51.70    3.34
   4   3   6   52.48    3.32
   4   3   6   52.35    3.62
   5   3   6   14.03    1.02
   5   3   6   16.61    1.32
   5   3   6   12.42    0.83
  -5   3  -6   16.77    1.36
  -5   3  -6   13.07    0.88
   5   3   6   17.33    1.63
   5   3   6   16.04    1.51
  -5   3  -6   11.86    0.97
  -5   3  -6   13.42    1.03
  -5   3  -6   18.54    2.05
  -5   3  -6   17.65    1.51
  -5   3  -6   13.11    1.29
   6   3   6   12.98    1.22
   6   3   6   17.84    1.59
  -6   3  -6   15.30    0.92
   6   3   6   16.50    1.63
  -6   3  -6   18.60    2.17
  -6   3  -6   14.11    1.06
  -6   3  -6   14.47    1.31
   6   3   6   15.81    1.56
   6   3   6   14.56    1.09
  -6   3  -6   15.77    1.47
   6   3   6   14.54    0.90
   6   3   6   14.62    1.04
  -7   3  -6    1.08    0.89
  -7   3  -6    0.34    0.41
   7   3   6    1.24    0.78
  -7   3  -6    1.05    0.71
   7   3   6    1.07    0.38
  -7   3  -6    1.30    1.01
   7   3   6    1.78    0.90
   7   3   6    1.41    0.96
  -7   3  -6    1.01    0.55
   7   3   6    0.83    0.37
  -7   3  -6    0.39    0.50
   7   3   6    1.06    0.25
  -7   3  -6    0.88    0.28
   8   3   6   23.56    2.06
   8   3   6   20.63    2.18
   8   3   6   22.03    1.26
  -8   3  -6   23.67    2.20
   8   3   6   21.38    1.49
  -8   3  -6   22.06    1.32
  -8   3  -6   20.17    1.44
  -8   3  -6   23.30    1.96
  -8   3  -6   18.05    1.64
  -8   3  -6   22.83    1.58
   8   3   6   21.31    1.41
  -8   3  -6   20.96    2.56
   8   3   6   21.05    2.09
  -9   3  -6   23.08    1.34
  -9   3  -6   22.26    2.05
   9   3   6   20.32    2.07
  -9   3  -6   22.71    1.56
   9   3   6   20.92    2.03
  -9   3  -6   19.38    1.52
   9   3   6   21.09    1.48
  -9   3  -6   21.73    2.19
   9   3   6   24.38    1.34
   9   3   6   24.31    1.58
  -9   3  -6   19.32    2.64
  -9   3  -6   25.40    2.09
  10   3   6    4.96    0.44
  10   3   6    6.19    0.58
  10   3   6    4.88    0.65
 -10   3  -6    5.18    0.78
 -10   3  -6    6.16    0.76
  10   3   6    4.08    0.61
 -10   3  -6    4.52    0.48
 -10   3  -6    4.02    0.56
 -10   3  -6    2.50    1.58
 -11   3  -6   -0.27    0.26
 -11   3  -6    0.59    0.56
  11   3   6   -0.54    0.56
 -11   3  -6   -0.02    0.73
  11   3   6    0.24    0.28
 -11   3  -6   -0.17    0.39
  11   3   6    0.25    0.46
  12   3   6    0.15    0.46
 -12   3  -6    1.35    0.56
 -12   3  -6    0.01    0.42
  12   3   6   -0.84    0.55
 -12   3  -6   -0.06    0.55
  12   3   6    0.15    0.24
  13   3   6    4.98    0.53
 -13   3  -6    4.57    0.67
  13   3   6    3.55    0.55
 -13   3  -6    4.36    0.89
 -13   3  -6    3.89    0.57
  13   3   6    4.28    0.36
 -14   3  -6   17.27    1.26
  14   3   6   18.28    1.20
 -14   3  -6   17.38    1.46
  14   3   6   16.25    1.37
 -14   3  -6   18.98    1.22
 -15   3  -6   -0.17    0.23
  15   3   6    0.18    0.35
 -15   3  -6    0.83    0.35
 -15   3  -6   -0.21    0.40
 -16   4   6   16.60    1.13
  16   4  -6   16.93    1.08
 -15   4   6    6.51    0.86
  15   4  -6    6.93    0.63
 -15   4   6    7.64    0.72
  15   4  -6    7.42    0.74
 -15   4   6    8.22    0.70
  15   4  -6    7.72    0.70
  14   4  -6   12.87    1.05
  14   4  -6   14.13    1.33
  14   4  -6   15.47    1.13
 -14   4   6   11.76    1.02
 -14   4   6   13.15    1.24
 -14   4   6   12.61    1.38
 -13   4   6    3.92    0.69
  13   4  -6    2.80    0.58
 -13   4   6    3.76    0.58
 -13   4   6    4.97    0.99
  13   4  -6    4.08    0.61
  13   4  -6    2.16    0.56
  12   4  -6   13.53    1.42
 -12   4   6   13.46    1.24
  12   4  -6   15.18    1.18
 -12   4   6   13.60    1.44
 -12   4   6   16.34    1.21
  12   4  -6   15.38    1.18
 -11   4   6    1.68    0.42
  11   4  -6    2.66    1.72
  11   4  -6    1.49    0.49
  11   4  -6    1.62    0.20
  11   4  -6    2.28    0.51
 -11   4   6    0.35    0.59
 -11   4   6    2.89    1.39
  11   4  -6    1.28    0.43
 -11   4   6    2.56    0.64
  11   4  -6    2.25    0.53
 -11   4   6    2.12    0.53
 -10   4   6    7.41    1.68
  10   4  -6    9.56    0.87
 -10   4   6    8.47    0.94
  10   4  -6    8.70    0.95
  10   4  -6    9.30    1.92
  10   4  -6    9.01    0.58
 -10   4   6    7.93    0.79
 -10   4   6   10.30    1.01
  10   4  -6   10.36    0.88
 -10   4   6    6.02    1.39
 -10   4   6    8.08    0.98
 -10   4   6    9.85    0.90
  10   4  -6    9.90    0.97
  -9   4   6   18.10    1.20
   9   4  -6   13.26    2.11
  -9   4   6   14.54    1.50
  -9   4   6   14.72    2.27
  -9   4   6   13.56    1.54
   9   4  -6   15.34    1.56
  -9   4   6   16.54    1.59
  -9   4   6   16.44    1.09
   9   4  -6   15.66    1.38
   9   4  -6   17.25    0.93
   9   4  -6   16.50    1.18
   9   4  -6   17.06    1.13
   9   4  -6   11.94    1.54
  -9   4   6   15.21    1.47
   9   4  -6   15.74    1.31
  -9   4   6   16.51    1.48
   8   4  -6    0.51    0.37
  -8   4   6    0.97    0.64
   8   4  -6    0.53    1.27
  -8   4   6    0.75    0.37
   8   4  -6    0.33    0.19
  -8   4   6    0.87    0.57
  -8   4   6   -0.78    0.67
  -8   4   6    1.00    0.55
  -8   4   6    1.16    0.53
   8   4  -6    1.03    0.64
  -8   4   6    0.22    0.40
   8   4  -6    0.84    0.79
  -8   4   6   -1.87    0.88
   8   4  -6   -0.35    0.52
   8   4  -6    0.26    0.40
  -8   4   6    1.58    1.40
   8   4  -6    0.51    0.39
   8   4  -6    0.23    0.36
  -7   4   6   20.62    1.74
  -7   4   6   19.90    1.68
   7   4  -6   18.21    1.55
  -7   4   6   22.34    2.41
  -7   4   6   20.85    1.88
   7   4  -6   19.63    2.27
  -7   4   6   22.38    1.61
  -7   4   6   18.64    1.40
   7   4  -6   21.40    1.31
  -7   4   6   21.07    1.33
   7   4  -6   20.59    1.64
   7   4  -6   21.63    1.37
   7   4  -6   22.51    1.79
  -7   4   6   21.04    1.69
   7   4  -6   19.82    1.13
   7   4  -6   23.91    1.53
   7   4  -6   19.06    1.54
   7   4  -6   22.56    1.79
  -7   4   6   21.84    1.73
  -6   4   6   29.37    1.79
  -6   4   6   32.13    2.10
  -6   4   6   28.24    2.91
   6   4  -6   32.07    2.18
  -6   4   6   29.90    2.24
   6   4  -6   30.69    1.88
  -6   4   6   30.06    2.25
   6   4  -6   34.62    2.65
   6   4  -6   28.89    2.02
   6   4  -6   31.11    2.14
   6   4  -6   28.78    2.14
   6   4  -6   36.31    2.18
  -6   4   6   28.23    2.15
  -6   4   6   29.77    2.24
  -6   4   6   32.69    2.15
   6   4  -6   29.97    1.77
  -6   4   6   29.34    1.91
  -5   4   6    0.48    0.32
  -5   4   6    0.51    0.36
   5   4  -6   -0.48    0.99
  -5   4   6   -0.08    1.07
  -5   4   6    0.60    0.32
   5   4  -6    0.85    0.56
   5   4  -6    0.22    0.44
   5   4  -6    0.51    0.37
   5   4  -6    0.40    0.29
   5   4  -6    0.72    0.42
  -5   4   6    0.35    0.38
  -5   4   6    0.55    0.52
   5   4  -6    0.83    0.27
  -5   4   6    0.34    0.27
   5   4  -6    0.41    0.40
  -5   4   6   -0.16    0.50
   5   4  -6    0.60    0.34
  -5   4   6    0.59    0.49
   4   4  -6   16.19    1.67
  -4   4   6   16.76    1.91
  -4   4   6   17.40    1.05
   4   4  -6   15.46    1.03
  -4   4   6   17.10    1.24
   4   4  -6   15.20    1.07
  -4   4   6   17.15    1.29
   4   4  -6   18.06    1.34
  -4   4   6   16.56    1.35
   4   4  -6   20.53    1.33
  -4   4   6   17.98    1.41
   4   4  -6   17.20    1.38
  -4   4   6   13.59    1.43
  -4   4   6   15.45    1.10
   4   4  -6   16.89    1.29
  -3   4   6   12.85    1.63
   3   4  -6   13.26    1.55
  -3   4   6   14.14    1.44
   3   4  -6   12.82    1.10
  -3   4   6   14.55    1.19
   3   4  -6   12.89    1.11
  -3   4   6   13.18    1.05
   3   4  -6   10.50    1.52
   2   4  -6    6.25    1.27
  -2   4   6    6.92    0.78
  -2   4   6    8.06    1.18
   2   4  -6    8.49    0.78
  -2   4   6    8.12    0.77
  -2   4   6    8.35    1.00
   2   4  -6    8.78    0.84
   2   4  -6    5.73    1.22
   1   4  -6    8.48    1.46
  -1   4   6   10.12    0.86
   1   4  -6    9.70    0.84
  -1   4   6   10.21    1.42
  -1   4   6   10.22    0.91
   1   4  -6    9.55    1.35
   1   4  -6    9.66    0.92
  -1   4   6    9.17    1.13
   0   4   6    2.46    0.44
   0   4  -6    1.77    0.91
   0   4  -6    3.19    1.20
   0   4   6    1.78    0.52
   0   4  -6    2.87    0.50
   0   4   6    2.71    0.89
   0   4  -6    2.16    0.59
   0   4   6    2.06    1.03
  -1   4  -6    2.19    1.21
  -1   4  -6    3.49    0.66
   1   4   6    3.72    0.98
  -1   4  -6    2.36    0.74
   1   4   6    2.58    0.49
   1   4   6    2.53    0.52
   1   4   6    1.75    1.02
  -1   4  -6    2.64    0.50
  -2   4  -6    0.24    0.49
   2   4   6    0.14    0.43
   2   4   6    0.28    0.89
   2   4   6   -0.02    0.57
  -2   4  -6    1.22    0.60
   2   4   6    1.09    0.49
   2   4   6    0.88    0.23
  -2   4  -6    1.53    1.22
  -2   4  -6    0.35    0.38
   2   4   6    0.63    0.29
  -2   4  -6    0.67    0.27
  -2   4  -6    0.52    0.24
  -2   4  -6    0.87    0.45
  -2   4  -6   -0.17    0.85
   3   4   6   63.39    3.82
   3   4   6   60.29    4.13
  -3   4  -6   58.02    3.36
  -3   4  -6   64.45    3.77
   3   4   6   64.62    4.34
   3   4   6   62.00    4.09
  -3   4  -6   64.53    3.82
  -3   4  -6   66.45    4.73
  -3   4  -6   58.65    4.00
   3   4   6   61.18    3.38
   3   4   6   64.12    3.88
  -3   4  -6   56.28    4.01
   3   4   6   57.67    4.01
  -3   4  -6   60.31    3.60
   3   4   6   62.89    4.04
   3   4   6   60.60    3.61
  -3   4  -6   60.15    4.27
  -3   4  -6   63.31    3.83
  -4   4  -6   15.20    1.30
   4   4   6   14.28    1.52
  -4   4  -6   13.76    1.27
  -4   4  -6   11.99    1.16
  -4   4  -6   12.72    1.39
  -4   4  -6   14.02    2.04
  -4   4  -6   13.92    1.01
   4   4   6   12.14    0.92
   4   4   6   13.94    1.25
   4   4   6   14.45    1.33
   4   4   6   14.61    1.31
   4   4   6   14.37    1.29
   4   4   6   12.26    1.11
   4   4   6   14.25    0.95
   4   4   6   12.94    1.12
  -4   4  -6   13.43    0.93
  -5   4  -6    8.90    1.03
  -5   4  -6    9.34    1.84
  -5   4  -6    9.82    1.18
   5   4   6    6.99    0.76
  -5   4  -6    8.51    0.91
   5   4   6    7.57    1.37
   5   4   6    9.29    1.13
  -5   4  -6    8.67    0.75
   5   4   6    7.95    0.73
  -5   4  -6    8.58    0.72
  -5   4  -6    8.13    0.64
   5   4   6    9.28    1.18
  -5   4  -6    7.56    0.90
   5   4   6    7.98    0.64
   5   4   6    9.60    0.90
   5   4   6    8.40    0.71
  -5   4  -6    7.19    0.75
   6   4   6   38.63    2.24
  -6   4  -6   38.45    3.76
  -6   4  -6   42.83    3.01
   6   4   6   37.51    3.19
   6   4   6   34.32    2.60
   6   4   6   37.31    2.07
  -6   4  -6   40.26    2.24
  -6   4  -6   40.34    2.76
  -6   4  -6   39.59    2.39
  -6   4  -6   38.18    2.73
   6   4   6   34.48    2.65
   6   4   6   39.43    2.37
   6   4   6   39.76    2.76
  -6   4  -6   37.38    2.62
  -6   4  -6   38.73    2.64
   6   4   6   42.76    2.79
   6   4   6   39.69    2.75
  -7   4  -6   14.62    1.43
   7   4   6   15.17    0.86
   7   4   6   15.08    1.01
  -7   4  -6   15.24    1.70
   7   4   6   17.43    1.33
  -7   4  -6   15.09    1.16
  -7   4  -6   14.30    1.24
   7   4   6   12.21    1.31
  -7   4  -6   15.59    1.45
   7   4   6   16.63    1.12
   7   4   6   14.35    1.56
   7   4   6   12.37    1.76
  -7   4  -6   16.97    1.72
  -7   4  -6   14.97    1.11
  -7   4  -6   14.87    2.13
   7   4   6   15.95    1.55
   8   4   6   15.69    0.87
   8   4   6   13.01    1.58
  -8   4  -6   16.54    1.19
   8   4   6   13.43    1.10
  -8   4  -6   12.99    2.37
   8   4   6   15.77    1.46
  -8   4  -6   15.91    1.17
  -8   4  -6   17.06    1.78
   8   4   6   13.71    1.66
  -8   4  -6   14.79    1.28
  -8   4  -6   13.81    1.61
   8   4   6   15.39    1.14
  -9   4  -6    0.52    0.46
   9   4   6    0.00    0.28
  -9   4  -6    0.58    0.60
   9   4   6    0.95    1.15
  -9   4  -6    0.53    1.59
   9   4   6    0.11    0.62
   9   4   6    0.43    0.15
  -9   4  -6    0.56    0.44
   9   4   6   -0.48    0.46
  -9   4  -6    0.10    0.49
 -10   4  -6    4.17    1.01
  10   4   6    4.23    0.79
  10   4   6    4.98    0.60
 -10   4  -6    5.45    0.69
  10   4   6    5.17    0.55
 -10   4  -6    5.28    0.63
  11   4   6   12.64    1.02
 -11   4  -6   13.69    1.24
 -11   4  -6   13.66    1.40
 -11   4  -6   14.29    1.09
  11   4   6   14.10    1.02
  11   4   6   14.51    1.23
  12   4   6    3.74    0.53
 -12   4  -6    4.14    0.53
  12   4   6    3.70    0.58
  12   4   6    3.71    0.60
 -12   4  -6    4.38    0.93
 -12   4  -6    4.77    0.69
  13   4   6    0.37    0.40
 -13   4  -6   -0.10    0.54
 -13   4  -6    0.29    0.33
 -13   4  -6    0.01    0.77
  13   4   6    0.11    0.47
  13   4   6   -0.12    0.38
 -14   4  -6    1.37    0.53
  14   4   6    1.23    0.26
  14   4   6    1.81    0.35
  14   4   6    1.70    0.32
 -14   4  -6    1.67    0.52
 -16   5   6    2.56    0.29
 -16   5   6    1.46    0.42
  16   5  -6    2.11    0.30
  15   5  -6    0.29    0.57
 -15   5   6    0.57    0.32
  15   5  -6    0.52    0.41
 -15   5   6    0.47    0.76
  14   5  -6    0.53    0.34
  14   5  -6    0.67    0.47
  14   5  -6    0.62    0.23
 -14   5   6    0.74    0.64
 -14   5   6    0.49    0.36
 -13   5   6    7.87    0.77
 -13   5   6    5.81    1.13
  13   5  -6   10.38    0.89
  13   5  -6    8.10    0.65
  13   5  -6    7.19    0.92
 -12   5   6    7.81    0.95
  12   5  -6    7.34    0.65
  12   5  -6    6.26    0.77
 -12   5   6    6.14    0.62
  12   5  -6    6.40    0.69
 -11   5   6    0.03    0.50
 -11   5   6    0.80    0.20
  11   5  -6    0.35    0.36
 -11   5   6    1.42    0.91
  11   5  -6    0.47    0.70
 -11   5   6   -0.13    0.48
  11   5  -6    0.64    0.33
 -10   5   6    4.17    0.62
  10   5  -6    4.60    0.57
 -10   5   6    4.67    0.44
 -10   5   6    4.36    0.79
  10   5  -6    5.03    0.69
 -10   5   6    5.52    0.62
  10   5  -6    3.90    0.54
  10   5  -6    3.99    0.71
 -10   5   6    4.20    0.84
   9   5  -6    0.90    0.62
  -9   5   6    0.45    0.45
  -9   5   6   -0.50    0.59
   9   5  -6    0.42    1.52
   9   5  -6    0.23    0.33
  -9   5   6   -0.68    0.46
  -9   5   6   -0.71    1.62
  -9   5   6   -0.18    0.25
   9   5  -6   -0.42    0.47
   9   5  -6    0.41    0.66
   9   5  -6    0.14    0.29
  -9   5   6    0.02    0.56
   8   5  -6   13.47    0.89
   8   5  -6   13.61    1.11
   8   5  -6    9.91    1.63
  -8   5   6   10.18    0.98
  -8   5   6   10.74    1.88
   8   5  -6   12.91    1.28
   8   5  -6   12.19    1.14
  -8   5   6   12.26    1.28
  -8   5   6   10.19    1.02
  -8   5   6   12.72    1.34
  -8   5   6   13.30    1.29
   8   5  -6   11.56    1.16
   8   5  -6   13.55    0.95
  -8   5   6   12.40    0.80
   8   5  -6   11.89    1.21
  -8   5   6   13.77    1.21
  -8   5   6   12.92    0.96
   7   5  -6    1.05    0.57
  -7   5   6    2.16    0.54
  -7   5   6    2.09    0.66
   7   5  -6    1.31    0.52
   7   5  -6    1.21    0.38
   7   5  -6    1.56    0.47
   7   5  -6    1.09    1.01
  -7   5   6    1.16    0.31
   7   5  -6    1.13    0.68
  -7   5   6    1.54    0.39
  -7   5   6    1.29    0.45
   7   5  -6    1.05    0.37
   7   5  -6    2.12    0.67
  -7   5   6    1.62    0.69
  -7   5   6    1.69    1.16
   7   5  -6    1.25    0.29
   6   5  -6   88.25    5.28
  -6   5   6   87.71    4.73
   6   5  -6   86.23    5.65
   6   5  -6   87.07    5.15
   6   5  -6   80.36    5.41
  -6   5   6   89.37    6.29
  -6   5   6   83.77    5.95
  -6   5   6   85.76    5.67
  -6   5   6   81.82    5.69
   6   5  -6   78.92    5.69
   6   5  -6   84.16    4.72
   6   5  -6   96.50    5.72
   6   5  -6   88.11    5.05
  -6   5   6   92.17    5.61
   6   5  -6   93.13    6.24
  -5   5   6   11.44    1.23
   5   5  -6   14.28    1.19
  -5   5   6   12.51    0.91
   5   5  -6   14.90    1.94
   5   5  -6   12.75    0.85
   5   5  -6   13.60    1.04
  -5   5   6   13.36    1.21
  -5   5   6   12.54    1.36
  -5   5   6   13.42    1.10
   5   5  -6   12.40    1.16
  -5   5   6   12.99    1.94
   5   5  -6   11.76    1.23
   5   5  -6   13.63    0.87
   5   5  -6   12.78    1.17
   5   5  -6   12.99    1.07
   4   5  -6    7.39    0.53
  -4   5   6    7.25    0.63
   4   5  -6    7.50    0.70
   4   5  -6    7.79    0.80
   4   5  -6    7.29    0.67
  -4   5   6    7.71    0.81
  -4   5   6    6.22    0.74
   4   5  -6    6.87    0.59
   4   5  -6    7.26    1.50
  -4   5   6    4.85    1.46
   4   5  -6    8.32    0.91
  -4   5   6    8.07    0.91
  -4   5   6    6.94    0.89
   4   5  -6    8.15    0.77
  -4   5   6    8.14    0.86
   4   5  -6    7.65    0.78
   3   5  -6   -0.10    0.44
  -3   5   6    0.43    0.38
  -3   5   6    0.01    0.44
   3   5  -6    0.88    0.46
  -3   5   6    0.02    0.61
   3   5  -6    0.20    0.10
   3   5  -6    0.13    0.25
   3   5  -6   -0.03    0.35
  -3   5   6    1.02    0.51
   3   5  -6    0.92    0.83
  -3   5   6    0.09    0.39
   3   5  -6    1.04    0.50
   3   5  -6    0.03    0.54
  -3   5   6   -0.08    0.28
  -3   5   6   -0.21    0.82
   3   5  -6    0.45    0.24
   2   5  -6   12.10    0.81
   2   5  -6   13.13    1.04
  -2   5   6   12.90    0.83
  -2   5   6   11.92    1.16
  -2   5   6   13.02    1.84
  -2   5   6   11.82    1.21
  -2   5   6   12.74    1.47
   2   5  -6   12.91    1.08
   2   5  -6   11.73    1.06
   2   5  -6   12.86    1.13
   2   5  -6   11.53    1.67
  -2   5   6   15.27    1.18
  -2   5   6   11.44    1.27
  -2   5   6   13.49    1.32
   2   5  -6   13.41    1.05
   1   5  -6    1.18    0.33
  -1   5   6    1.31    0.89
  -1   5   6    1.31    0.88
   1   5  -6   -0.10    1.08
  -1   5   6    1.50    0.55
   1   5  -6    0.24    0.48
  -1   5   6    0.41    0.49
   1   5  -6    0.70    0.77
  -1   5   6    1.03    0.42
   1   5  -6    0.52    0.39
   1   5  -6    0.86    0.56
  -1   5   6    0.65    0.23
  -1   5   6    0.35    0.63
   1   5  -6    1.05    0.28
   1   5  -6    0.99    0.37
   0   5   6   32.22    2.23
   0   5   6   30.48    2.34
   0   5  -6   32.32    2.32
   0   5   6   31.86    2.70
   0   5   6   29.76    2.26
   0   5   6   28.84    2.89
   0   5  -6   31.25    2.08
   0   5  -6   36.55    2.27
   0   5  -6   31.59    2.85
   0   5  -6   32.39    1.79
   0   5   6   30.27    1.79
   0   5   6   34.67    2.36
   0   5  -6   30.25    2.81
   0   5  -6   29.47    2.27
   1   5   6   19.71    1.68
   1   5   6   21.47    1.56
  -1   5  -6   24.74    2.58
  -1   5  -6   21.43    1.66
   1   5   6   20.13    2.24
  -1   5  -6   23.45    1.56
  -1   5  -6   20.54    1.45
  -1   5  -6   24.88    2.27
   1   5   6   21.75    2.16
   1   5   6   19.77    1.27
  -1   5  -6   21.91    1.74
   1   5   6   23.27    1.79
   1   5   6   18.26    1.59
  -1   5  -6   22.35    1.26
   1   5   6   18.61    1.71
  -2   5  -6    0.29    0.32
   2   5   6   -0.26    0.30
   2   5   6    0.35    0.31
   2   5   6    0.65    0.56
   2   5   6    0.26    0.47
  -2   5  -6    0.28    0.44
   2   5   6    0.54    1.01
  -2   5  -6    0.21    0.99
   2   5   6   -0.20    0.56
   2   5   6    0.05    0.43
  -2   5  -6    0.20    0.53
  -2   5  -6    0.58    0.30
  -2   5  -6    0.12    0.38
   2   5   6    0.10    0.12
  -2   5  -6    1.58    1.08
  -2   5  -6   -0.15    0.37
   2   5   6    0.32    0.28
   3   5   6    1.06    0.43
   3   5   6    0.58    0.19
   3   5   6    0.43    0.44
  -3   5  -6    1.10    0.55
  -3   5  -6    0.28    0.27
   3   5   6    0.78    0.50
  -3   5  -6    0.51    0.34
  -3   5  -6    0.42    1.05
  -3   5  -6    0.09    0.61
   3   5   6    0.54    0.28
   3   5   6   -0.17    0.40
   3   5   6    1.34    0.58
   3   5   6    0.31    1.06
   3   5   6    0.69    0.49
  -3   5  -6    0.68    0.46
  -4   5  -6    2.95    0.28
   4   5   6    3.26    0.66
  -4   5  -6    2.96    0.64
  -4   5  -6    2.73    0.22
   4   5   6    3.86    0.69
  -4   5  -6    3.53    0.61
   4   5   6    2.28    0.56
   4   5   6    2.58    1.21
   4   5   6    3.79    0.63
   4   5   6    3.66    0.68
  -4   5  -6    4.19    0.81
  -4   5  -6    3.23    0.40
   4   5   6    3.71    0.34
  -4   5  -6    3.91    0.48
  -4   5  -6    2.43    1.21
   4   5   6    2.37    0.37
   4   5   6    3.38    0.57
  -5   5  -6    0.93    0.48
  -5   5  -6    1.29    0.40
  -5   5  -6    1.55    0.37
   5   5   6    1.59    0.49
   5   5   6    2.15    0.52
  -5   5  -6    1.04    0.71
   5   5   6    1.59    0.32
   5   5   6    2.20    0.68
   5   5   6    1.47    0.35
  -5   5  -6   -0.61    1.57
   5   5   6    0.70    0.56
  -5   5  -6    1.23    0.58
   5   5   6    1.70    1.18
  -5   5  -6    1.06    0.57
  -5   5  -6    1.41    0.23
   5   5   6    0.61    0.44
  -5   5  -6    0.61    0.38
   6   5   6   28.17    2.82
   6   5   6   25.69    2.05
  -6   5  -6   30.03    1.71
   6   5   6   30.69    2.14
  -6   5  -6   24.00    1.85
  -6   5  -6   25.50    2.99
  -6   5  -6   31.26    2.31
  -6   5  -6   28.26    1.70
   6   5   6   26.99    2.07
  -6   5  -6   26.21    1.93
  -6   5  -6   28.76    2.07
   6   5   6   25.47    2.00
   6   5   6   31.22    1.70
  -6   5  -6   27.44    2.09
   6   5   6   29.77    1.75
   7   5   6   17.40    1.37
   7   5   6   15.74    1.15
   7   5   6   14.85    1.03
   7   5   6   13.44    1.25
  -7   5  -6   16.49    1.31
   7   5   6   13.34    1.72
  -7   5  -6   13.60    1.00
  -7   5  -6   11.47    2.34
  -7   5  -6   13.10    1.31
  -7   5  -6   15.85    1.55
  -7   5  -6   15.05    0.99
  -8   5  -6    8.35    0.92
  -8   5  -6    7.83    0.64
   8   5   6    9.39    1.05
   8   5   6    9.77    0.74
  -8   5  -6    8.63    0.84
  -8   5  -6    9.11    0.77
   8   5   6    8.25    0.89
  -8   5  -6    9.45    1.25
   8   5   6    9.25    0.76
   9   5   6    1.83    0.36
  -9   5  -6    1.28    0.71
   9   5   6    1.62    0.73
  -9   5  -6    2.33    0.32
  -9   5  -6    1.42    0.51
   9   5   6    1.95    0.37
  -9   5  -6    2.27    0.73
  10   5   6   30.96    2.31
 -10   5  -6   27.43    2.18
  10   5   6   31.53    1.86
 -10   5  -6   29.66    1.88
  10   5   6   28.49    1.85
 -10   5  -6   32.57    2.41
  11   5   6    0.41    0.27
  11   5   6   -0.19    0.44
 -11   5  -6    0.58    0.49
  11   5   6   -0.07    0.63
 -11   5  -6    0.76    0.91
 -12   5  -6   25.54    1.93
  12   5   6   25.03    1.45
  12   5   6   24.76    1.84
 -12   5  -6   25.12    1.54
  12   5   6   21.50    1.44
  13   5   6    1.72    0.32
 -13   5  -6    2.43    0.36
  13   5   6    1.24    0.37
 -13   5  -6    1.80    0.57
 -14   5  -6    2.76    0.36
  14   6  -6   -0.90    0.55
  14   6  -6    0.22    0.20
 -14   6   6    0.05    0.17
 -14   6   6   -0.43    0.69
  13   6  -6    0.66    0.66
  13   6  -6    0.85    0.28
 -13   6   6    0.33    0.86
 -13   6   6    1.24    0.31
 -12   6   6   19.20    1.71
  12   6  -6   24.48    1.67
  12   6  -6   23.30    1.36
 -12   6   6   23.44    1.38
 -12   6   6   24.50    1.87
  11   6  -6    4.04    0.50
 -11   6   6    3.23    0.98
 -11   6   6    4.95    0.49
  11   6  -6    3.07    0.79
 -11   6   6    4.82    0.69
  10   6  -6   16.15    1.47
 -10   6   6   13.46    1.32
  10   6  -6   14.73    1.04
 -10   6   6   15.60    1.02
 -10   6   6   13.25    1.43
  10   6  -6   13.67    1.14
   9   6  -6   13.93    1.33
  -9   6   6   13.27    1.39
  -9   6   6   15.23    1.44
   9   6  -6   14.48    1.01
   9   6  -6   12.94    1.25
  -9   6   6   14.32    1.06
  -9   6   6   14.95    1.55
   9   6  -6   14.85    1.26
  -8   6   6    8.29    0.70
  -8   6   6    7.11    1.08
   8   6  -6    8.26    0.72
  -8   6   6    7.01    1.07
   8   6  -6    8.72    0.84
   8   6  -6    7.39    0.97
  -8   6   6    7.92    0.97
   8   6  -6    8.32    0.97
  -7   6   6   -0.32    0.64
  -7   6   6   -0.37    1.64
  -7   6   6   -0.64    0.77
  -7   6   6    0.22    0.45
   7   6  -6   -0.44    0.64
   7   6  -6    0.70    0.68
  -7   6   6    0.16    0.55
   7   6  -6   -1.40    1.46
  -7   6   6    0.08    0.32
   7   6  -6   -0.25    0.38
   7   6  -6    0.29    0.41
  -6   6   6    0.78    0.65
  -6   6   6    0.85    0.65
   6   6  -6   -0.03    0.64
   6   6  -6    0.32    0.28
  -6   6   6    0.10    1.53
  -6   6   6    0.81    0.30
  -6   6   6   -0.93    0.74
   6   6  -6   -0.13    0.38
  -6   6   6   -0.27    0.74
   6   6  -6    1.93    1.56
   6   6  -6    0.18    0.57
   6   6  -6    0.64    0.67
  -5   6   6    5.13    1.68
   5   6  -6    2.11    0.58
   5   6  -6    2.02    0.49
  -5   6   6    3.65    0.70
  -5   6   6    1.93    0.59
   5   6  -6    2.47    0.75
  -5   6   6    1.68    0.79
   5   6  -6    2.48    0.32
   5   6  -6    1.00    1.09
  -5   6   6    2.00    0.30
  -5   6   6    3.36    0.59
   5   6  -6    2.22    0.53
  -4   6   6   14.92    1.33
   4   6  -6   13.60    1.14
   4   6  -6   12.49    0.82
  -4   6   6   12.44    0.82
  -4   6   6   12.10    1.28
  -4   6   6   13.00    1.48
  -4   6   6   12.47    1.83
   4   6  -6   14.09    1.29
  -4   6   6   13.43    1.19
   4   6  -6   14.09    1.27
   4   6  -6   13.67    1.38
   4   6  -6   12.34    1.98
   3   6  -6   22.42    1.66
   3   6  -6   20.50    1.22
  -3   6   6   22.87    1.62
   3   6  -6   21.74    1.79
  -3   6   6   20.67    1.65
  -3   6   6   22.21    2.40
   3   6  -6   18.71    2.36
  -3   6   6   21.84    1.88
  -3   6   6   20.75    1.84
   3   6  -6   22.31    1.62
   3   6  -6   24.96    1.70
  -3   6   6   18.69    1.59
  -3   6   6   20.75    1.21
  -2   6   6   32.28    2.25
   2   6  -6   29.34    3.02
  -2   6   6   30.73    2.40
  -2   6   6   27.42    2.15
   2   6  -6   28.55    2.10
  -2   6   6   29.21    1.65
   2   6  -6   28.36    1.68
   2   6  -6   31.35    2.27
   2   6  -6   30.38    2.21
   2   6  -6   34.36    2.14
   2   6  -6   28.74    2.12
  -2   6   6   32.80    2.33
  -2   6   6   25.93    2.73
   1   6  -6   11.02    1.58
  -1   6   6   12.34    1.36
  -1   6   6   12.12    1.24
   1   6  -6   10.34    1.11
   1   6  -6   13.34    1.03
  -1   6   6   11.17    0.68
   1   6  -6   11.36    1.24
  -1   6   6   10.25    1.49
  -1   6   6    9.38    1.83
   1   6  -6   10.34    0.69
   1   6  -6   10.09    0.96
  -1   6   6   10.30    1.02
  -1   6   6   10.84    1.12
   0   6  -6   22.07    1.61
   0   6  -6   19.57    1.20
   0   6  -6   21.35    1.63
   0   6   6   19.74    1.68
   0   6   6   20.94    1.80
   0   6   6   21.11    1.21
   0   6  -6   19.43    1.83
   0   6   6   19.67    1.78
   0   6   6   22.15    2.22
   0   6   6   21.83    2.45
   0   6   6   24.48    1.88
   0   6  -6   22.11    1.59
   0   6  -6   26.27    2.55
  -1   6  -6    7.85    1.00
  -1   6  -6    8.99    1.63
  -1   6  -6    6.24    0.50
  -1   6  -6    7.08    0.78
  -1   6  -6    7.25    0.76
   1   6   6    8.42    0.81
  -1   6  -6    6.19    0.77
   1   6   6    6.01    0.83
   1   6   6    6.74    0.51
   1   6   6    6.44    1.45
  -1   6  -6    6.85    1.80
   1   6   6    6.07    0.67
   1   6   6    6.66    0.91
   2   6   6    0.60    0.52
  -2   6  -6    0.18    1.62
  -2   6  -6    0.02    0.22
  -2   6  -6    0.35    0.43
   2   6   6   -0.06    0.68
   2   6   6    0.05    0.19
   2   6   6   -0.69    1.11
  -2   6  -6    0.39    0.76
   2   6   6   -0.16    0.38
  -2   6  -6    0.58    0.63
  -2   6  -6    0.09    0.53
  -2   6  -6   -0.33    0.59
   2   6   6   -0.08    0.45
  -3   6  -6   25.10    2.31
   3   6   6   32.18    2.27
   3   6   6   29.37    2.12
   3   6   6   28.60    2.16
   3   6   6   27.11    2.12
  -3   6  -6   28.33    3.10
   3   6   6   25.03    2.55
   3   6   6   29.88    1.66
  -3   6  -6   29.43    2.17
  -3   6  -6   28.86    1.94
  -3   6  -6   33.01    2.35
  -3   6  -6   28.38    1.64
  -4   6  -6    8.14    0.72
  -4   6  -6    6.81    0.78
   4   6   6    5.17    1.25
  -4   6  -6    4.87    2.02
  -4   6  -6    7.02    1.04
  -4   6  -6    7.44    1.05
   4   6   6    7.41    0.81
  -4   6  -6    6.53    0.61
   4   6   6    6.24    0.79
   4   6   6    7.07    0.83
  -5   6  -6    4.68    0.45
   5   6   6    3.95    0.82
  -5   6  -6    3.32    0.74
   5   6   6    3.35    0.77
  -5   6  -6    5.20    2.05
   5   6   6    3.87    1.09
  -5   6  -6    3.78    0.97
  -5   6  -6    3.02    0.89
   5   6   6    4.46    0.66
  -6   6  -6   51.72    3.62
  -6   6  -6   44.27    3.19
   6   6   6   44.81    2.61
   6   6   6   45.40    3.23
  -6   6  -6   43.58    3.22
   6   6   6   49.76    3.19
   6   6   6   46.82    3.27
  -6   6  -6   46.99    2.61
  -7   6  -6    5.16    1.15
  -7   6  -6    6.24    0.77
   7   6   6    5.60    0.91
   7   6   6    6.08    0.54
   7   6   6    4.88    0.66
  -7   6  -6    5.72    0.95
  -7   6  -6    5.07    0.51
   7   6   6    4.03    0.77
   8   6   6   27.62    2.07
  -8   6  -6   25.23    2.13
   8   6   6   22.55    1.83
  -8   6  -6   25.71    2.07
  -8   6  -6   23.13    1.85
  -8   6  -6   27.66    1.57
   8   6   6   24.00    1.51
  -9   6  -6    3.35    1.02
  -9   6  -6    1.90    0.56
   9   6   6    1.55    0.71
   9   6   6    2.05    0.54
  -9   6  -6    1.67    0.40
   9   6   6    1.39    0.37
 -10   6  -6   28.51    2.25
 -10   6  -6   29.82    1.66
 -10   6  -6   26.02    1.97
  10   6   6   28.14    1.66
  11   6   6    3.31    0.54
 -11   6  -6    3.51    0.97
  11   6   6    3.55    0.36
 -11   6  -6    3.48    0.40
 -12   6  -6    4.31    0.72
  12   6   6    6.79    0.52
 -12   6  -6    5.32    0.41
 -13   7   6    0.64    0.40
  12   7  -6    2.07    0.48
 -12   7   6    0.99    0.58
 -12   7   6    1.67    0.41
  11   7  -6    0.11    0.46
 -11   7   6   -0.13    0.65
 -11   7   6    0.63    0.64
  11   7  -6   -0.26    0.20
  10   7  -6    0.00    0.21
 -10   7   6   -0.15    0.63
 -10   7   6    0.11    0.75
  10   7  -6   -0.01    0.48
  10   7  -6   -0.09    0.71
   9   7  -6    2.77    0.61
  -9   7   6    3.17    0.66
  -9   7   6    3.09    0.74
   9   7  -6    2.32    0.26
   9   7  -6    2.95    0.59
  -8   7   6    2.31    0.93
   8   7  -6    1.42    0.55
  -8   7   6    1.74    0.63
   8   7  -6    0.54    0.45
   8   7  -6    1.48    0.43
   8   7  -6    1.34    0.23
  -8   7   6    1.24    0.62
  -7   7   6    9.13    1.00
   7   7  -6    8.62    0.86
  -7   7   6    9.44    0.96
  -7   7   6    7.98    0.97
   7   7  -6    7.12    0.52
   7   7  -6    7.69    0.85
   7   7  -6    8.41    0.96
  -6   7   6   23.52    1.99
  -6   7   6   22.39    1.87
   6   7  -6   21.98    1.65
   6   7  -6   20.74    1.85
   6   7  -6   22.48    1.68
  -6   7   6   22.21    1.84
  -5   7   6    7.91    1.01
   5   7  -6    9.39    1.01
   5   7  -6    7.24    0.82
  -5   7   6    8.49    1.11
   5   7  -6    8.65    0.86
  -5   7   6    8.91    1.11
  -4   7   6   -0.23    0.48
  -4   7   6   -0.06    0.77
   4   7  -6   -0.74    0.61
   4   7  -6    0.40    0.66
   4   7  -6   -0.20    0.72
  -4   7   6    0.00    0.57
   3   7  -6   23.58    1.72
  -3   7   6   25.28    2.06
  -3   7   6   24.12    2.09
   3   7  -6   27.05    1.91
  -3   7   6   22.51    1.83
   3   7  -6   24.91    2.01
  -3   7   6   20.99    1.86
  -2   7   6   20.05    1.78
  -2   7   6   21.09    1.69
   2   7  -6   23.08    1.65
   2   7  -6   22.55    1.88
  -2   7   6   20.89    1.72
   2   7  -6   22.94    1.59
   2   7  -6   19.36    1.63
  -2   7   6   22.73    1.81
  -1   7   6    9.79    1.19
  -1   7   6   10.63    1.08
  -1   7   6   10.10    0.99
  -1   7   6    9.98    1.10
   1   7  -6   10.35    1.02
   1   7  -6    8.87    0.88
   1   7  -6    9.55    1.07
   1   7  -6    9.64    1.04
   0   7  -6    9.61    0.92
   0   7   6    9.27    1.10
   0   7  -6    9.39    1.10
   0   7  -6    9.79    1.08
   0   7  -6    8.55    0.91
   0   7   6    8.62    0.97
   0   7   6    7.88    1.06
  -1   7  -6    1.80    0.85
   1   7   6    1.56    0.63
   1   7   6    1.11    0.76
  -1   7  -6    1.14    0.62
   1   7   6    0.71    0.81
  -1   7  -6    2.52    0.53
  -1   7  -6    1.51    0.54
   1   7   6    1.08    0.55
   2   7   6   11.09    1.20
  -2   7  -6   11.22    1.27
   2   7   6   14.24    1.25
  -2   7  -6   10.88    1.10
   2   7   6   11.16    1.04
  -2   7  -6   10.37    1.00
   2   7   6   10.77    1.16
   3   7   6   12.23    1.21
  -3   7  -6    9.42    0.98
   3   7   6    8.56    0.95
  -3   7  -6    7.31    1.03
  -3   7  -6    8.59    0.92
   3   7   6    9.84    1.10
  -3   7  -6    8.31    0.98
   3   7   6    8.82    1.01
  -4   7  -6    0.82    0.60
  -4   7  -6   -0.24    0.77
   4   7   6    0.65    0.71
   4   7   6    0.45    0.41
  -4   7  -6    0.76    0.43
  -4   7  -6    0.53    0.49
   4   7   6   -0.31    0.70
   5   7   6    5.65    0.78
  -5   7  -6    4.58    0.80
   5   7   6    5.17    0.87
   5   7   6    5.30    0.38
  -5   7  -6    7.29    0.87
  -5   7  -6    5.29    1.04
   5   7   6    6.29    0.68
   6   7   6    5.11    0.58
   6   7   6    4.00    0.69
   6   7   6    4.37    0.65
  -6   7  -6    5.28    0.64
  -6   7  -6    3.72    0.72
  -6   7  -6    3.83    1.02
   6   7   6    3.74    0.32
  -7   7  -6   20.14    1.73
   7   7   6   22.70    1.72
  -7   7  -6   20.76    1.86
  -7   7  -6   19.40    1.60
   7   7   6   22.69    1.68
   7   7   6   23.34    1.23
   8   7   6    0.87    0.41
  -8   7  -6    0.54    0.52
   8   7   6    0.95    0.51
   8   7   6    0.85    0.18
  -8   7  -6    0.28    0.94
  -9   7  -6    7.23    0.92
   9   7   6    7.65    0.75
   9   7   6    6.14    0.42
  -9   7  -6    6.60    0.73
   9   7   6    5.99    0.66
 -10   7  -6    0.28    0.58
  10   7   6    0.51    0.40
 -10   7  -6    0.94    0.37
 -11   7  -6    0.85    0.43
  11   7   6    0.23    0.29
 -10   8   6    0.37    0.42
  10   8  -6    1.47    0.29
  10   8  -6    1.79    0.60
 -10   8   6    2.17    0.53
   9   8  -6    5.51    0.56
   9   8  -6    5.00    0.65
  -9   8   6    6.49    0.97
   8   8  -6    0.45    0.39
   8   8  -6    1.25    0.72
  -8   8   6   -0.29    0.54
  -8   8   6    1.31    0.63
  -7   8   6   24.97    1.89
   7   8  -6   23.42    1.74
  -7   8   6   25.98    1.90
   7   8  -6   26.78    1.75
  -7   8   6   21.60    1.72
  -6   8   6    1.05    0.60
   6   8  -6    1.17    0.52
  -6   8   6    0.77    0.60
   6   8  -6    2.10    0.46
  -6   8   6    1.31    0.64
   6   8  -6    1.14    0.46
   5   8  -6    1.47    0.50
   5   8  -6    1.05    0.52
  -5   8   6    3.14    0.70
   5   8  -6    2.59    0.51
  -5   8   6    2.32    0.67
  -5   8   6    1.44    0.62
   4   8  -6    0.73    0.51
   4   8  -6    0.74    0.46
  -4   8   6    0.69    0.68
  -4   8   6    0.80    0.59
  -4   8   6    1.44    0.61
   4   8  -6    0.72    0.52
  -3   8   6    1.55    0.63
   3   8  -6    1.98    0.70
   3   8  -6    2.09    0.58
   3   8  -6    1.52    0.49
  -3   8   6    2.26    0.55
  -3   8   6    0.98    0.85
   2   8  -6    1.04    0.47
   2   8  -6   -0.33    0.43
   2   8  -6    0.50    0.73
  -2   8   6    1.57    0.50
  -2   8   6    0.40    0.59
  -2   8   6    0.18    0.61
  -2   8   6    0.94    0.59
   1   8  -6   -0.38    0.61
  -1   8   6   -0.67    0.41
  -1   8   6   -0.21    0.68
   1   8  -6    0.38    0.71
  -1   8   6    0.86    0.56
   1   8  -6   -0.57    0.42
   1   8  -6    0.54    0.63
   0   8   6   -0.17    0.51
   0   8   6    1.21    0.60
   0   8  -6    0.22    0.61
   0   8  -6    0.77    0.52
   0   8   6    1.17    0.63
   0   8  -6   -0.92    0.71
  -1   8  -6   11.08    1.18
  -1   8  -6   10.37    0.99
   1   8   6   11.56    1.12
   1   8   6   10.86    1.16
  -1   8  -6   12.14    1.32
   1   8   6   10.36    1.02
   2   8   6   13.10    1.21
  -2   8  -6   17.73    1.23
  -2   8  -6   15.19    1.33
   2   8   6   15.50    1.41
  -2   8  -6   14.62    1.44
   2   8   6   18.21    1.41
   3   8   6   12.01    1.14
  -3   8  -6    8.07    1.16
   3   8   6    7.35    0.94
  -3   8  -6   10.57    0.94
  -3   8  -6   10.38    1.01
   3   8   6   11.43    1.12
   4   8   6   14.61    1.22
   4   8   6   11.23    1.18
  -4   8  -6   11.73    1.12
  -4   8  -6   14.20    1.30
   4   8   6   11.25    1.07
  -5   8  -6    4.76    0.87
  -5   8  -6    7.79    0.85
   5   8   6    6.74    0.68
  -5   8  -6    6.83    0.72
   5   8   6    6.17    0.86
   5   8   6    5.25    0.72
   6   8   6    4.30    0.60
  -6   8  -6    4.86    0.70
   6   8   6    4.01    0.60
  -6   8  -6    3.77    0.65
  -6   8  -6    4.45    0.70
   7   8   6   -0.06    0.41
  -7   8  -6   -0.48    0.44
   7   8   6   -0.23    0.35
  -7   8  -6    0.66    0.48
   8   8   6   -0.11    0.33
   8   8   6   -0.46    0.29
  -8   8  -6   -0.61    0.45
  -8   8  -6    0.10    0.38
   7   9  -6    0.02    0.27
  -7   9   6    0.56    0.40
   7   9  -6    0.27    0.37
   6   9  -6    0.94    0.33
   6   9  -6    1.12    0.40
  -6   9   6    1.99    0.51
   5   9  -6    0.37    0.35
  -5   9   6   -0.05    0.40
   5   9  -6    0.53    0.44
  -5   9   6   -0.03    0.48
   4   9  -6   -0.33    0.32
   4   9  -6    0.35    0.37
  -4   9   6    0.40    0.36
   4   9  -6    0.12    0.43
  -3   9   6    0.63    0.51
   3   9  -6    0.42    0.41
  -3   9   6   -0.48    0.38
   2   9  -6    9.61    0.85
  -2   9   6    8.82    0.88
   1   9  -6    0.24    0.46
  -1   9   6    0.16    0.37
  -1   9   6   -1.32    0.54
   0   9   6   -0.63    0.41
   0   9   6    0.21    0.37
   0   9  -6   -0.63    0.45
   1   9   6    6.42    0.73
  -1   9  -6    7.19    0.72
  -1   9  -6    6.40    0.67
   1   9   6    6.59    0.71
  -2   9  -6    0.15    0.40
   2   9   6    0.80    0.46
   3   9   6    0.52    0.46
  -3   9  -6    0.66    0.43
  -4   9  -6    1.66    0.49
   4   9   6    2.14    0.48
  -5   9  -6    2.24    0.46
   5   9   6    2.17    0.43
 -18   0   7    0.04    0.36
  18   0  -7   -0.15    0.22
 -18   0   7    0.15    0.22
 -17   0   7    3.03    0.51
 -17   0   7    2.81    0.53
  17   0  -7    3.30    0.37
  16   0  -7   -0.25    0.29
 -16   0   7   -0.22    0.35
  15   0  -7    1.55    0.45
 -15   0   7    1.75    0.41
 -14   0   7   -0.59    0.51
 -13   0   7    4.89    0.63
 -13   0   7    3.22    1.58
  13   0  -7    3.33    1.39
 -12   0   7   -1.47    1.22
 -12   0   7   -0.34    0.46
  12   0  -7   -0.70    1.11
  11   0  -7   13.56    1.65
 -11   0   7    8.79    1.63
 -11   0   7    9.91    0.81
  10   0  -7   -0.47    0.87
 -10   0   7    0.12    1.04
   9   0  -7  103.79    6.77
  -9   0   7  102.27    6.87
  -8   0   7   -0.32    0.81
   8   0  -7   -0.28    0.71
  -8   0   7   -0.40    0.68
  -8   0   7   -0.32    0.87
  -7   0   7   74.89    4.71
  -7   0   7   76.16    4.94
  -7   0   7   69.10    4.65
   7   0  -7   74.01    4.85
   6   0  -7    0.64    0.74
   6   0  -7   -0.16    0.51
  -6   0   7    0.45    0.64
  -6   0   7    0.09    1.19
  -6   0   7    0.28    0.83
   6   0  -7   -0.76    0.57
  -6   0   7   -0.01    0.66
   6   0  -7   -0.99    1.12
  -6   0   7   -0.43    0.80
   5   0  -7    3.37    1.22
   5   0  -7   -0.94    1.05
  -5   0   7    1.47    0.67
  -5   0   7    1.35    0.86
   5   0  -7    0.90    0.58
   5   0  -7    1.70    0.60
  -5   0   7    1.09    1.13
   5   0  -7    2.13    0.78
  -5   0   7    1.45    0.66
  -5   0   7    1.16    0.84
  -4   0   7    0.05    0.57
  -4   0   7   -0.71    0.51
   4   0  -7    0.06    0.52
   4   0  -7   -0.17    0.68
  -4   0   7   -0.79    0.72
  -4   0   7    0.12    1.06
   4   0  -7    0.14    0.56
   4   0  -7    1.45    1.08
  -4   0   7   -0.05    0.77
   4   0  -7   -0.02    1.05
   3   0  -7   24.06    1.69
  -3   0   7   23.61    1.78
   3   0  -7   26.01    2.47
  -3   0   7   21.83    2.09
  -3   0   7   22.10    1.74
  -3   0   7   24.28    1.79
   3   0  -7   26.08    1.76
   3   0  -7   23.12    1.69
   3   0  -7   22.92    2.09
  -3   0   7   24.97    2.15
  -2   0   7    0.56    0.82
   2   0  -7    0.14    0.49
  -2   0   7    0.21    0.98
  -2   0   7    0.07    0.58
   2   0  -7   -0.58    1.01
   2   0  -7    2.75    1.16
   2   0  -7    0.19    0.65
  -2   0   7   -0.03    0.41
   2   0  -7   -0.42    0.45
  -2   0   7   -0.28    0.73
   1   0  -7   12.63    1.65
  -1   0   7   15.52    1.23
  -1   0   7   12.82    1.68
   1   0  -7   14.36    1.22
  -1   0   7   13.77    1.28
  -1   0   7   13.95    1.44
  -1   0   7   14.63    1.35
   1   0  -7   14.11    1.58
   1   0  -7   12.91    1.23
   1   0  -7   14.11    1.11
   0   0   7    1.98    1.08
   0   0  -7    0.84    0.70
   0   0  -7   -0.14    1.02
   0   0  -7   -0.43    1.02
   0   0   7   -1.03    0.74
   0   0  -7   -0.11    0.50
   0   0   7   -0.41    0.59
   0   0   7    1.03    0.74
  -1   0  -7   55.44    4.20
  -1   0  -7   61.22    3.76
   1   0   7   61.80    3.81
   1   0   7   53.34    4.07
  -1   0  -7   61.72    4.23
   1   0   7   60.31    3.83
   1   0   7   57.49    4.18
  -1   0  -7   63.82    3.80
   2   0   7    0.85    0.48
  -2   0  -7   -1.05    0.66
  -2   0  -7    1.28    0.73
  -2   0  -7    0.19    0.37
   2   0   7   -0.11    0.67
   2   0   7    0.77    0.65
   2   0   7    0.26    0.73
  -2   0  -7   -0.86    0.73
  -3   0  -7   46.05    3.00
   3   0   7   43.56    3.42
   3   0   7   38.04    3.32
   3   0   7   44.22    2.99
   3   0   7   45.82    2.98
  -3   0  -7   47.44    2.96
  -3   0  -7   36.23    3.38
  -3   0  -7   46.18    3.65
  -4   0  -7    0.65    0.59
   4   0   7    0.78    0.96
   4   0   7   -1.11    0.59
  -4   0  -7   -1.15    0.75
   4   0   7    0.62    0.71
  -4   0  -7    0.28    0.78
   4   0   7    0.47    0.65
  -5   0  -7    2.01    0.71
   5   0   7    2.31    0.56
  -5   0  -7    1.52    0.87
  -5   0  -7    2.10    0.54
  -6   0  -7   -0.92    0.71
   6   0   7   -0.76    0.54
  -9   0  -7   29.48    1.82
 -11   0  -7   38.31    2.30
 -12   0  -7    0.46    0.50
  12   0   7   -0.19    0.25
  13   0   7    0.19    0.27
 -13   0  -7   -0.72    0.47
  14   0   7   -0.09    0.25
 -14   0  -7    1.01    0.43
 -14   0  -7   -0.03    0.32
  15   0   7   14.10    0.95
  16   0   7    0.02    0.17
 -16   0  -7    0.22    0.16
 -18  -1   7    1.66    0.40
 -18   1   7    1.02    0.41
  18   1  -7    0.76    0.18
 -18   1   7    0.84    0.49
 -17  -1   7    1.22    0.41
 -17  -1   7    1.09    0.50
 -17   1   7    0.66    0.46
  17   1  -7    1.10    0.35
 -17   1   7    0.27    0.32
  17   1  -7    1.44    0.37
 -17   1   7   -0.08    0.69
 -16  -1   7    1.51    0.55
  16   1  -7    2.15    0.34
 -16   1   7    2.32    0.37
 -16   1   7    2.43    0.60
  16   1  -7    1.84    0.44
 -16   1   7    2.43    0.56
 -15  -1   7    7.26    0.76
 -15   1   7    6.34    1.00
 -15   1   7    9.52    1.00
  15   1  -7    7.17    0.66
 -15   1   7    7.75    0.71
 -14   1   7    3.31    0.55
 -14   1   7    2.67    0.73
  14   1  -7    1.44    0.35
 -13   1   7    2.49    0.43
 -13   1   7    1.05    1.14
  13   1  -7    1.76    1.11
  13   1  -7    2.88    0.38
 -12  -1   7    6.04    1.57
 -12   1   7    6.21    1.74
 -12   1   7    9.04    0.76
  12   1  -7    9.24    1.68
  12   1  -7    8.74    0.80
 -11  -1   7    3.17    1.24
  11   1  -7    4.87    1.38
  11   1  -7    3.23    0.39
 -11   1   7    5.74    1.22
 -11   1   7    4.89    0.56
 -10  -1   7   11.11    1.58
 -10   1   7   13.75    1.71
  10   1  -7   15.77    1.77
 -10   1   7   13.10    0.98
 -10   1   7    9.54    1.34
  10   1  -7   12.18    0.90
 -10   1   7   16.05    1.89
  -9  -1   7    3.12    0.99
   9   1  -7    2.30    0.79
  -9   1   7    2.65    0.84
  -9   1   7    2.28    0.34
  -9   1   7    2.56    0.92
  -9   1   7   -0.54    0.93
   9   1  -7    3.49    0.85
  -8  -1   7   39.18    3.15
  -8   1   7   43.63    3.02
  -8   1   7   47.14    3.38
   8   1  -7   42.41    3.05
   8   1  -7   43.69    3.00
   8   1  -7   47.85    3.30
  -8   1   7   41.21    3.15
  -7  -1   7   21.02    1.89
   7  -1  -7   21.21    1.76
  -7   1   7   23.48    2.13
  -7   1   7   21.86    1.71
   7   1  -7   23.11    1.80
   7   1  -7   23.70    1.95
   7   1  -7   25.56    2.06
  -7   1   7   22.59    2.04
   6  -1  -7   21.71    1.72
  -6  -1   7   20.42    2.22
  -6  -1   7   21.38    1.83
  -6   1   7   26.25    2.06
   6   1  -7   25.10    1.82
   6   1  -7   24.56    1.94
  -6   1   7   26.94    2.12
   6   1  -7   25.68    2.02
   6   1  -7   19.36    2.31
  -6   1   7   25.23    1.84
  -6   1   7   22.59    2.41
   5  -1  -7   11.27    1.77
  -5  -1   7    9.10    1.47
  -5  -1   7   11.73    1.17
   5   1  -7   11.26    1.23
   5   1  -7    8.64    1.47
  -5   1   7   13.48    1.33
   5   1  -7   10.54    1.62
  -5   1   7   10.92    1.12
  -5   1   7   10.15    1.61
   5   1  -7   13.49    1.36
  -5   1   7   13.69    1.26
   5   1  -7   12.90    1.18
  -4  -1   7   14.70    1.84
   4  -1  -7   15.98    1.76
  -4  -1   7   13.23    1.43
   4  -1  -7   14.28    1.93
  -4  -1   7   13.96    1.71
  -4  -1   7   13.72    1.18
   4   1  -7   14.82    1.77
   4   1  -7   13.98    1.76
  -4   1   7   17.45    1.37
  -4   1   7   14.75    1.80
   4   1  -7   15.09    1.48
  -4   1   7   17.72    1.60
   4   1  -7   17.98    1.36
  -4   1   7   13.94    1.61
   4   1  -7   17.66    1.59
  -4   1   7   18.31    1.57
  -3  -1   7    5.57    0.92
  -3  -1   7    6.65    1.29
   3  -1  -7    5.78    1.27
  -3  -1   7    4.33    1.13
  -3  -1   7    5.64    0.79
   3  -1  -7    4.90    1.08
   3   1  -7    3.80    1.15
  -3   1   7    4.78    0.87
  -3   1   7    4.61    0.90
   3   1  -7    4.96    0.84
  -3   1   7    5.01    1.18
   3   1  -7    6.14    0.82
  -3   1   7    5.73    0.67
   3   1  -7    4.76    0.71
   3   1  -7    6.30    1.25
  -3   1   7    5.71    0.88
  -2  -1   7  178.15   11.56
   2  -1  -7  181.17   11.49
   2  -1  -7  201.07   12.02
   2  -1  -7  197.60   11.91
  -2  -1   7  202.61   11.89
   2  -1  -7  196.68   11.91
  -2  -1   7  198.28   11.97
  -2  -1   7  188.73   11.92
   2   1  -7  193.66   11.92
   2   1  -7  214.91   12.50
  -2   1   7  219.65   12.47
   2   1  -7  220.10   11.53
  -2   1   7  196.11   11.94
   2   1  -7  215.87   11.92
  -2   1   7  195.84   11.85
   2   1  -7  198.44   11.91
  -2   1   7  204.94   11.59
  -2   1   7  208.02   11.93
   1  -1  -7  235.55   13.97
   1  -1  -7  201.91   13.46
  -1  -1   7  252.02   13.91
  -1  -1   7  220.10   13.54
   1  -1  -7  227.66   13.88
  -1  -1   7  231.59   13.93
   1  -1  -7  233.19   13.98
  -1  -1   7  227.23   13.99
   1   1  -7  246.92   13.50
   1   1  -7  244.60   14.65
  -1   1   7  225.12   13.81
  -1   1   7  249.41   14.00
   1   1  -7  251.58   13.98
  -1   1   7  245.75   13.55
  -1   1   7  226.82   13.90
   1   1  -7  232.74   13.87
  -1   1   7  259.61   14.60
   1   1  -7  238.87   13.94
   0  -1   7    0.10    0.92
   0  -1  -7    0.55    0.50
   0  -1  -7    3.03    1.28
   0  -1   7    1.14    0.76
   0  -1  -7    0.43    0.74
   0  -1   7    0.19    0.49
   0  -1   7    0.20    0.59
   0  -1  -7    0.37    0.47
   0   1  -7   -0.19    0.56
   0   1   7    1.08    0.53
   0   1  -7    0.64    0.52
   0   1  -7   -0.56    0.68
   0   1   7    0.06    0.61
   0   1   7   -0.17    0.58
   0   1  -7    0.11    0.47
   0   1   7    1.11    0.71
   0   1   7    0.59    0.73
   0   1  -7    1.28    0.97
  -1  -1  -7   56.09    3.70
  -1  -1  -7   56.72    4.28
   1  -1   7   53.55    4.07
  -1  -1  -7   60.56    4.19
  -1  -1  -7   56.27    3.74
   1  -1   7   56.89    4.14
  -1   1  -7   62.36    3.76
  -1   1  -7   70.39    3.96
   1   1   7   60.35    3.79
   1   1   7   63.34    3.78
   1   1   7   58.67    4.05
   1   1   7   54.07    4.11
  -1   1  -7   60.60    3.72
  -1   1  -7   58.18    4.12
  -1   1  -7   52.61    4.10
   2  -1   7   21.93    2.24
  -2  -1  -7   24.36    2.41
  -2   1  -7   21.21    2.20
   2   1   7   22.88    1.82
  -2   1  -7   23.15    1.76
  -2   1  -7   22.02    2.26
   2   1   7   19.98    2.10
   2   1   7   23.37    2.32
  -2   1  -7   26.32    1.90
   2   1   7   25.14    1.91
  -3  -1  -7   10.16    1.72
   3  -1   7    8.67    1.58
  -3   1  -7   10.85    1.08
  -3   1  -7    8.55    1.69
   3   1   7    9.11    1.50
   3   1   7   10.46    1.21
   3   1   7   12.54    1.25
  -3   1  -7   10.55    1.44
  -3   1  -7   10.37    1.21
   3   1   7   13.06    1.19
   4   1   7    0.24    0.71
   4   1   7    0.78    0.67
   4   1   7   -0.12    0.68
  -4   1  -7   -2.24    1.23
  -4   1  -7    0.44    0.66
  -4   1  -7   -0.44    0.53
  -4   1  -7   -0.11    0.79
   4   1   7    1.52    1.12
  -5  -1  -7   -0.10    0.64
   5  -1   7   -0.47    0.49
  -5   1  -7    0.47    0.92
   5   1   7   -0.28    0.64
  -5   1  -7    0.18    0.84
   5   1   7    0.83    0.74
   5   1   7   -0.14    0.67
  -5   1  -7    0.12    0.42
  -6   1  -7   50.20    3.95
   6   1   7   52.23    3.48
  -6   1  -7   49.13    3.38
   6   1   7   51.52    3.51
   6   1   7   49.97    3.38
  -6   1  -7   51.52    3.55
  -7   1  -7    1.35    0.39
   7   1   7    0.78    0.24
   7   1   7    0.64    0.71
  -7   1  -7    2.65    1.06
  -7   1  -7    1.32    1.01
  -8   1  -7    1.27    0.81
  -8   1  -7    0.09    1.00
  -8   1  -7    0.28    0.39
   8   1   7    0.33    0.23
  -9   1  -7    1.39    0.44
   9   1   7    0.61    0.35
  10   1   7    2.07    0.40
 -10   1  -7    1.86    0.49
 -11   1  -7    8.01    0.74
  11   1   7    8.46    0.78
  12   1   7   -0.11    0.26
 -12   1  -7    0.61    0.47
 -12   1  -7   -0.23    0.46
 -13  -1  -7    0.49    0.36
  13   1   7    0.09    0.27
 -13   1  -7   -0.06    0.31
 -13   1  -7    0.30    0.69
 -13   1  -7    0.42    0.46
 -14  -1  -7    4.95    0.62
  14   1   7    4.32    0.62
 -14   1  -7    4.77    0.81
 -14   1  -7    6.35    0.65
  14   1   7    5.25    0.51
 -14   1  -7    6.48    0.54
 -15  -1  -7    6.93    0.66
 -15   1  -7    7.93    0.53
 -15   1  -7    8.65    0.73
 -15   1  -7    6.56    0.76
  15   1   7    9.52    0.64
 -16  -1  -7    1.47    0.35
  16   1   7    1.99    0.21
 -18   2   7    2.80    0.45
  17   2  -7    0.80    0.21
  17   2  -7    0.92    0.33
 -17   2   7    0.96    0.71
 -17   2   7    1.12    0.57
  17   2  -7    2.15    0.38
 -16   2   7    0.27    0.19
  16   2  -7    0.53    0.22
  16   2  -7    0.62    0.41
 -16   2   7   -0.01    0.46
  16   2  -7    0.73    0.37
 -16   2   7    1.15    0.82
  15   2  -7    7.99    0.91
 -15   2   7    9.07    1.00
 -15   2   7   10.70    1.02
  15   2  -7    8.53    0.88
 -15   2   7    8.95    0.75
  15   2  -7    9.92    0.80
 -14   2   7    2.29    0.36
  14   2  -7    3.02    0.50
  14   2  -7    2.92    0.45
 -14   2   7    3.34    0.86
 -14   2   7    3.21    0.75
  14   2  -7    3.72    0.56
  13   2  -7   13.36    1.12
 -13   2   7   16.34    1.40
  13   2  -7   16.09    1.05
 -13   2   7   14.71    1.09
 -13   2   7   13.87    1.35
  12   2  -7    1.25    0.38
 -12   2   7    2.13    0.63
 -12   2   7   -0.40    1.28
 -12   2   7   -0.38    1.47
 -12   2   7    1.22    0.44
  12   2  -7    1.59    1.46
 -12   2   7    0.90    0.50
  12   2  -7    1.16    0.54
  11   2  -7    9.56    1.30
  11   2  -7   11.42    1.88
  11   2  -7   14.61    0.96
 -11   2   7   10.84    1.42
 -11   2   7   14.56    1.23
 -11   2   7   14.53    1.24
  11   2  -7   12.43    1.14
 -11   2   7   15.71    1.02
 -11   2   7   13.04    2.06
 -11   2   7   12.96    1.81
  10   2  -7   -0.44    0.93
  10   2  -7    0.38    0.45
 -10   2   7    0.34    0.51
 -10   2   7    1.47    0.81
 -10   2   7    0.79    0.56
  10   2  -7    0.49    1.15
  10   2  -7    0.52    0.33
 -10   2   7   -0.66    1.22
 -10   2   7   -0.18    0.35
 -10   2   7    0.54    1.04
 -10   2   7   -0.14    0.45
  10   2  -7    0.25    0.68
   9   2  -7    0.39    0.91
   9   2  -7    0.05    0.41
  -9   2   7    0.10    0.34
   9   2  -7   -0.19    0.30
  -9   2   7    0.45    0.43
  -9   2   7   -0.23    0.33
  -9   2   7   -1.44    1.07
  -9   2   7   -0.56    0.62
  -9   2   7   -0.66    0.71
   9   2  -7    0.57    1.07
  -9   2   7    0.09    0.34
   9   2  -7    0.24    0.64
  -8   2   7    6.12    0.97
  -8   2   7    7.55    1.20
  -8   2   7    7.26    0.56
   8   2  -7    6.17    0.95
   8   2  -7    4.70    1.03
  -8   2   7    5.55    1.33
   8   2  -7    5.94    1.27
   8   2  -7    6.30    0.52
  -8   2   7    6.17    0.70
  -7   2   7   33.43    2.38
  -7   2   7   34.19    2.52
   7   2  -7   31.99    2.34
   7   2  -7   32.27    2.44
  -7   2   7   32.45    2.79
   7   2  -7   31.24    2.68
  -6   2   7    0.49    0.78
   6   2  -7   -0.52    0.83
   6   2  -7    0.58    0.55
   6   2  -7    0.31    0.72
  -6   2   7    0.54    0.62
  -6   2   7    0.11    0.93
  -5   2   7  147.41    8.40
  -5   2   7  136.66    9.12
   5   2  -7  141.34    8.34
  -5   2   7  142.62    8.58
   5   2  -7  134.07    9.09
   5   2  -7  152.43    8.58
   4   2  -7   11.57    1.29
  -4   2   7   11.56    1.40
  -4   2   7   11.16    1.13
   4   2  -7   11.71    1.11
  -4   2   7   10.32    1.19
   4   2  -7   10.38    1.13
   3   2  -7   44.92    3.64
  -3   2   7   44.11    3.67
  -3   2   7   52.76    3.30
   3   2  -7   54.10    3.30
   3   2  -7   54.23    3.26
   3   2  -7   54.00    3.58
  -3   2   7   52.14    3.54
  -3   2   7   50.19    3.32
  -2   2   7    0.37    0.52
  -2   2   7    0.14    0.51
  -2   2   7   -0.10    0.68
  -2   2   7   -0.06    0.88
   2   2  -7    0.20    0.46
   2   2  -7    1.40    0.99
   2   2  -7   -0.88    0.58
   2   2  -7    0.44    0.71
   1   2  -7    1.35    0.65
  -1   2   7    1.76    0.71
  -1   2   7    1.13    0.76
  -1   2   7    2.08    0.57
   1   2  -7    1.17    0.50
   1   2  -7    1.50    0.99
  -1   2   7    2.33    1.01
   1   2  -7    0.84    0.75
   0   2   7    3.51    0.80
   0   2   7    3.86    0.85
   0   2   7    1.75    0.99
   0   2  -7    2.66    0.58
   0   2  -7    3.14    0.73
   0   2   7    3.01    0.71
   0   2  -7    3.21    0.67
   0   2   7    2.93    0.67
   0   2  -7    2.70    1.05
  -1   2  -7   33.85    2.26
   1   2   7   32.96    2.49
  -1   2  -7   32.00    2.41
  -1   2  -7   33.46    2.78
   1   2   7   31.55    2.29
   1   2   7   31.18    2.35
   1   2   7   27.87    2.61
   1   2   7   33.20    2.25
  -1   2  -7   32.47    2.19
  -1   2  -7   27.77    2.69
   2   2   7    0.43    0.69
   2   2   7   -0.93    0.76
  -2   2  -7    0.50    0.68
   2   2   7   -0.03    0.58
  -2   2  -7    0.33    0.68
  -2   2  -7   -0.03    0.49
  -3   2  -7   15.72    1.40
  -3   2  -7   19.35    1.96
   3   2   7   16.76    1.50
   3   2   7   16.22    1.61
   3   2   7   16.55    1.60
  -3   2  -7   16.36    1.62
  -4   2  -7   -0.54    1.04
  -4   2  -7    1.71    0.50
   4   2   7    2.66    0.81
   4   2   7    3.09    0.69
  -4   2  -7    1.44    0.85
   4   2   7    2.37    0.76
   5   2   7   57.66    3.62
   5   2   7   56.32    3.80
   5   2   7   53.34    3.61
  -5   2  -7   46.56    4.20
  -5   2  -7   54.68    3.57
  -5   2  -7   53.19    3.62
   6   2   7   17.90    1.78
  -6   2  -7   17.03    1.70
   6   2   7   14.14    0.93
  -6   2  -7   13.78    0.97
  -6   2  -7   15.78    1.95
   6   2   7   12.78    1.02
   6   2   7   18.00    1.63
  -6   2  -7   16.67    1.52
   6   2   7   16.76    1.58
  -6   2  -7   13.83    1.14
   7   2   7   -0.09    0.36
   7   2   7    0.47    0.90
  -7   2  -7   -0.12    0.44
  -7   2  -7    2.16    1.27
   7   2   7   -0.59    0.79
  -7   2  -7    0.00    0.41
   7   2   7    0.16    0.20
   7   2   7   -0.46    0.73
  -7   2  -7    0.39    0.71
  -7   2  -7    0.26    0.24
  -8   2  -7    0.12    0.74
  -8   2  -7   -0.11    0.97
   8   2   7   -0.16    0.59
   8   2   7    0.05    0.38
  -8   2  -7    0.40    0.36
   8   2   7    0.67    0.30
   8   2   7    0.40    0.58
   8   2   7   -0.36    0.99
  -8   2  -7    1.55    1.24
  -8   2  -7    0.17    0.66
  -9   2  -7    0.21    0.39
  -9   2  -7   -0.85    0.76
  -9   2  -7   -0.35    0.63
  -9   2  -7    0.78    1.30
  -9   2  -7   -0.93    1.06
   9   2   7   -0.32    0.42
   9   2   7   -0.08    0.31
 -10   2  -7    5.15    0.65
  10   2   7    3.75    0.52
 -10   2  -7    4.31    0.53
  10   2   7    4.06    0.40
  11   2   7   11.89    0.95
 -11   2  -7   13.94    0.91
  11   2   7   13.29    1.17
 -11   2  -7   13.89    1.14
 -12   2  -7    6.17    0.84
 -12   2  -7    5.34    0.95
  12   2   7    7.27    0.77
  12   2   7    6.09    0.56
 -12   2  -7    6.23    0.57
  13   2   7    3.67    0.52
 -13   2  -7    3.35    0.39
  13   2   7    3.11    0.47
 -13   2  -7    2.95    0.69
  13   2   7    3.17    0.34
 -13   2  -7    4.57    0.85
  14   2   7    0.88    0.20
  14   2   7    0.94    0.35
 -14   2  -7   -0.48    0.66
 -14   2  -7    1.33    0.17
 -14   2  -7    0.82    0.41
  14   2   7    0.63    0.33
 -15  -2  -7    2.30    0.37
 -15   2  -7    4.00    0.51
 -15   2  -7    3.01    0.52
  15   2   7    2.51    0.47
  15   2   7    3.85    0.27
 -17   3   7   16.48    1.14
  17   3  -7   17.01    1.19
 -17   3   7   18.95    1.26
  16   3  -7    0.20    0.38
  16   3  -7    0.86    0.45
 -16   3   7    0.94    0.43
 -16   3   7    1.13    0.38
 -16   3   7    0.35    0.59
  15   3  -7    3.55    0.54
  15   3  -7    2.09    0.57
 -15   3   7    2.95    0.69
 -15   3   7    2.38    0.66
 -15   3   7    2.87    0.51
  15   3  -7    2.44    0.27
  14   3  -7    7.34    0.82
  14   3  -7    8.33    0.81
 -14   3   7    8.80    0.91
 -14   3   7    6.96    1.09
  14   3  -7    9.11    0.64
 -14   3   7    7.46    0.74
 -13   3   7    0.36    0.40
 -13   3   7   -0.01    0.24
 -13   3   7   -0.11    0.64
 -13   3   7    0.18    0.57
 -13   3   7    0.36    0.42
  13   3  -7    0.07    0.30
  13   3  -7    0.09    0.55
  13   3  -7    0.09    0.44
 -12   3   7   12.26    2.36
 -12   3   7   16.30    1.25
 -12   3   7   16.08    1.03
  12   3  -7   16.68    1.05
  12   3  -7   15.60    1.43
  12   3  -7   16.99    1.20
 -12   3   7   13.43    1.30
 -12   3   7   18.23    1.65
 -11   3   7   72.10    5.20
  11   3  -7   76.92    4.25
 -11   3   7   81.98    4.74
  11   3  -7   71.11    4.35
  11   3  -7   80.49    4.94
 -11   3   7   80.63    5.19
  11   3  -7   85.34    4.71
 -11   3   7   81.20    4.25
 -11   3   7   77.37    5.96
 -11   3   7   71.97    4.36
  10   3  -7    8.06    0.65
 -10   3   7    8.13    1.40
 -10   3   7    7.99    0.93
 -10   3   7    8.31    0.69
 -10   3   7    8.55    0.75
 -10   3   7    7.23    0.71
 -10   3   7   10.15    1.92
  10   3  -7    8.00    1.01
  10   3  -7    9.06    0.86
  10   3  -7    8.06    0.76
  10   3  -7    6.55    0.62
  10   3  -7    8.35    1.45
  10   3  -7    5.97    1.25
 -10   3   7    6.03    1.08
   9   3  -7   10.34    0.90
  -9   3   7    9.08    0.97
   9   3  -7    7.23    1.58
   9   3  -7    8.54    0.68
   9   3  -7    7.28    1.25
   9   3  -7    9.10    0.84
  -9   3   7    9.75    1.57
  -9   3   7    8.60    1.14
   9   3  -7    8.96    0.83
  -9   3   7    9.69    1.36
  -9   3   7    9.90    0.96
  -9   3   7    9.91    0.68
  -9   3   7    8.94    0.78
   9   3  -7    9.47    1.16
   8   3  -7    7.51    0.63
  -8   3   7    6.62    0.56
   8   3  -7    7.21    0.57
   8   3  -7    7.64    1.49
   8   3  -7    4.53    1.08
  -8   3   7    6.70    1.56
   8   3  -7    7.14    0.66
   8   3  -7    7.59    1.02
  -8   3   7    7.00    0.98
  -8   3   7    6.56    0.82
  -8   3   7    6.47    0.67
  -8   3   7    8.82    0.73
   8   3  -7    7.54    0.73
  -8   3   7    7.67    1.22
   7   3  -7   10.19    0.90
   7   3  -7   11.43    0.92
   7   3  -7   12.59    0.74
   7   3  -7   11.27    1.31
  -7   3   7   10.36    0.73
  -7   3   7   11.41    0.83
  -7   3   7   12.15    1.19
  -7   3   7   12.80    1.37
  -7   3   7   12.92    1.78
   7   3  -7   13.71    1.31
  -7   3   7   11.96    0.96
   7   3  -7   10.75    0.87
  -7   3   7   10.39    1.13
   7   3  -7   11.85    1.60
   6   3  -7    0.73    0.58
   6   3  -7    0.89    0.73
  -6   3   7    0.17    0.68
  -6   3   7    0.58    0.37
   6   3  -7    0.46    0.21
   6   3  -7    0.43    0.68
  -6   3   7    0.24    0.77
  -6   3   7   -0.05    1.03
  -6   3   7    0.49    0.22
   5   3  -7    2.26    0.72
  -5   3   7    1.74    1.05
   5   3  -7    3.46    0.68
   5   3  -7    2.50    0.78
   5   3  -7    1.44    0.69
  -5   3   7    1.06    0.72
  -5   3   7    2.39    0.65
  -5   3   7    2.84    0.63
  -4   3   7   31.40    2.17
  -4   3   7   27.10    2.19
   4   3  -7   30.74    2.13
  -4   3   7   31.42    2.62
   4   3  -7   31.58    2.16
   4   3  -7   32.83    2.62
   4   3  -7   31.69    2.53
  -4   3   7   28.70    2.33
   3   3  -7   35.24    2.76
   3   3  -7   34.38    2.45
  -3   3   7   36.75    2.46
  -3   3   7   35.78    2.83
  -3   3   7   37.87    2.38
   3   3  -7   34.21    2.98
  -3   3   7   33.16    2.66
   3   3  -7   36.76    2.40
  -2   3   7  188.38   11.01
   2   3  -7  185.85   11.01
   2   3  -7  189.85   12.31
  -2   3   7  179.14   11.32
   2   3  -7  181.92   10.64
  -2   3   7  179.21   11.66
  -2   3   7  194.38   10.71
   2   3  -7  183.28   11.71
  -1   3   7   92.92    5.49
   1   3  -7   93.59    5.59
  -1   3   7   91.96    5.93
  -1   3   7   93.49    5.60
   1   3  -7   93.25    5.45
   1   3  -7   87.11    6.03
  -1   3   7   85.14    6.04
   1   3  -7   96.66    6.49
   0   3  -7    0.62    0.79
   0   3  -7    0.23    0.56
   0   3   7    0.61    0.51
   0   3   7    0.72    0.61
   0   3   7    0.61    0.62
   0   3  -7    1.17    0.60
   0   3  -7    0.93    0.45
   0   3   7    0.95    0.88
  -1   3  -7   31.28    2.21
   1   3   7   33.18    2.20
  -1   3  -7   32.78    2.16
  -1   3  -7   30.46    2.95
   1   3   7   31.91    2.24
   1   3   7   30.03    2.44
  -1   3  -7   31.86    2.50
   1   3   7   29.46    2.54
  -2   3  -7   14.47    1.50
  -2   3  -7   11.75    1.22
  -2   3  -7   13.21    1.82
   2   3   7   14.28    1.28
   2   3   7   13.37    1.38
  -2   3  -7   11.74    1.13
   2   3   7   12.24    1.27
   3   3   7   -0.69    0.82
   3   3   7   -0.28    0.63
  -3   3  -7    0.34    0.53
  -3   3  -7   -0.97    1.06
  -3   3  -7   -0.25    0.67
   3   3   7    0.02    0.61
  -4   3  -7   40.33    2.73
   4   3   7   43.72    2.89
   4   3   7   48.63    3.21
   4   3   7   44.23    2.87
  -4   3  -7   42.42    3.61
   4   3   7   41.91    2.49
  -4   3  -7   39.19    2.33
  -4   3  -7   37.45    2.23
  -4   3  -7   41.91    2.88
  -4   3  -7   43.85    2.79
   4   3   7   44.91    2.87
   4   3   7   37.96    2.23
  -4   3  -7   37.54    2.47
   5   3   7   11.57    0.98
  -5   3  -7   12.42    0.97
  -5   3  -7   16.81    1.55
  -5   3  -7   13.16    1.22
  -5   3  -7   14.18    1.98
   5   3   7   12.66    0.80
  -5   3  -7   13.53    1.03
   5   3   7   12.52    1.41
   5   3   7   11.35    1.14
  -5   3  -7   14.42    1.33
  -5   3  -7   13.22    0.82
   5   3   7   14.49    1.41
   5   3   7   12.04    0.94
   5   3   7   15.17    1.64
  -6   3  -7   13.83    0.91
  -6   3  -7   14.76    2.14
  -6   3  -7   12.67    1.29
   6   3   7   14.74    1.03
   6   3   7   14.58    1.08
  -6   3  -7   14.59    1.06
   6   3   7   14.22    0.88
   6   3   7   14.08    1.54
   6   3   7   17.20    1.58
   6   3   7   15.54    1.57
  -6   3  -7   14.18    1.47
   6   3   7   12.86    1.21
   7   3   7   27.38    2.39
  -7   3  -7   29.92    1.64
   7   3   7   28.12    1.84
  -7   3  -7   29.40    2.06
   7   3   7   27.80    2.33
  -7   3  -7   31.94    3.15
   7   3   7   26.31    1.73
   7   3   7   27.24    1.58
  -7   3  -7   26.41    2.22
  -7   3  -7   27.96    1.90
  -7   3  -7   27.48    1.74
   7   3   7   24.81    2.56
  -7   3  -7   27.19    2.37
   8   3   7   13.74    1.65
  -8   3  -7   13.68    1.10
   8   3   7   10.86    1.61
  -8   3  -7   14.43    1.50
   8   3   7   14.84    0.89
   8   3   7   13.64    1.07
  -8   3  -7   10.68    1.24
  -8   3  -7   13.99    1.22
  -8   3  -7   14.65    2.23
  -8   3  -7   15.06    1.72
  -8   3  -7   12.87    0.96
   8   3   7   14.83    1.12
   8   3   7   15.49    1.62
  -9   3  -7    7.10    0.87
   9   3   7    6.27    0.57
  -9   3  -7    3.96    1.69
  -9   3  -7    7.99    0.69
   9   3   7    6.19    0.61
   9   3   7    5.70    0.65
  -9   3  -7    6.81    0.74
  -9   3  -7    6.95    0.83
 -10   3  -7    0.73    0.79
  10   3   7    1.00    0.61
  10   3   7    1.31    0.50
 -10   3  -7    0.00    0.54
  10   3   7    0.77    0.30
 -10   3  -7    1.40    0.45
 -10   3  -7    0.47    0.31
  11   3   7    0.75    0.59
 -11   3  -7    1.08    0.59
  11   3   7    0.66    0.28
 -11   3  -7    0.24    0.24
 -11   3  -7    0.31    0.42
 -11   3  -7   -1.00    0.74
  11   3   7   -0.32    0.46
 -12   3  -7    0.30    0.59
 -12   3  -7   -0.19    0.39
  12   3   7    0.42    0.58
  12   3   7    0.30    0.34
  12   3   7   -0.07    0.21
 -12   3  -7    0.12    0.55
 -13   3  -7   -0.29    0.74
  13   3   7    0.22    0.32
  13   3   7   -0.53    0.37
 -13   3  -7   -0.43    0.56
  13   3   7   -0.05    0.13
 -13   3  -7   -0.02    0.36
  14   3   7    1.22    0.48
 -14   3  -7    1.95    0.54
  14   3   7    0.92    0.31
 -14   3  -7    0.73    0.31
 -14   3  -7    1.17    0.40
 -15   3  -7    0.82    0.19
  15   3   7    0.87    0.23
  16   4  -7    3.00    0.44
 -16   4   7    1.05    0.74
 -16   4   7    3.05    0.44
  16   4  -7    1.71    0.36
  16   4  -7    2.16    0.35
 -15   4   7    0.76    0.56
  15   4  -7    0.06    0.43
  15   4  -7    0.33    0.34
  15   4  -7    1.16    0.30
 -15   4   7    0.09    0.31
 -15   4   7    0.37    0.60
 -14   4   7   36.45    2.30
 -14   4   7   36.77    2.66
 -14   4   7   37.29    2.22
  14   4  -7   35.70    2.46
  14   4  -7   38.89    2.32
  14   4  -7   36.87    2.23
  13   4  -7    0.45    0.65
 -13   4   7    1.05    0.60
  13   4  -7    0.54    0.47
  13   4  -7    1.31    0.54
 -13   4   7    1.59    0.64
 -13   4   7    0.16    0.47
  12   4  -7    4.25    0.70
  12   4  -7    5.47    0.68
 -12   4   7    4.78    0.76
  12   4  -7    5.42    0.64
  12   4  -7    5.18    0.64
 -12   4   7    4.13    0.99
 -12   4   7    4.42    0.65
 -12   4   7    5.19    0.59
  11   4  -7    4.68    0.75
 -11   4   7    5.42    0.66
 -11   4   7    4.38    0.63
 -11   4   7    2.82    0.89
 -11   4   7    3.90    0.79
  11   4  -7    4.34    0.36
  11   4  -7    3.81    0.76
  11   4  -7    3.82    0.60
  11   4  -7    4.25    0.60
  10   4  -7    6.70    1.44
 -10   4   7    7.06    1.00
  10   4  -7    7.84    0.84
  10   4  -7    8.45    0.54
  10   4  -7    7.73    0.72
  10   4  -7    8.18    0.80
 -10   4   7    7.71    0.76
 -10   4   7    6.76    0.74
  10   4  -7    8.51    0.83
 -10   4   7    6.03    0.93
 -10   4   7    7.01    1.96
   9   4  -7   11.77    1.11
   9   4  -7   10.74    1.18
  -9   4   7   11.61    1.15
   9   4  -7   11.44    0.98
  -9   4   7   12.15    1.19
   9   4  -7   12.98    2.02
   9   4  -7    9.04    1.23
  -9   4   7   13.63    0.91
   9   4  -7   12.71    0.99
  -9   4   7   10.94    1.41
   9   4  -7   10.34    1.37
  -9   4   7    9.10    1.16
  -9   4   7   11.07    1.00
   9   4  -7   12.84    0.72
  -9   4   7   13.11    1.89
  -9   4   7   11.97    1.21
  -8   4   7    0.74    0.40
  -8   4   7    0.65    0.41
   8   4  -7   -1.15    1.26
   8   4  -7    0.88    0.41
  -8   4   7    1.00    0.47
   8   4  -7    0.71    0.19
   8   4  -7    0.84    0.41
   8   4  -7    1.07    0.40
   8   4  -7    0.41    0.43
  -8   4   7   -0.08    0.97
   8   4  -7    0.73    0.80
  -8   4   7    0.21    0.43
  -8   4   7    0.68    0.46
   8   4  -7    1.01    0.67
  -8   4   7    0.29    0.59
  -8   4   7    0.50    0.98
   7   4  -7   83.33    5.09
   7   4  -7   91.38    5.91
   7   4  -7   70.83    5.38
  -7   4   7   75.94    5.66
   7   4  -7   86.01    4.86
  -7   4   7   88.99    5.15
  -7   4   7   78.57    5.13
   7   4  -7   81.21    5.14
  -7   4   7   84.81    5.47
   7   4  -7   80.93    4.39
   7   4  -7   87.02    4.51
  -7   4   7   79.61    4.54
   7   4  -7   89.54    5.42
  -7   4   7   79.59    5.38
  -7   4   7   79.70    5.82
  -7   4   7   84.92    4.87
  -6   4   7    9.95    1.16
   6   4  -7    9.66    0.97
   6   4  -7   13.04    1.72
  -6   4   7   12.08    0.87
  -6   4   7   11.33    1.21
   6   4  -7    9.63    0.91
   6   4  -7   11.86    1.19
  -6   4   7   10.83    1.05
  -6   4   7   10.60    1.03
   6   4  -7   11.25    0.84
   6   4  -7   10.64    0.99
  -6   4   7   14.77    1.91
   6   4  -7   11.70    1.18
  -6   4   7   10.81    1.02
  -6   4   7   11.41    0.87
   6   4  -7   10.96    0.83
  -5   4   7   13.24    1.12
  -5   4   7   12.33    1.75
  -5   4   7   11.42    1.07
   5   4  -7   11.36    0.86
   5   4  -7   11.43    1.08
  -5   4   7   12.56    0.91
   5   4  -7   12.32    1.05
   5   4  -7   13.20    1.07
  -5   4   7   12.32    1.24
   5   4  -7   14.01    1.29
   5   4  -7   14.25    1.28
   5   4  -7   13.75    1.71
  -5   4   7   12.49    1.21
   5   4  -7   12.51    0.89
  -5   4   7   12.61    1.20
  -5   4   7   11.72    0.89
   4   4  -7    2.50    0.35
   4   4  -7    3.97    1.15
  -4   4   7    3.13    0.38
  -4   4   7    4.62    1.22
  -4   4   7    3.69    0.69
   4   4  -7    2.59    0.42
  -4   4   7    2.12    0.59
  -4   4   7    3.15    0.62
   4   4  -7    2.26    0.36
  -4   4   7    2.58    0.47
   4   4  -7    2.37    0.74
  -4   4   7    2.73    0.39
  -4   4   7    3.88    0.81
   4   4  -7    3.49    0.68
  -4   4   7    3.43    0.62
   4   4  -7    1.90    0.48
   4   4  -7    2.56    0.59
  -3   4   7    3.45    1.15
  -3   4   7    3.54    0.41
   3   4  -7    2.59    0.50
   3   4  -7    3.47    0.57
  -3   4   7    2.73    0.38
  -3   4   7    4.58    0.95
   3   4  -7    3.11    0.59
  -3   4   7    2.14    0.57
  -3   4   7    3.10    0.58
   3   4  -7    2.98    1.03
   3   4  -7    1.30    1.01
  -3   4   7    2.87    0.52
  -3   4   7    1.96    0.68
  -3   4   7    3.32    0.63
   3   4  -7    3.20    0.57
   3   4  -7    2.88    0.73
   3   4  -7    3.01    0.36
   3   4  -7    2.93    0.31
  -2   4   7    4.89    0.45
   2   4  -7    5.17    0.65
   2   4  -7    4.91    0.44
  -2   4   7    6.65    1.10
   2   4  -7    5.69    0.60
   2   4  -7    5.99    1.29
  -2   4   7    4.90    0.66
  -2   4   7    5.23    0.48
   2   4  -7    4.78    0.66
   2   4  -7    5.11    0.49
  -2   4   7    6.05    0.75
  -2   4   7    4.47    1.21
   2   4  -7    6.03    1.01
   2   4  -7    4.51    0.78
  -2   4   7    5.73    0.75
  -2   4   7    6.61    0.71
  -1   4   7   17.44    1.68
   1   4  -7   14.62    1.31
  -1   4   7   16.63    1.38
   1   4  -7   13.95    0.93
  -1   4   7   15.70    1.22
   1   4  -7   16.32    1.13
   1   4  -7   14.90    1.93
   1   4  -7   16.39    1.26
  -1   4   7   15.81    1.77
   1   4  -7   14.15    0.99
  -1   4   7   13.79    1.00
  -1   4   7   15.93    1.34
  -1   4   7   12.87    1.12
   1   4  -7   12.76    1.60
   1   4  -7   12.93    1.20
  -1   4   7   14.98    1.35
  -1   4   7   13.15    0.98
   0   4  -7    0.24    0.48
   0   4   7    0.31    0.84
   0   4   7   -0.04    0.49
   0   4   7   -0.10    0.61
   0   4  -7    0.03    0.45
   0   4   7   -0.48    0.92
   0   4   7    0.08    0.43
   0   4   7    0.09    0.28
   0   4  -7   -0.25    0.32
   0   4  -7    0.84    0.62
   0   4  -7    0.02    0.61
   0   4   7   -0.43    0.27
   0   4  -7    0.24    0.30
   0   4   7    0.23    0.42
   0   4   7    0.53    0.58
   0   4  -7   -1.24    1.13
   0   4  -7   -0.04    0.26
   0   4  -7    0.18    0.37
   1   4   7    1.03    0.76
   1   4   7    0.18    0.60
   1   4   7    0.18    0.29
  -1   4  -7    0.06    0.39
  -1   4  -7    0.45    0.88
   1   4   7    0.30    0.49
  -1   4  -7    0.61    0.27
   1   4   7    0.02    0.54
  -1   4  -7    0.37    0.42
  -1   4  -7    0.14    0.28
   1   4   7    0.27    0.24
   1   4   7    0.23    0.43
  -1   4  -7   -0.44    1.15
  -1   4  -7   -0.07    0.48
   1   4   7   -0.33    0.32
  -1   4  -7   -0.51    0.52
   1   4   7    1.03    0.69
  -1   4  -7    0.21    0.54
  -1   4  -7    0.03    0.34
   2   4   7    7.34    0.75
   2   4   7    8.62    1.00
   2   4   7    7.59    0.79
  -2   4  -7    7.51    1.26
  -2   4  -7    7.16    0.63
  -2   4  -7    6.85    0.74
  -2   4  -7    5.77    0.97
   2   4   7    6.57    0.73
   2   4   7    7.09    0.65
  -2   4  -7    6.69    1.64
   2   4   7    7.18    0.80
  -2   4  -7    8.21    0.82
  -2   4  -7    7.50    0.85
   2   4   7    6.35    0.61
   2   4   7    9.26    1.33
  -2   4  -7    7.57    0.63
   2   4   7    7.39    0.87
  -2   4  -7    7.73    0.69
  -3   4  -7    7.63    0.69
   3   4   7    8.47    0.72
  -3   4  -7    7.48    0.91
   3   4   7    9.98    1.43
   3   4   7    8.06    0.68
  -3   4  -7    8.27    0.87
  -3   4  -7    8.36    0.82
  -3   4  -7   10.87    1.08
   3   4   7   10.76    1.16
   3   4   7    9.93    0.90
   3   4   7    7.65    0.78
  -3   4  -7    8.09    0.70
   3   4   7    8.70    0.85
   3   4   7    8.87    1.08
  -3   4  -7    6.60    0.79
  -3   4  -7    7.94    1.47
  -3   4  -7    7.43    0.72
   3   4   7    7.38    0.85
  -4   4  -7   33.32    3.36
  -4   4  -7   32.86    2.55
   4   4   7   32.37    2.33
   4   4   7   29.38    2.25
  -4   4  -7   37.55    2.13
   4   4   7   33.43    2.66
  -4   4  -7   31.33    2.27
   4   4   7   31.47    2.36
   4   4   7   31.85    2.31
  -4   4  -7   31.02    2.47
  -4   4  -7   34.16    1.91
   4   4   7   32.81    2.46
   4   4   7   34.62    2.02
  -4   4  -7   34.55    2.28
  -4   4  -7   29.39    2.04
  -4   4  -7   31.73    2.37
   4   4   7   33.16    1.92
  -5   4  -7    3.51    0.80
   5   4   7    3.43    0.45
   5   4   7    2.12    0.80
  -5   4  -7    2.89    0.51
   5   4   7    3.18    0.79
   5   4   7    2.52    0.22
  -5   4  -7    2.52    0.66
  -5   4  -7    2.95    0.98
   5   4   7    3.67    0.67
  -5   4  -7    4.74    1.67
  -5   4  -7    2.56    0.53
   5   4   7    2.17    0.40
  -5   4  -7    3.31    0.70
   5   4   7    2.91    0.49
   5   4   7    2.30    0.86
  -5   4  -7    3.54    0.47
   5   4   7    2.68    0.40
   6   4   7   -0.08    0.34
   6   4   7    0.13    1.04
  -6   4  -7   -0.06    0.56
  -6   4  -7   -0.04    0.40
  -6   4  -7    1.11    0.62
   6   4   7    0.15    0.43
   6   4   7   -0.07    0.70
  -6   4  -7   -0.35    1.37
  -6   4  -7   -0.30    0.59
  -6   4  -7    0.11    0.54
   6   4   7   -0.12    0.14
   6   4   7   -0.63    0.92
  -6   4  -7    0.29    0.97
   6   4   7    0.03    0.24
   6   4   7    0.32    0.37
  -6   4  -7    0.20    0.44
   7   4   7    6.79    0.66
   7   4   7    7.33    0.46
   7   4   7    6.17    1.17
   7   4   7    8.08    0.94
  -7   4  -7    8.88    0.77
   7   4   7    8.32    0.76
  -7   4  -7    7.75    0.92
   7   4   7    5.06    1.12
   7   4   7    5.20    1.05
  -7   4  -7    5.77    1.32
   7   4   7    6.95    0.81
  -7   4  -7    8.57    1.12
  -7   4  -7    8.36    2.00
  -7   4  -7    7.07    0.62
  -7   4  -7    6.07    0.95
  -8   4  -7   17.34    1.55
  -8   4  -7   12.00    2.36
  -8   4  -7   17.87    1.65
   8   4   7   17.83    0.96
   8   4   7   12.29    1.89
   8   4   7   16.64    1.25
   8   4   7   18.65    1.47
  -8   4  -7   16.95    1.17
   8   4   7   16.89    1.14
  -8   4  -7   17.96    1.30
  -9   4  -7   32.13    1.95
  -9   4  -7   29.82    2.34
   9   4   7   33.53    2.37
  -9   4  -7   34.22    2.10
  -9   4  -7   31.66    2.55
   9   4   7   32.25    2.08
 -10   4  -7    6.79    0.68
  10   4   7    5.23    0.64
  10   4   7    5.06    0.84
  10   4   7    6.64    0.71
 -10   4  -7    7.09    0.64
 -10   4  -7    5.40    0.89
 -11   4  -7    0.38    0.43
  11   4   7    0.72    0.43
 -11   4  -7    0.77    0.83
 -11   4  -7    0.37    0.41
  11   4   7    0.11    0.50
  11   4   7    0.82    0.45
  12   4   7    2.27    0.45
 -12   4  -7    2.05    0.43
 -12   4  -7    2.50    0.48
 -12   4  -7    2.15    0.84
  12   4   7    2.73    0.54
  12   4   7    2.00    0.49
  13   4   7    0.26    0.44
 -13   4  -7    0.05    0.78
  13   4   7   -0.18    0.35
 -13   4  -7   -0.21    0.38
  13   4   7    0.78    0.39
 -13   4  -7    0.24    0.25
 -14   4  -7    3.53    0.60
 -14   4  -7    4.67    0.45
  14   4   7    4.23    0.42
  14   4   7    5.42    0.52
  14   4   7    4.61    0.38
  15   5  -7    5.69    0.58
 -15   5   7    5.32    0.69
 -15   5   7    4.95    0.56
 -14   5   7    1.04    0.49
 -14   5   7    1.71    0.86
  14   5  -7   -0.15    0.24
  14   5  -7    0.49    0.33
  14   5  -7    0.82    0.61
 -13   5   7   40.05    2.24
  13   5  -7   34.14    2.45
  13   5  -7   37.63    2.15
 -13   5   7   36.31    2.80
  13   5  -7   37.12    2.23
  12   5  -7   -0.01    0.32
 -12   5   7    0.13    0.63
  12   5  -7   -0.46    0.46
 -12   5   7    0.32    0.52
  12   5  -7   -0.33    0.32
  11   5  -7    3.37    0.53
  11   5  -7    1.89    0.41
 -11   5   7    1.87    0.64
 -11   5   7    2.58    0.72
  11   5  -7    2.71    0.53
 -11   5   7    2.96    0.46
 -11   5   7    2.82    0.70
 -11   5   7    2.22    0.25
  11   5  -7    3.02    0.59
 -10   5   7    0.49    0.49
 -10   5   7    0.16    0.22
 -10   5   7    0.62    0.50
  10   5  -7    0.33    0.34
 -10   5   7    0.66    0.67
  10   5  -7   -0.50    0.57
  10   5  -7    0.24    0.67
  10   5  -7    0.47    0.45
 -10   5   7    0.03    0.60
   9   5  -7    2.92    0.72
   9   5  -7    3.10    1.64
  -9   5   7    1.49    0.82
   9   5  -7    2.76    0.60
  -9   5   7    2.84    0.34
  -9   5   7    0.03    1.66
  -9   5   7    2.14    0.52
  -9   5   7    3.08    0.62
   9   5  -7    1.98    0.56
   9   5  -7    2.80    0.41
  -9   5   7    3.42    0.75
   9   5  -7    2.08    0.49
  -8   5   7    0.56    0.50
   8   5  -7    0.78    0.38
   8   5  -7    0.86    0.41
  -8   5   7   -1.97    1.42
   8   5  -7    0.65    0.48
   8   5  -7    0.02    1.40
  -8   5   7    0.26    0.26
  -8   5   7    0.28    0.54
   8   5  -7    1.06    0.49
   8   5  -7   -0.42    0.82
  -8   5   7    0.18    0.67
   8   5  -7    0.53    0.63
  -8   5   7    0.75    0.43
  -8   5   7    1.57    0.74
   7   5  -7    0.44    0.60
   7   5  -7    0.12    0.34
  -7   5   7    0.45    0.46
   7   5  -7    0.39    0.62
   7   5  -7    0.51    0.47
   7   5  -7    0.09    0.73
   7   5  -7    0.04    1.36
  -7   5   7   -0.14    1.51
  -7   5   7    1.00    0.70
  -7   5   7    0.24    0.42
   7   5  -7   -0.08    0.48
   7   5  -7    0.71    0.37
  -7   5   7    0.57    0.39
  -7   5   7    0.29    0.21
  -7   5   7    0.21    0.47
  -7   5   7    0.25    0.37
   6   5  -7   -0.79    1.25
  -6   5   7    2.40    0.39
  -6   5   7    1.73    0.18
   6   5  -7    2.42    0.39
  -6   5   7    1.89    0.68
  -6   5   7    2.14    0.40
  -6   5   7    1.48    0.36
   6   5  -7    2.35    0.63
   6   5  -7    3.07    0.44
  -6   5   7    1.31    1.40
   6   5  -7    2.46    0.36
   6   5  -7    2.62    0.72
   6   5  -7    2.77    0.50
   6   5  -7    2.87    0.72
  -6   5   7    2.19    0.70
  -6   5   7    1.92    0.69
   5   5  -7    1.07    0.55
   5   5  -7    1.59    0.53
  -5   5   7    1.22    0.67
   5   5  -7    1.73    0.29
   5   5  -7    1.13    0.39
  -5   5   7    1.60    0.35
  -5   5   7    1.85    0.64
   5   5  -7    0.61    0.57
   5   5  -7    1.24    0.59
   5   5  -7    1.58    0.65
  -5   5   7    1.53    1.02
  -5   5   7    1.45    0.65
   5   5  -7    0.19    1.24
   4   5  -7   13.60    0.86
  -4   5   7   13.25    1.37
   4   5  -7   13.21    1.19
   4   5  -7   11.96    1.84
   4   5  -7   13.45    1.08
  -4   5   7   13.76    1.27
  -4   5   7   12.49    0.89
  -4   5   7   12.29    1.18
   4   5  -7   13.26    1.26
   4   5  -7   12.47    1.18
   4   5  -7   13.57    0.88
  -4   5   7   11.43    1.18
  -4   5   7   14.04    1.78
   4   5  -7   14.61    1.12
  -3   5   7   36.36    2.97
   3   5  -7   33.93    1.94
   3   5  -7   34.70    2.45
   3   5  -7   36.41    3.11
  -3   5   7   33.87    1.94
   3   5  -7   37.54    2.17
   3   5  -7   34.00    2.02
  -3   5   7   33.94    2.48
   3   5  -7   35.74    2.37
   3   5  -7   32.79    2.29
  -3   5   7   34.52    2.39
   3   5  -7   31.24    2.38
  -3   5   7   30.63    2.44
  -3   5   7   35.25    2.59
  -2   5   7   22.84    1.80
   2   5  -7   22.62    1.46
   2   5  -7   23.31    1.67
  -2   5   7   21.92    1.78
  -2   5   7   21.33    1.73
   2   5  -7   23.96    1.72
   2   5  -7   21.49    2.46
  -2   5   7   23.08    1.36
  -2   5   7   22.46    2.17
   2   5  -7   21.68    1.76
  -2   5   7   28.15    2.63
   2   5  -7   22.29    2.43
  -2   5   7   25.11    1.79
   2   5  -7   23.76    1.33
   2   5  -7   21.04    1.55
   2   5  -7   20.43    1.34
  -1   5   7    3.66    0.70
  -1   5   7    5.03    0.99
   1   5  -7    3.51    1.38
   1   5  -7    4.60    0.54
   1   5  -7    4.57    0.60
  -1   5   7    4.67    0.41
   1   5  -7    4.20    0.72
  -1   5   7    4.04    1.14
   1   5  -7    4.86    0.44
  -1   5   7    4.82    0.66
   1   5  -7    4.16    0.61
  -1   5   7    4.25    0.67
   1   5  -7    3.44    1.25
  -1   5   7    4.32    0.59
   1   5  -7    3.31    0.29
   0   5   7    2.24    0.18
   0   5   7    3.69    0.54
   0   5  -7    3.29    0.55
   0   5  -7    4.44    0.57
   0   5  -7    3.86    0.99
   0   5  -7    4.69    0.52
   0   5  -7    3.57    0.40
   0   5  -7    3.18    0.72
   0   5   7    3.43    0.29
   0   5   7    3.78    0.63
   0   5   7    4.16    0.68
   0   5  -7    4.13    1.54
   0   5   7    4.98    0.64
   0   5   7    5.52    1.40
   0   5   7    4.24    1.16
   0   5   7    3.20    0.40
  -1   5  -7    9.87    1.60
   1   5   7   11.56    1.28
   1   5   7   12.04    0.93
   1   5   7   10.74    1.06
   1   5   7   12.30    1.03
   1   5   7   12.59    0.90
   1   5   7   10.48    1.64
  -1   5  -7   12.87    1.15
   1   5   7   11.41    1.07
  -1   5  -7   11.75    1.07
  -1   5  -7   10.42    2.06
   1   5   7   11.65    0.74
  -1   5  -7   12.95    1.16
   1   5   7   11.52    0.82
  -1   5  -7   11.82    0.80
  -1   5  -7   12.08    1.18
   2   5   7   -0.52    1.08
   2   5   7    1.47    0.25
  -2   5  -7    0.99    1.10
   2   5   7    1.48    0.47
  -2   5  -7    0.91    0.57
  -2   5  -7    1.54    0.34
  -2   5  -7    1.97    0.39
  -2   5  -7    1.57    0.32
   2   5   7    1.72    0.48
  -2   5  -7    1.56    0.18
   2   5   7    1.26    0.50
   2   5   7    1.87    0.34
   2   5   7    1.56    0.62
  -2   5  -7    2.13    0.30
  -2   5  -7    1.28    0.52
  -2   5  -7    1.08    0.44
   2   5   7    2.12    0.52
   2   5   7    1.26    0.53
  -3   5  -7   23.06    1.95
  -3   5  -7   24.91    1.64
   3   5   7   26.21    1.95
   3   5   7   22.17    1.73
   3   5   7   23.69    1.96
  -3   5  -7   25.14    1.90
  -3   5  -7   24.98    1.90
   3   5   7   25.90    1.76
  -3   5  -7   23.98    1.49
  -3   5  -7   25.75    2.79
   3   5   7   24.41    1.50
   3   5   7   26.38    1.87
  -3   5  -7   24.32    1.60
   3   5   7   25.36    1.53
   3   5   7   28.09    1.86
  -3   5  -7   26.35    1.50
   3   5   7   25.45    2.58
  -3   5  -7   25.73    1.70
  -4   5  -7   22.04    1.77
  -4   5  -7   21.48    2.82
   4   5   7   24.69    1.83
  -4   5  -7   20.87    1.52
   4   5   7   18.02    1.68
  -4   5  -7   20.83    1.60
  -4   5  -7   24.07    1.40
  -4   5  -7   23.86    1.38
   4   5   7   23.04    1.76
  -4   5  -7   21.48    1.74
  -4   5  -7   23.29    1.86
   4   5   7   23.47    1.39
   4   5   7   22.85    1.40
   4   5   7   20.71    1.83
   4   5   7   20.95    1.70
  -4   5  -7   25.72    1.57
   4   5   7   22.18    2.33
   5   5   7   63.47    4.44
   5   5   7   67.43    3.84
   5   5   7   56.21    4.10
   5   5   7   64.01    3.61
  -5   5  -7   69.53    3.80
  -5   5  -7   64.85    4.70
  -5   5  -7   62.27    3.94
   5   5   7   64.58    4.29
  -5   5  -7   59.95    5.45
  -5   5  -7   65.51    4.39
  -5   5  -7   68.20    4.31
   5   5   7   67.59    4.48
  -5   5  -7   66.09    3.61
  -5   5  -7   60.92    3.96
   5   5   7   62.24    4.62
   5   5   7   68.08    4.08
  -6   5  -7   13.87    2.15
   6   5   7   14.31    1.50
  -6   5  -7   15.66    1.74
   6   5   7   15.93    1.02
   6   5   7   13.83    1.23
  -6   5  -7   13.20    0.93
  -6   5  -7   13.79    1.34
  -6   5  -7   15.08    1.04
   6   5   7    9.67    1.77
   6   5   7   14.57    1.02
   6   5   7   13.56    1.09
  -6   5  -7   12.44    1.13
   7   5   7    9.84    0.76
  -7   5  -7   10.78    1.32
   7   5   7   11.42    1.13
  -7   5  -7    9.52    1.02
   7   5   7    9.36    1.00
   7   5   7   10.69    0.83
  -7   5  -7   10.04    0.75
  -7   5  -7    9.52    1.11
  -7   5  -7    8.37    0.77
   8   5   7    0.16    0.37
  -8   5  -7    0.55    0.72
   8   5   7   -0.08    0.29
   8   5   7   -0.11    0.44
  -8   5  -7   -0.09    0.47
  -8   5  -7    0.84    0.69
  -8   5  -7    0.35    0.33
   8   5   7    0.67    0.52
  -8   5  -7   -0.49    0.28
   9   5   7    0.48    0.32
  -9   5  -7    0.58    0.18
   9   5   7   -0.03    0.50
  -9   5  -7   -0.56    0.66
  -9   5  -7    0.30    0.67
  -9   5  -7    1.04    0.37
   9   5   7    0.57    0.47
  10   5   7    4.19    0.45
  10   5   7    4.79    0.66
 -10   5  -7    5.44    0.54
 -10   5  -7    4.49    0.74
 -10   5  -7    6.01    0.88
  10   5   7    4.99    0.51
  11   5   7    6.66    0.84
 -11   5  -7    5.55    1.07
  11   5   7    7.36    0.59
 -11   5  -7    7.25    0.61
  11   5   7    6.38    0.54
  12   5   7   -0.14    0.29
 -12   5  -7   -0.94    0.58
  12   5   7    0.31    0.14
  12   5   7    0.30    0.56
 -12   5  -7    0.28    0.45
  13   5   7    0.63    0.32
 -13   5  -7    0.18    0.27
 -13   5  -7    0.82    0.52
  13   5   7    0.14    0.25
  14   6  -7    0.51    0.36
 -14   6   7    0.01    0.37
  14   6  -7    0.43    0.20
  13   6  -7    3.40    0.43
 -13   6   7    3.82    0.35
  13   6  -7    2.70    0.52
 -13   6   7    4.13    0.92
  12   6  -7    5.94    0.67
 -12   6   7    6.08    0.85
 -12   6   7    4.61    0.48
  11   6  -7   16.01    1.28
 -11   6   7   16.34    1.06
 -11   6   7   15.59    1.70
 -11   6   7   14.59    1.41
  11   6  -7   15.04    1.08
  10   6  -7    0.77    0.40
  10   6  -7    1.34    0.61
 -10   6   7    2.36    0.76
  10   6  -7    1.91    0.53
 -10   6   7    1.07    0.88
 -10   6   7    1.15    0.47
 -10   6   7    0.12    0.41
   9   6  -7    7.22    0.79
  -9   6   7    7.49    0.82
   9   6  -7    6.89    0.78
  -9   6   7    6.10    0.82
  -9   6   7    7.73    0.70
  -9   6   7    6.33    0.89
   9   6  -7    6.28    0.58
   9   6  -7    5.72    0.65
  -8   6   7    8.19    1.11
  -8   6   7    9.72    0.97
  -8   6   7    8.46    0.70
   8   6  -7    9.10    0.99
   8   6  -7    8.34    0.93
  -8   6   7    8.75    1.05
   8   6  -7    8.00    0.86
   8   6  -7    8.68    0.76
   7   6  -7   14.41    1.32
  -7   6   7   10.31    1.26
  -7   6   7   11.74    1.27
   7   6  -7   10.99    1.19
   7   6  -7   11.25    1.19
  -7   6   7   12.42    0.86
   7   6  -7   12.29    0.88
  -7   6   7   13.10    1.29
   6   6  -7    8.46    0.76
  -6   6   7    9.34    1.11
  -6   6   7    8.13    1.09
   6   6  -7    3.18    1.74
  -6   6   7    9.57    0.73
  -6   6   7    9.20    0.97
   6   6  -7    8.35    0.90
   6   6  -7    9.40    1.10
   6   6  -7    8.45    0.86
  -6   6   7    9.51    1.70
  -5   6   7   -0.21    1.50
  -5   6   7    0.15    0.50
   5   6  -7    0.81    0.59
  -5   6   7   -0.19    0.73
   5   6  -7    0.20    1.41
  -5   6   7    0.36    0.29
   5   6  -7    0.41    0.53
   5   6  -7    0.83    0.64
  -5   6   7   -0.21    0.68
   5   6  -7    0.43    0.35
  -4   6   7    0.44    0.75
   4   6  -7    0.43    0.26
  -4   6   7    0.41    0.26
  -4   6   7   -0.06    0.49
  -4   6   7    0.00    1.00
  -4   6   7    0.59    0.51
   4   6  -7   -0.06    0.93
  -4   6   7   -0.11    0.63
   4   6  -7   -0.18    0.56
   4   6  -7    0.67    0.51
   4   6  -7    0.00    0.42
  -3   6   7   26.95    2.97
   3   6  -7   27.80    2.08
   3   6  -7   29.70    2.11
   3   6  -7   29.67    1.62
  -3   6   7   25.01    2.12
  -3   6   7   27.73    1.59
   3   6  -7   20.65    2.65
  -3   6   7   27.89    2.17
   3   6  -7   26.77    1.93
  -3   6   7   32.74    2.20
  -3   6   7   28.66    2.22
  -2   6   7    0.96    0.69
  -2   6   7   -2.26    0.89
   2   6  -7   -0.36    1.36
   2   6  -7   -1.08    0.60
   2   6  -7    0.18    0.58
  -2   6   7   -0.42    0.78
   2   6  -7    0.48    0.26
  -2   6   7   -0.36    0.41
   2   6  -7   -0.37    0.65
  -2   6   7    0.47    0.43
  -2   6   7    0.18    0.23
   2   6  -7   -0.12    0.39
  -1   6   7   10.20    1.58
  -1   6   7   10.27    1.07
   1   6  -7   13.14    1.16
  -1   6   7   12.99    1.23
  -1   6   7   10.07    1.10
   1   6  -7    9.98    0.95
   1   6  -7    9.56    0.71
   1   6  -7   10.82    1.14
  -1   6   7    9.82    1.06
  -1   6   7    8.24    1.58
  -1   6   7   10.49    0.70
   1   6  -7    9.62    1.04
   1   6  -7   12.71    1.66
   0   6   7   10.64    1.20
   0   6  -7   11.03    1.13
   0   6   7   13.10    1.30
   0   6  -7   11.46    0.78
   0   6  -7    9.80    1.80
   0   6   7   11.39    0.77
   0   6  -7   12.68    1.06
   0   6   7   11.58    1.99
   0   6  -7   12.63    1.12
   0   6   7   11.49    1.17
   0   6  -7   12.28    1.21
   0   6   7   12.12    1.20
   0   6   7   10.30    1.51
   1   6   7    0.09    0.46
  -1   6  -7    0.21    0.87
   1   6   7   -0.05    0.85
   1   6   7    0.04    0.21
   1   6   7    0.04    0.67
  -1   6  -7    0.13    0.26
  -1   6  -7   -0.11    0.38
  -1   6  -7   -0.36    0.45
  -1   6  -7   -0.62    0.74
   1   6   7    0.94    0.59
  -1   6  -7    0.27    0.45
  -1   6  -7   -0.06    1.14
   1   6   7    0.49    0.48
   2   6   7    5.79    1.54
  -2   6  -7    5.61    0.47
   2   6   7    5.05    0.75
  -2   6  -7    6.08    0.74
   2   6   7    6.99    0.72
   2   6   7    5.34    0.88
   2   6   7    6.33    0.91
  -2   6  -7    5.64    0.83
   2   6   7    5.37    0.51
  -2   6  -7    5.28    0.85
  -2   6  -7    4.25    1.97
  -3   6  -7    0.14    0.67
   3   6   7    0.65    0.55
   3   6   7    0.37    0.90
  -3   6  -7    0.93    0.56
   3   6   7    0.92    0.62
  -3   6  -7    1.27    0.85
   3   6   7   -0.11    0.47
  -3   6  -7    0.82    0.64
   3   6   7    0.46    0.31
  -3   6  -7    0.71    0.30
  -3   6  -7   -0.59    1.19
   3   6   7    0.01    0.77
  -4   6  -7    0.32    0.33
   4   6   7    0.05    0.48
   4   6   7    0.06    0.27
  -4   6  -7   -1.38    0.50
   4   6   7    0.24    0.37
  -4   6  -7   -1.84    1.22
  -4   6  -7    0.26    0.45
   4   6   7    0.60    0.68
  -4   6  -7    0.29    0.39
   4   6   7    0.06    0.92
  -4   6  -7    0.52    0.81
  -5   6  -7    1.27    0.33
   5   6   7    1.17    0.55
  -5   6  -7    2.17    0.66
   5   6   7    0.88    0.52
  -5   6  -7   -0.19    0.86
  -5   6  -7    1.75    0.49
   5   6   7    1.72    0.71
  -6   6  -7    5.87    1.17
  -6   6  -7    7.42    0.68
  -6   6  -7    7.02    0.86
   6   6   7    7.15    0.86
   6   6   7    7.69    0.78
  -6   6  -7    5.99    1.01
   6   6   7    7.57    0.61
   6   6   7    6.70    0.79
  -7   6  -7   -0.95    0.54
  -7   6  -7   -0.24    0.33
   7   6   7   -0.06    0.41
  -7   6  -7   -0.10    0.53
   7   6   7    0.07    0.30
   7   6   7   -0.18    0.51
   7   6   7    0.11    0.25
  -7   6  -7    0.09    0.98
   8   6   7    4.19    0.45
  -8   6  -7    3.40    0.45
  -8   6  -7    2.38    0.63
   8   6   7    2.44    0.63
  -8   6  -7    2.81    1.04
  -8   6  -7    3.88    0.52
   8   6   7    3.49    0.80
   9   6   7    2.94    0.34
   9   6   7    2.39    0.55
  -9   6  -7    1.48    0.54
  -9   6  -7    2.74    0.41
   9   6   7    1.93    0.57
  -9   6  -7    2.92    1.00
  10   6   7   -0.05    0.45
 -10   6  -7   -0.16    0.37
  10   6   7    0.05    0.23
 -10   6  -7    0.50    0.33
 -10   6  -7   -0.86    0.86
  11   6   7    1.02    0.22
  11   6   7    0.43    0.38
 -11   6  -7   -0.48    0.54
 -11   6  -7    0.49    0.26
 -12   6  -7    1.43    0.46
  12   6   7    1.34    0.18
  12   6   7    1.29    0.34
 -12   7   7    1.16    0.54
  12   7  -7    1.06    0.44
  11   7  -7    5.99    0.64
 -11   7   7    5.60    0.76
  11   7  -7    4.61    0.36
 -11   7   7    4.50    0.60
  10   7  -7    4.08    0.62
 -10   7   7    4.79    0.65
 -10   7   7    5.26    0.78
  10   7  -7    4.48    0.38
  10   7  -7    3.53    0.47
   9   7  -7    0.68    0.37
  -9   7   7    0.56    0.64
   9   7  -7   -0.32    0.47
  -9   7   7    0.38    0.56
  -9   7   7   -0.67    0.54
   9   7  -7    0.06    0.23
   8   7  -7    7.77    0.82
  -8   7   7    6.78    0.87
  -8   7   7    7.12    1.08
  -8   7   7    7.64    0.82
   8   7  -7    7.67    0.92
   8   7  -7    7.75    0.54
   8   7  -7    6.58    0.83
   7   7  -7    9.47    0.92
   7   7  -7   11.43    1.04
   7   7  -7   10.62    1.02
  -7   7   7    9.17    1.04
  -7   7   7    9.97    1.09
   7   7  -7   10.11    0.64
  -7   7   7    8.70    1.08
   6   7  -7   10.84    1.18
   6   7  -7   12.91    1.11
  -6   7   7   14.08    1.42
   6   7  -7   12.61    1.22
  -6   7   7   11.40    1.26
  -6   7   7   11.18    1.28
   6   7  -7   11.41    0.71
  -5   7   7   11.16    1.26
   5   7  -7   10.04    1.05
   5   7  -7   10.65    1.22
  -5   7   7   12.45    1.27
   5   7  -7   11.62    1.03
  -5   7   7    9.64    1.13
   4   7  -7   14.56    1.31
  -4   7   7   12.03    1.32
  -4   7   7   13.22    1.31
   4   7  -7   11.83    1.30
  -4   7   7   13.16    1.43
   4   7  -7   14.27    1.31
   3   7  -7   -0.09    0.53
  -3   7   7    1.94    0.81
  -3   7   7    1.55    0.71
   3   7  -7    1.28    0.66
   3   7  -7    1.42    0.65
  -3   7   7    1.17    0.86
  -3   7   7    0.19    0.59
  -2   7   7    6.11    0.88
   2   7  -7    5.35    0.68
  -2   7   7    6.04    0.84
   2   7  -7    5.77    0.94
   2   7  -7    6.20    0.88
  -2   7   7    5.42    0.75
   2   7  -7    6.95    0.72
  -2   7   7    6.07    0.81
  -1   7   7    0.80    0.56
   1   7  -7    0.54    0.64
   1   7  -7    0.46    0.43
  -1   7   7    1.13    0.49
   1   7  -7    0.35    0.53
   1   7  -7    1.40    0.75
  -1   7   7    0.75    0.52
   0   7  -7   -0.45    0.59
   0   7  -7   -0.27    0.80
   0   7   7   -0.75    0.72
   0   7   7   -0.72    0.73
   0   7  -7    0.32    0.46
   0   7   7   -0.53    0.62
   0   7  -7   -0.05    0.50
   1   7   7    8.70    1.00
   1   7   7    9.34    1.12
   1   7   7   10.31    1.02
  -1   7  -7    9.70    1.19
  -1   7  -7    9.19    1.00
  -1   7  -7    8.38    0.93
   2   7   7   24.26    1.98
  -2   7  -7   22.78    1.92
   2   7   7   29.55    2.01
  -2   7  -7   26.99    2.07
  -2   7  -7   26.78    1.82
   2   7   7   27.24    2.02
   2   7   7   26.08    2.04
  -3   7  -7    6.07    1.09
   3   7   7    7.83    0.86
   3   7   7    5.83    0.86
   3   7   7    6.60    0.84
  -3   7  -7    6.63    0.79
  -3   7  -7    7.75    0.82
   4   7   7    3.92    0.80
  -4   7  -7    3.20    0.93
   4   7   7    4.63    0.59
  -4   7  -7    3.14    0.85
   4   7   7    3.17    0.64
  -4   7  -7    3.04    0.59
   5   7   7    0.80    0.55
   5   7   7    0.95    0.54
   5   7   7    1.79    0.55
  -5   7  -7    1.24    0.83
  -5   7  -7   -0.02    0.83
  -5   7  -7    1.00    0.66
   5   7   7    0.95    0.18
  -6   7  -7    0.86    0.87
   6   7   7   -0.29    0.72
   6   7   7   -0.24    0.48
   6   7   7    1.00    0.67
  -6   7  -7    0.26    0.56
  -6   7  -7    0.98    0.61
   6   7   7    0.30    0.17
  -7   7  -7    6.88    1.14
  -7   7  -7    7.58    0.76
   7   7   7    8.23    0.50
  -7   7  -7    6.68    1.00
   7   7   7    7.32    0.88
   7   7   7    8.71    0.94
   8   7   7    0.74    0.38
  -8   7  -7    0.57    0.59
   8   7   7    0.17    0.48
  -8   7  -7   -0.64    0.68
   8   7   7    0.19    0.15
  -9   7  -7   10.50    0.92
   9   7   7    9.71    0.84
  -9   7  -7    8.56    1.01
   9   7   7   11.53    0.95
 -10   7  -7    2.20    0.49
 -10   8   7   -0.27    0.37
  10   8  -7   -0.29    0.33
  -9   8   7    0.07    0.76
   9   8  -7    0.23    0.29
   9   8  -7   -0.02    0.46
  -9   8   7    0.94    0.63
  -8   8   7    0.69    0.52
   8   8  -7   -0.13    0.36
  -8   8   7   -0.95    0.53
   8   8  -7   -0.16    0.43
  -7   8   7    0.94    0.56
  -7   8   7    1.52    0.44
  -7   8   7    0.97    0.63
   7   8  -7    0.85    0.37
   7   8  -7    1.31    0.42
   7   8  -7    1.30    0.50
   6   8  -7    3.34    0.53
   6   8  -7    3.55    0.60
  -6   8   7    3.79    0.73
  -6   8   7    2.96    0.66
  -6   8   7    3.42    0.56
   6   8  -7    3.94    0.71
   5   8  -7    5.87    0.87
   5   8  -7    7.30    0.72
  -5   8   7    4.86    0.78
  -5   8   7    7.43    0.78
  -5   8   7    6.34    0.83
   5   8  -7    5.47    0.66
  -4   8   7    0.39    0.49
  -4   8   7   -0.59    0.84
  -4   8   7    0.49    0.57
   4   8  -7    0.64    0.44
   4   8  -7    0.57    0.52
  -3   8   7    2.74    0.58
  -3   8   7    2.36    0.85
   3   8  -7    2.47    0.52
   3   8  -7    2.37    0.79
  -2   8   7    0.76    0.62
   2   8  -7    1.11    0.71
  -2   8   7    0.20    0.46
   2   8  -7   -0.43    0.43
  -2   8   7    0.36    0.55
   2   8  -7    0.56    0.46
   1   8  -7    1.33    0.65
  -1   8   7    0.77    0.72
   1   8  -7    1.97    0.49
  -1   8   7    1.57    0.60
  -1   8   7    1.62    0.51
   1   8  -7    0.87    0.73
   0   8   7   11.65    1.05
   0   8  -7    9.04    0.91
   0   8  -7    8.87    0.93
   0   8   7    9.01    0.95
   0   8  -7    7.12    1.04
   0   8   7    9.12    0.95
  -1   8  -7    2.54    0.88
  -1   8  -7    2.89    0.52
  -1   8  -7    2.90    0.60
   1   8   7    2.99    0.54
   1   8   7    4.23    0.72
   1   8   7    2.81    0.64
  -2   8  -7   -0.15    0.45
   2   8   7    0.13    0.57
  -2   8  -7   -0.15    0.40
  -2   8  -7   -0.78    0.83
   2   8   7    1.47    0.76
   3   8   7    0.68    0.36
  -3   8  -7   -0.14    0.43
   3   8   7   -0.38    0.52
  -3   8  -7    0.82    0.61
   3   8   7    0.23    0.55
  -4   8  -7    0.09    0.43
  -4   8  -7   -0.96    0.79
   4   8   7   -0.12    0.49
   4   8   7    0.12    0.39
   4   8   7    0.72    0.38
   5   8   7   14.88    1.23
   5   8   7   12.00    1.13
   5   8   7   15.21    1.11
  -5   8  -7   12.20    1.14
  -5   8  -7   15.61    1.52
  -6   8  -7   23.59    1.61
   6   8   7   20.04    1.64
  -6   8  -7   24.44    1.70
  -7   8  -7    0.13    0.41
  -7   8  -7   -0.90    0.37
   7   8   7    0.37    0.32
   7   8   7    0.37    0.38
   8   8   7    0.80    0.35
  -8   8  -7    0.85    0.36
  -6   9   7    1.22    0.40
   6   9  -7    0.91    0.36
  -5   9   7   -0.07    0.30
  -5   9   7    0.37    0.39
   5   9  -7   -0.42    0.41
  -4   9   7    2.71    0.43
   4   9  -7    2.80    0.48
   4   9  -7    1.62    0.38
  -3   9   7    3.13    0.49
   3   9  -7    2.20    0.46
   2   9  -7    1.09    0.47
  -2   9   7    1.29    0.40
   1   9  -7    8.57    0.87
  -1   9   7    7.66    0.84
   0   9   7   -0.29    0.36
   0   9  -7    0.39    0.45
  -1   9  -7   -0.14    0.51
   1   9   7    2.88    0.63
   2   9   7    1.13    0.35
   2   9   7    1.80    0.44
  -2   9  -7    1.35    0.44
   3   9   7    1.80    0.45
   3   9   7    0.45    0.29
  -3   9  -7   -0.39    0.43
  -4   9  -7    0.08    0.39
   4   9   7    0.11    0.37
 -18   0   8    4.03    0.36
  18   0  -8    2.94    0.30
  17   0  -8   -0.48    0.27
 -17   0   8   -0.12    0.44
  16   0  -8    1.87    0.34
 -16   0   8    1.73    0.40
 -16   0   8    1.80    0.65
  15   0  -8    0.47    0.41
 -15   0   8   -1.11    0.60
 -15   0   8   -0.12    0.36
 -14   0   8    7.55    0.76
 -13   0   8    3.15    1.47
 -13   0   8    0.62    0.52
 -12   0   8    7.86    1.42
 -12   0   8   10.45    0.83
 -11   0   8   -0.17    0.45
  11   0  -8    0.42    0.98
 -11   0   8    0.31    1.10
 -10   0   8    8.29    0.75
 -10   0   8    6.18    1.34
  10   0  -8    7.80    1.25
  -9   0   8    0.00    0.85
   9   0  -8   -0.82    0.75
   8   0  -8   11.54    1.29
  -8   0   8   11.00    1.39
  -7   0   8   -0.16    0.46
   7   0  -8   -0.18    0.61
  -7   0   8    0.92    0.75
  -7   0   8    2.09    0.95
  -6   0   8   43.02    2.95
  -6   0   8   44.96    3.08
  -6   0   8   44.94    3.10
   6   0  -8   41.16    3.04
  -5   0   8    0.21    0.62
  -5   0   8   -0.17    0.80
  -5   0   8   -0.09    0.57
  -5   0   8   -1.63    1.23
   5   0  -8   -0.49    0.49
   5   0  -8   -0.49    0.51
  -5   0   8    0.79    0.87
   5   0  -8    0.79    0.75
   5   0  -8    0.78    1.17
   4   0  -8   29.64    2.83
   4   0  -8   27.31    2.79
   4   0  -8   30.35    2.15
   4   0  -8   31.50    2.11
  -4   0   8   25.31    2.50
  -4   0   8   29.44    2.17
  -4   0   8   29.87    2.17
   4   0  -8   29.59    2.21
  -4   0   8   33.78    2.38
  -4   0   8   32.90    2.85
  -3   0   8   -0.43    0.41
   3   0  -8   -0.92    0.65
  -3   0   8   -1.04    0.75
  -3   0   8    0.77    0.80
  -3   0   8   -1.08    0.41
   3   0  -8    0.26    0.47
   3   0  -8    1.08    0.84
  -3   0   8   -0.01    0.77
   3   0  -8    0.80    1.13
   3   0  -8   -0.31    0.34
  -2   0   8    5.59    0.98
  -2   0   8    5.24    0.84
   2   0  -8    4.79    0.67
   2   0  -8    6.11    0.76
   2   0  -8    4.78    1.34
  -2   0   8    5.80    0.67
  -2   0   8    5.91    1.36
  -2   0   8    5.61    1.14
   2   0  -8    5.47    1.35
   2   0  -8    6.17    0.91
   1   0  -8   -0.65    0.68
  -1   0   8   -0.40    0.60
  -1   0   8    0.18    0.87
   1   0  -8    0.22    0.50
  -1   0   8    0.46    0.76
  -1   0   8   -0.61    0.47
   1   0  -8    0.21    1.09
  -1   0   8   -0.24    1.07
   1   0  -8   -0.72    1.06
   1   0  -8    0.17    0.46
   0   0  -8   22.08    1.56
   0   0  -8   17.92    2.05
   0   0   8   17.80    1.62
   0   0   8   20.76    2.02
   0   0   8   18.43    1.94
   0   0   8   19.42    1.60
   0   0  -8   21.09    2.04
   0   0  -8   18.44    1.55
   1   0   8    0.33    1.12
   1   0   8   -0.57    0.83
  -1   0  -8    0.86    0.55
   1   0   8    0.13    0.66
  -1   0  -8   -1.63    0.96
  -1   0  -8   -0.35    0.71
   1   0   8   -0.42    0.74
  -1   0  -8   -0.19    1.13
  -2   0  -8  138.98    8.01
   2   0   8  139.90    8.05
  -2   0  -8  130.52    8.34
  -2   0  -8  136.45    7.79
  -2   0  -8  117.69    8.26
   2   0   8  129.59    7.83
   2   0   8  120.53    8.21
   3   0   8    0.09    0.67
  -3   0  -8   -0.05    0.55
   3   0   8   -0.06    0.71
  -3   0  -8   -0.34    0.77
  -4   0  -8  172.24   10.62
   4   0   8  180.32   10.80
  -4   0  -8  187.60   11.69
  -4   0  -8  165.26   10.35
  -5   0  -8    1.04    0.87
   5   0   8    0.83    0.66
   6   0   8    3.69    0.68
  -6   0  -8    2.72    0.99
  -8   0  -8    0.45    0.30
  -9   0  -8    0.17    0.32
 -10   0  -8    2.80    0.43
 -11   0  -8    0.48    0.36
 -12   0  -8   22.82    1.53
  12   0   8   23.16    1.39
  13   0   8    0.07    0.27
 -13   0  -8    0.44    0.47
 -14   0  -8   12.59    1.25
 -14   0  -8   13.24    0.93
  14   0   8   14.87    0.96
 -15   0  -8   -0.90    0.32
  15   0   8    0.00    0.20
 -18  -1   8    0.90    0.37
  18   1  -8    0.86    0.16
 -17  -1   8    0.64    0.48
 -17   1   8    0.15    0.30
 -17   1   8    0.13    0.42
  17   1  -8    0.76    0.35
 -17   1   8   -0.38    0.61
 -16  -1   8    0.42    0.51
  16   1  -8    0.65    0.35
 -16   1   8    1.72    0.52
  16   1  -8    1.34    0.31
 -16   1   8    0.34    0.52
 -16   1   8    0.47    0.42
 -15  -1   8    8.90    0.85
 -15   1   8    9.34    1.08
  15   1  -8   10.82    0.91
  15   1  -8   11.42    0.90
 -15   1   8    9.71    0.81
 -15   1   8   11.25    1.08
 -14   1   8    1.70    0.53
  14   1  -8    0.67    0.31
 -14   1   8    1.90    0.74
 -14   1   8    1.62    0.53
  13   1  -8   -0.22    0.39
 -13   1   8   -0.11    0.47
 -13   1   8    0.03    0.43
 -12   1   8    9.94    0.79
  12   1  -8    7.89    1.62
  12   1  -8    8.92    0.81
 -12   1   8    5.71    1.66
 -11   1   8    0.69    1.25
  11   1  -8    1.14    1.16
  11   1  -8    1.40    0.40
 -11   1   8    0.42    0.45
 -10   1   8    8.65    1.30
 -10   1   8   10.92    1.62
  10   1  -8    9.94    1.52
 -10   1   8   13.34    1.76
 -10   1   8   11.50    0.95
  10   1  -8   11.02    0.85
  -9   1   8    0.47    1.03
  -9   1   8    1.74    0.81
  -9   1   8    1.07    0.42
   9   1  -8    0.78    0.25
   9   1  -8    0.21    0.70
  -9   1   8    1.10    1.05
   8   1  -8    4.87    1.06
   8   1  -8    6.49    0.83
  -8   1   8    5.00    0.97
   8   1  -8    4.70    1.09
  -8   1   8    5.62    1.18
  -8   1   8    5.94    1.21
  -7   1   8    0.42    0.88
   7   1  -8    2.48    0.71
   7   1  -8    2.27    0.83
  -7   1   8    1.23    0.73
   7   1  -8    2.21    0.67
  -7   1   8    2.77    0.98
  -6   1   8    0.41    0.85
  -6   1   8   -0.78    0.62
   6   1  -8    0.50    0.57
   6   1  -8    0.80    0.79
   6   1  -8    0.97    0.74
  -6   1   8    1.36    0.84
  -5  -1   8    0.02    1.01
   5   1  -8    1.17    0.93
  -5   1   8    1.48    0.52
  -5   1   8    0.69    1.19
   5   1  -8    2.48    0.62
  -5   1   8    2.24    0.89
   5   1  -8    1.08    0.69
   5   1  -8    2.08    0.63
  -5   1   8    1.50    0.82
  -4  -1   8   40.15    3.39
   4  -1  -8   36.43    3.57
  -4   1   8   44.99    2.94
   4   1  -8   41.17    3.48
  -4   1   8   38.52    3.44
   4   1  -8   46.13    3.05
  -4   1   8   44.13    3.12
  -4   1   8   45.62    3.04
   4   1  -8   47.63    2.93
   4   1  -8   43.34    2.92
  -3  -1   8   -0.19    1.01
   3  -1  -8    1.70    1.31
  -3   1   8    2.08    0.84
  -3   1   8    2.33    0.87
   3   1  -8    0.60    0.98
  -3   1   8    1.98    0.69
  -3   1   8    1.99    0.69
   3   1  -8    2.34    0.65
   3   1  -8    1.88    0.74
   3   1  -8    2.01    1.18
   3   1  -8    1.86    0.60
  -2  -1   8    1.29    0.78
   2  -1  -8    2.75    1.34
  -2   1   8    2.76    0.70
   2   1  -8    2.12    0.47
  -2   1   8    2.61    0.91
   2   1  -8    3.44    0.94
   2   1  -8    2.97    0.78
  -2   1   8    1.97    0.67
   2   1  -8    2.03    0.65
  -2   1   8    3.82    0.90
   2   1  -8    0.39    0.77
  -2   1   8    2.35    0.87
   1  -1  -8   28.05    2.74
  -1  -1   8   27.14    2.70
  -1   1   8   33.13    2.29
   1   1  -8   27.17    2.77
   1   1  -8   36.64    2.29
  -1   1   8   36.16    2.25
  -1   1   8   34.17    2.39
  -1   1   8   30.28    2.63
   1   1  -8   32.85    2.23
   1   1  -8   34.91    2.37
   1   1  -8   30.07    2.61
  -1   1   8   30.57    2.51
   0  -1  -8   -0.70    0.80
   0  -1   8    0.44    0.70
   0   1  -8    0.19    0.69
   0   1   8   -0.05    0.43
   0   1  -8    0.17    0.54
   0   1   8    1.34    1.07
   0   1  -8    0.09    0.58
   0   1   8    0.04    0.61
   0   1  -8    0.35    1.07
   0   1   8   -0.10    0.54
   0   1  -8    1.00    0.69
   0   1   8    0.84    0.76
  -1  -1  -8    4.16    1.41
   1  -1   8    2.89    1.16
   1   1   8    2.49    1.16
   1   1   8    2.55    0.85
   1   1   8    2.13    0.75
  -1   1  -8    0.37    1.17
  -1   1  -8    2.73    0.66
  -1   1  -8    2.89    0.82
  -2  -1  -8   -0.74    1.22
  -2   1  -8   -0.59    0.52
   2   1   8    0.74    1.12
   2   1   8   -0.32    0.70
  -2   1  -8   -0.85    1.20
  -2   1  -8    0.73    0.75
   2   1   8    0.73    0.68
   3   1   8    9.37    1.19
  -3   1  -8    9.58    1.19
   3   1   8    7.17    1.11
   3   1   8    6.42    1.48
  -3   1  -8    8.57    0.93
   3   1   8   10.25    1.11
  -3   1  -8    8.93    1.41
  -4   1  -8   45.82    3.37
   4   1   8   48.76    3.35
  -4   1  -8   47.43    3.23
  -4   1  -8   51.61    3.85
   4   1   8   51.91    3.28
   4   1   8   49.20    3.47
   5  -1   8    7.83    0.99
  -5  -1  -8    7.01    1.13
   5   1   8   11.71    1.27
  -5   1  -8    7.97    1.07
  -5   1  -8    8.46    1.43
   5   1   8    8.66    1.15
   5   1   8    8.64    1.19
  -5   1  -8    8.54    1.15
   6   1   8    3.64    0.93
  -6   1  -8    4.96    0.92
   6   1   8    3.89    0.43
  -6   1  -8    3.69    1.24
   6   1   8    2.95    1.03
  -6   1  -8    3.78    0.47
   6   1   8    4.62    0.82
  -6   1  -8    4.21    1.14
  -7   1  -8   23.16    2.23
  -7   1  -8   24.77    1.44
   7   1   8   23.22    1.40
  -7   1  -8   19.55    1.86
  -7   1  -8   23.77    2.44
   7   1   8   22.24    2.06
   8   1   8   25.26    1.58
  -8   1  -8   27.95    1.65
   9   1   8    1.05    0.37
  -9   1  -8    0.88    0.46
  10   1   8   16.08    1.12
 -10   1  -8   16.74    1.21
  11   1   8    0.55    0.28
 -11   1  -8    0.86    0.48
 -12  -1  -8   11.05    0.92
 -12   1  -8   10.08    0.96
 -12   1  -8   10.39    0.95
  12   1   8    9.28    0.75
 -13  -1  -8    0.70    0.35
 -13   1  -8    0.14    0.41
 -13   1  -8   -0.18    0.70
 -13   1  -8    0.63    0.46
  13   1   8    0.49    0.35
 -14  -1  -8    6.99    0.65
 -14   1  -8    5.37    0.71
 -14   1  -8    7.41    0.64
  14   1   8    7.07    0.54
  14   1   8    6.17    0.65
 -14   1  -8    7.50    0.69
  15  -1   8    1.29    0.25
 -15  -1  -8    1.95    0.40
 -15   1  -8    1.31    0.15
 -15   1  -8    1.31    0.34
  15   1   8    1.51    0.26
 -15   1  -8    1.43    0.46
 -17  -2   8    0.59    0.33
 -17   2   8   -0.33    0.51
  17   2  -8    0.80    0.30
  17   2  -8    0.04    0.19
 -17   2   8    1.16    0.63
  17   2  -8    0.24    0.29
  16   2  -8    6.59    0.65
 -16   2   8    5.62    0.66
  16   2  -8    5.25    0.57
 -16   2   8    5.17    0.40
  16   2  -8    5.22    0.46
 -16   2   8    6.81    0.77
  15   2  -8    4.44    0.41
 -15   2   8    4.29    0.44
  15   2  -8    4.24    0.67
  15   2  -8    3.25    0.65
 -15   2   8    3.97    0.80
 -15   2   8    4.65    0.90
  14   2  -8    0.54    0.42
 -14   2   8   -0.04    0.67
 -14   2   8    0.63    0.75
 -14   2   8   -0.07    0.39
  14   2  -8    0.32    0.55
  14   2  -8    0.36    0.40
  13   2  -8    4.24    0.67
  13   2  -8    5.02    0.52
  13   2  -8    4.42    0.70
 -13   2   8    4.45    0.85
 -13   2   8    3.78    0.76
 -13   2   8    3.77    0.44
 -12   2   8    3.27    0.49
  12   2  -8   -0.71    1.37
 -12   2   8    3.46    1.67
  12   2  -8    2.43    0.47
  12   2  -8    2.54    0.62
  12   2  -8    3.45    0.38
 -12   2   8    3.70    0.61
 -12   2   8    2.57    0.70
 -11   2   8    4.16    0.53
 -11   2   8    5.94    0.64
 -11   2   8    4.68    0.66
 -11   2   8    3.86    1.39
 -11   2   8    5.11    1.63
  11   2  -8    5.11    0.51
  11   2  -8    2.62    1.37
 -11   2   8    1.69    0.96
  11   2  -8    5.38    0.66
  11   2  -8    4.87    0.67
 -10   2   8    5.09    1.26
 -10   2   8    2.78    0.52
  10   2  -8    2.26    0.43
 -10   2   8    3.61    0.64
  10   2  -8    2.02    0.84
 -10   2   8    3.09    0.45
  10   2  -8    3.06    0.57
  10   2  -8    3.97    1.33
 -10   2   8    2.03    0.70
 -10   2   8    2.53    0.55
  10   2  -8    2.85    0.41
 -10   2   8    4.08    1.44
  -9   2   8    1.15    0.52
   9   2  -8    2.24    0.37
   9   2  -8    0.50    0.93
   9   2  -8   -0.07    1.08
  -9   2   8    2.81    1.28
  -9   2   8    1.98    0.40
  -9   2   8    1.62    0.83
   9   2  -8    1.85    0.78
   9   2  -8    1.68    0.47
  -9   2   8    2.68    1.06
  -9   2   8    2.03    0.50
  -9   2   8    2.40    0.56
   9   2  -8    2.49    0.49
  -8   2   8    0.14    0.42
   8   2  -8    0.38    0.64
  -8   2   8   -0.37    0.32
   8   2  -8    0.22    0.84
  -8   2   8   -0.25    0.47
  -8   2   8   -0.52    0.70
   8   2  -8    0.20    0.41
   8   2  -8    0.28    0.30
  -8   2   8   -0.55    0.42
   8   2  -8   -0.06    0.71
  -8   2   8    0.42    0.97
   8   2  -8   -0.26    0.37
  -8   2   8    0.06    0.73
  -7   2   8    2.01    0.37
  -7   2   8    2.39    0.78
   7   2  -8    1.74    0.33
   7   2  -8    2.18    0.90
   7   2  -8    3.30    0.73
  -7   2   8    1.43    0.94
  -7   2   8    2.87    1.13
   7   2  -8    3.43    1.06
   6   2  -8   30.57    2.53
   6   2  -8   33.65    2.26
   6   2  -8   32.32    2.36
  -6   2   8   27.99    2.46
  -6   2   8   29.99    2.26
  -6   2   8   29.37    2.42
   5   2  -8   12.41    1.25
  -5   2   8   12.75    1.43
   5   2  -8   12.88    1.44
   5   2  -8   12.57    1.30
  -5   2   8   13.33    1.55
  -5   2   8   12.82    1.31
  -4   2   8   39.58    3.07
  -4   2   8   39.24    2.87
   4   2  -8   40.38    2.99
  -4   2   8   41.81    2.77
   4   2  -8   42.83    2.76
   4   2  -8   41.67    2.78
   3   2  -8   40.86    2.80
  -3   2   8   43.66    2.89
   3   2  -8   40.42    3.02
   3   2  -8   44.23    2.82
  -3   2   8   43.67    2.83
  -3   2   8   39.96    3.07
  -2   2   8   57.55    3.87
   2   2  -8   52.68    3.52
  -2   2   8   56.90    3.61
  -2   2   8   54.27    3.59
   2   2  -8   56.44    3.83
   2   2  -8   57.53    3.57
   1   2  -8    3.07    0.65
  -1   2   8    3.26    0.89
   1   2  -8    4.05    0.86
  -1   2   8    4.15    0.75
   1   2  -8    3.65    0.81
  -1   2   8    3.19    0.84
   0   2   8  328.08   20.78
   0   2  -8  332.90   19.15
   0   2   8  333.90   19.88
   0   2   8  331.40   19.20
   0   2  -8  338.29   20.86
   0   2  -8  345.33   19.86
   0   2   8  347.58   20.26
   1   2   8   -0.02    0.79
  -1   2  -8    0.68    1.03
   1   2   8    1.32    0.67
  -1   2  -8   -0.05    0.51
  -1   2  -8   -0.43    0.68
  -1   2  -8    0.37    0.73
   1   2   8    0.44    0.74
   1   2   8    0.64    0.55
  -2   2  -8   10.22    1.16
  -2   2  -8    7.63    0.89
   2   2   8   10.22    1.13
   2   2   8   10.18    1.19
  -2   2  -8   10.59    1.53
   2   2   8   10.00    1.14
   3   2   8    2.30    0.76
  -3   2  -8    0.88    0.60
  -3   2  -8    1.83    0.85
   3   2   8    0.33    0.82
  -3   2  -8    0.63    0.77
   3   2   8    1.44    0.77
  -4   2  -8    0.73    1.14
   4   2   8   -0.64    0.81
  -4   2  -8   -0.08    0.83
  -4   2  -8    0.61    0.61
   4   2   8   -0.47    0.70
   4   2   8   -0.22    0.72
   5   2   8    0.40    0.40
   5   2   8    0.20    0.74
   5   2   8   -0.12    0.80
   5   2   8   -0.78    0.83
  -5   2  -8   -0.05    0.22
  -5   2  -8    0.23    0.45
  -5   2  -8   -1.51    1.08
  -5   2  -8    0.56    0.43
   5   2   8    0.48    0.27
  -5   2  -8    0.72    0.67
   5   2   8    0.70    0.38
  -5   2  -8    0.30    0.93
  -6   2  -8    8.30    1.44
  -6   2  -8    9.98    1.45
   6   2   8    9.05    1.33
   6   2   8    8.44    0.68
  -6   2  -8    9.43    1.17
  -6   2  -8    8.84    0.79
   6   2   8    9.16    1.25
  -6   2  -8    8.98    0.98
  -6   2  -8    8.90    0.74
  -6   2  -8    9.16    0.76
   6   2   8   10.61    1.25
   6   2   8    9.35    0.86
   7   2   8    5.51    0.49
  -7   2  -8    4.05    0.94
   7   2   8    4.95    0.60
  -7   2  -8    3.86    1.03
   7   2   8    4.59    1.18
   7   2   8    5.70    1.16
  -7   2  -8    4.70    0.51
   7   2   8    4.53    1.07
  -7   2  -8    4.96    0.57
  -7   2  -8    5.48    1.25
  -8   2  -8   -0.37    0.47
  -8   2  -8    0.11    0.90
  -8   2  -8    0.10    0.77
   8   2   8    0.25    0.31
   8   2   8    0.83    0.94
   8   2   8    0.13    0.30
  -8   2  -8    0.52    0.38
  -8   2  -8   -0.49    0.74
   8   2   8    1.37    1.05
  -9   2  -8   12.63    0.96
   9   2   8   12.24    0.81
  -9   2  -8   11.93    1.07
  -9   2  -8   10.32    1.72
   9   2   8   11.92    0.98
  10   2   8   10.12    1.03
 -10   2  -8   11.39    1.08
 -10   2  -8    9.85    0.89
  10   2   8   10.95    0.84
 -11   2  -8    7.05    0.60
  11   2   8    6.03    0.56
  11   2   8    5.55    0.73
 -11   2  -8    7.06    0.87
 -12   2  -8    0.51    0.73
 -12   2  -8    2.15    0.68
  12   2   8    0.67    0.25
 -12   2  -8    0.84    0.36
  12   2   8    0.63    0.36
  13   2   8    0.31    0.39
  13   2   8    0.61    0.29
 -13   2  -8    0.27    0.59
  13   2   8    0.75    0.35
 -13   2  -8    0.95    0.54
 -13   2  -8    0.89    0.25
  14   2   8    6.36    0.69
 -14   2  -8    6.94    0.81
 -14   2  -8    8.16    0.70
  14   2   8    7.22    0.46
  14   2   8    6.62    0.66
  15   2   8    1.96    0.32
 -15   2  -8    1.48    0.32
 -17   3   8   -0.19    0.32
  17   3  -8    0.08    0.26
 -17   3   8   -0.54    0.40
  17   3  -8    0.04    0.23
 -16   3   8   -0.40    0.47
 -16   3   8    0.04    0.52
  16   3  -8    0.64    0.44
  16   3  -8   -0.28    0.49
 -16   3   8   -0.47    0.55
 -15   3   8    0.86    0.80
 -15   3   8    0.02    0.58
  15   3  -8    0.66    0.36
  15   3  -8    0.35    0.17
  15   3  -8    0.51    0.40
 -15   3   8    0.49    0.57
 -14   3   8   12.24    1.32
 -14   3   8   12.20    1.24
  14   3  -8   14.66    1.27
  14   3  -8   13.36    0.84
 -14   3   8   12.27    1.08
 -14   3   8   14.08    1.09
  14   3  -8   12.03    1.14
 -13   3   8    6.34    1.02
 -13   3   8    7.47    0.53
  13   3  -8    8.13    0.65
 -13   3   8   10.13    0.88
 -13   3   8    6.21    0.89
 -13   3   8    8.21    0.86
  13   3  -8    7.42    0.77
  13   3  -8    8.76    0.87
  12   3  -8    3.51    0.40
 -12   3   8    2.66    0.49
 -12   3   8    5.10    0.73
  12   3  -8    2.98    0.60
  12   3  -8    3.20    0.68
 -12   3   8    2.73    0.63
 -12   3   8    2.66    0.37
 -11   3   8   -0.13    0.29
  11   3  -8    0.10    0.22
  11   3  -8    0.10    0.34
 -11   3   8    0.11    0.53
  11   3  -8    1.20    0.58
 -11   3   8    0.01    1.03
 -11   3   8    0.33    0.47
 -11   3   8   -0.87    0.55
  11   3  -8    0.00    0.50
  11   3  -8    1.42    1.49
 -10   3   8    4.48    0.88
  10   3  -8    6.61    0.60
 -10   3   8    8.18    0.79
  10   3  -8    8.05    0.80
 -10   3   8    5.36    1.67
  10   3  -8    4.17    1.27
  10   3  -8    7.05    1.36
  10   3  -8    6.25    1.08
 -10   3   8    6.66    0.60
 -10   3   8    5.65    1.34
  10   3  -8    7.19    0.62
 -10   3   8    6.59    0.76
  10   3  -8    6.25    0.71
 -10   3   8    8.25    0.76
   9   3  -8    4.28    0.48
   9   3  -8    5.14    0.43
  -9   3   8    4.80    0.65
  -9   3   8    4.74    0.52
  -9   3   8    5.41    1.22
  -9   3   8    4.94    0.48
  -9   3   8    3.10    0.90
  -9   3   8    4.76    0.74
   9   3  -8    4.91    0.96
   9   3  -8    5.44    0.66
   9   3  -8    4.87    1.43
   9   3  -8    4.25    0.51
  -9   3   8    4.87    1.58
  -8   3   8   21.15    1.35
   8   3  -8   22.56    1.40
   8   3  -8   21.50    1.41
   8   3  -8   20.74    1.26
   8   3  -8   24.02    1.91
  -8   3   8   19.44    1.70
  -8   3   8   20.22    1.84
  -8   3   8   22.34    1.26
  -8   3   8   20.93    2.07
   8   3  -8   19.94    1.54
   8   3  -8   20.25    2.00
   8   3  -8   23.62    2.40
  -8   3   8   21.49    2.40
  -8   3   8   22.20    1.52
  -7   3   8    1.86    0.71
   7   3  -8    0.39    0.39
   7   3  -8    1.20    1.06
  -7   3   8    0.33    0.31
   7   3  -8    0.97    0.45
  -7   3   8    0.49    0.32
  -7   3   8    0.52    0.43
  -7   3   8    0.18    0.35
  -7   3   8   -0.07    0.82
  -7   3   8   -0.30    0.81
   7   3  -8    0.93    0.26
   7   3  -8    0.92    0.39
   7   3  -8    0.47    0.80
   7   3  -8    0.91    0.68
   6   3  -8   58.09    3.53
   6   3  -8   55.39    3.98
  -6   3   8   50.75    2.87
  -6   3   8   56.11    4.08
  -6   3   8   49.05    2.95
  -6   3   8   54.68    3.21
   6   3  -8   52.97    2.87
   6   3  -8   57.87    3.52
  -6   3   8   53.63    3.56
   6   3  -8   52.77    3.18
   6   3  -8   48.77    2.95
   6   3  -8   53.99    3.37
  -6   3   8   48.11    3.51
  -6   3   8   57.54    3.51
   5   3  -8   42.18    2.69
  -5   3   8   42.44    2.66
  -5   3   8   37.95    2.82
   5   3  -8   38.34    2.36
  -5   3   8   41.93    2.78
   5   3  -8   37.29    3.12
   5   3  -8   35.10    2.10
   5   3  -8   40.44    3.05
  -5   3   8   37.12    2.38
  -5   3   8   36.23    2.10
  -5   3   8   39.22    3.16
   5   3  -8   40.70    2.65
  -4   3   8    4.46    0.90
   4   3  -8    3.78    0.72
  -4   3   8    4.75    0.97
  -4   3   8    3.62    0.71
  -4   3   8    3.70    1.00
   4   3  -8    3.79    0.80
   4   3  -8    3.56    1.12
   4   3  -8    2.54    1.02
   3   3  -8    6.57    0.84
  -3   3   8    6.86    1.14
  -3   3   8    6.43    0.97
  -3   3   8    6.79    1.20
   3   3  -8    5.00    0.86
  -3   3   8    6.55    0.81
   3   3  -8    5.46    1.11
   3   3  -8    5.42    1.31
   2   3  -8   53.69    3.92
  -2   3   8   52.03    3.89
  -2   3   8   53.95    3.87
   2   3  -8   55.12    3.51
   2   3  -8   58.59    3.60
  -2   3   8   53.62    3.55
   2   3  -8   53.54    4.31
  -2   3   8   61.69    3.59
  -1   3   8   24.36    2.20
   1   3  -8   20.15    2.11
  -1   3   8   26.94    1.95
   1   3  -8   25.05    1.86
   1   3  -8   23.92    1.86
  -1   3   8   22.65    1.82
   1   3  -8   26.56    2.35
  -1   3   8   26.81    2.26
   0   3  -8   48.89    3.59
   0   3   8   52.21    3.64
   0   3  -8   51.40    3.23
   0   3  -8   50.68    3.23
   0   3   8   45.37    3.63
   0   3   8   49.55    3.27
   0   3   8   48.94    3.26
   0   3  -8   53.19    4.06
  -1   3  -8   35.88    2.45
   1   3   8   36.81    2.55
  -1   3  -8   37.17    2.60
   1   3   8   35.11    2.85
   1   3   8   36.86    2.89
  -1   3  -8   32.78    3.01
   1   3   8   35.15    2.51
  -1   3  -8   37.23    2.78
   2   3   8    0.06    0.83
  -2   3  -8    0.22    0.52
  -2   3  -8   -1.02    1.11
   2   3   8   -0.16    0.60
   2   3   8    0.85    0.24
  -2   3  -8    0.20    0.27
  -2   3  -8    0.45    0.52
  -2   3  -8    1.30    0.75
   2   3   8    1.14    0.91
   2   3   8    0.87    0.47
  -2   3  -8    0.10    0.26
  -3   3  -8    1.97    0.58
   3   3   8    2.06    0.42
   3   3   8    1.59    0.75
   3   3   8    1.90    0.77
  -3   3  -8    1.71    0.32
  -3   3  -8    2.91    0.70
   3   3   8    2.96    0.42
   3   3   8    1.97    0.80
  -3   3  -8    1.86    1.28
   3   3   8    2.21    0.26
  -3   3  -8    2.26    0.44
  -3   3  -8    2.36    0.29
  -3   3  -8    2.53    0.88
   3   3   8    2.41    0.34
  -4   3  -8   10.00    1.79
   4   3   8    8.85    1.15
   4   3   8    7.63    0.59
   4   3   8    8.85    1.20
  -4   3  -8    8.21    0.67
  -4   3  -8   10.23    1.27
   4   3   8    9.00    1.19
  -4   3  -8    8.36    0.74
   4   3   8    8.76    0.79
  -4   3  -8    8.56    0.70
   4   3   8    7.77    0.78
   4   3   8    7.64    0.83
  -4   3  -8    8.89    0.90
  -4   3  -8   10.77    1.10
  -5   3  -8    4.90    1.28
  -5   3  -8    4.80    0.43
  -5   3  -8    5.19    0.57
  -5   3  -8    6.11    0.61
   5   3   8    4.32    1.05
  -5   3  -8    6.19    0.93
   5   3   8    5.55    1.01
   5   3   8    5.06    0.47
  -5   3  -8    5.22    1.15
   5   3   8    5.13    0.56
   5   3   8    4.32    0.56
   5   3   8    5.17    0.49
   5   3   8    5.34    1.23
  -5   3  -8    4.89    0.72
   6   3   8    4.14    1.25
  -6   3  -8    3.78    1.58
  -6   3  -8    5.52    0.45
  -6   3  -8    4.63    0.92
  -6   3  -8    4.51    1.38
   6   3   8    5.99    1.10
  -6   3  -8    5.03    0.54
   6   3   8    4.14    0.56
   6   3   8    4.33    1.08
   6   3   8    4.92    0.56
   6   3   8    5.19    0.42
  -6   3  -8    4.98    0.51
   6   3   8    4.98    0.66
  -6   3  -8    4.56    0.72
   7   3   8    6.09    1.15
  -7   3  -8    4.92    1.70
  -7   3  -8    8.41    1.13
   7   3   8    7.23    0.70
   7   3   8    6.63    1.26
  -7   3  -8    7.09    0.63
   7   3   8    7.76    1.24
  -7   3  -8   10.02    1.38
   7   3   8    7.05    0.72
  -7   3  -8    8.10    0.80
  -7   3  -8    8.01    0.78
  -7   3  -8    8.06    0.67
   7   3   8    7.21    0.59
  -8   3  -8    8.33    0.84
  -8   3  -8    9.32    0.72
   8   3   8   10.40    0.64
   8   3   8    9.39    0.81
  -8   3  -8    9.33    1.96
  -8   3  -8    9.13    1.54
   8   3   8    9.35    1.31
  -8   3  -8    9.43    0.90
   8   3   8   10.33    0.84
   8   3   8    9.76    1.36
  -8   3  -8    8.44    0.92
   9   3   8    0.71    0.29
  -9   3  -8    0.56    0.53
  -9   3  -8    0.22    0.56
   9   3   8    0.35    0.43
  -9   3  -8    0.62    0.35
   9   3   8    0.78    0.45
  -9   3  -8    1.88    0.62
 -10   3  -8   30.18    2.40
 -10   3  -8   29.69    1.97
 -10   3  -8   27.06    1.87
 -10   3  -8   26.71    1.60
  10   3   8   29.12    1.61
  10   3   8   26.13    1.90
  10   3   8   28.82    2.09
  11   3   8    1.99    0.42
 -11   3  -8    2.16    0.62
  11   3   8    2.00    0.29
 -11   3  -8    1.61    0.82
  11   3   8    2.32    0.66
 -11   3  -8    3.43    0.65
 -12   3  -8    0.22    0.55
 -12   3  -8    0.27    0.56
  12   3   8   -0.21    0.16
 -12   3  -8   -0.12    0.75
  12   3   8   -0.06    0.33
  12   3   8   -0.48    0.56
 -13   3  -8   26.65    1.78
  13   3   8   27.79    1.74
 -13   3  -8   26.55    1.79
 -13   3  -8   28.15    2.19
  13   3   8   27.86    1.95
 -14   3  -8    0.61    0.64
 -14   3  -8    0.97    0.36
  14   3   8    1.10    0.38
  14   3   8    1.77    0.33
 -14   3  -8    0.95    0.36
 -16   4   8    0.77    0.48
  16   4  -8    0.43    0.20
  16   4  -8    1.02    0.30
  16   4  -8    0.60    0.30
 -16   4   8    0.79    0.49
  15   4  -8    0.09    0.34
 -15   4   8   -0.36    0.33
 -15   4   8   -0.09    0.56
  15   4  -8   -0.27    0.37
  15   4  -8    0.24    0.39
 -15   4   8    0.50    0.80
 -14   4   8    0.24    0.42
  14   4  -8    0.38    0.37
 -14   4   8    0.30    0.42
 -14   4   8   -1.18    0.81
  14   4  -8    0.56    0.43
  14   4  -8    1.02    0.46
  13   4  -8    7.09    0.70
  13   4  -8    8.31    0.76
 -13   4   8    5.60    0.79
 -13   4   8    5.60    1.04
  13   4  -8    5.96    0.62
 -13   4   8    6.84    0.71
 -13   4   8    6.23    0.67
  13   4  -8    6.76    0.70
  12   4  -8    4.15    0.79
 -12   4   8    5.69    0.83
  12   4  -8    5.95    0.68
  12   4  -8    5.37    0.66
 -12   4   8    4.83    0.69
 -12   4   8    6.70    0.76
  12   4  -8    5.27    0.77
 -12   4   8    7.19    0.77
 -11   4   8    2.37    0.60
  11   4  -8    2.96    0.54
  11   4  -8    1.89    0.18
  11   4  -8    2.31    0.41
 -11   4   8    2.55    0.61
 -11   4   8    2.27    0.63
  11   4  -8    2.05    0.68
  11   4  -8    2.20    0.68
 -11   4   8    2.67    0.57
 -10   4   8    0.40    0.53
 -10   4   8    1.13    0.50
  10   4  -8    0.96    1.54
 -10   4   8    1.65    0.71
  10   4  -8    0.94    0.48
  10   4  -8    0.15    0.64
  10   4  -8    0.71    0.20
 -10   4   8    0.85    0.72
 -10   4   8    0.28    1.58
  10   4  -8    1.31    0.63
  10   4  -8    0.57    0.46
   9   4  -8    0.59    1.39
  -9   4   8    0.01    1.13
   9   4  -8    0.19    0.30
   9   4  -8    0.13    0.45
   9   4  -8   -0.30    0.17
  -9   4   8    0.71    0.48
  -9   4   8   -0.40    1.48
  -9   4   8   -0.17    0.45
  -9   4   8   -0.37    0.47
   9   4  -8    0.35    0.42
   9   4  -8   -0.28    0.56
  -9   4   8    0.54    0.35
   9   4  -8    0.37    0.92
   8   4  -8    0.40    0.42
  -8   4   8    0.13    0.41
  -8   4   8    0.40    0.61
  -8   4   8   -0.06    0.62
  -8   4   8    0.13    0.38
  -8   4   8    0.37    0.33
   8   4  -8    0.41    0.20
   8   4  -8    0.01    0.38
   8   4  -8    0.24    0.97
   8   4  -8    0.68    0.68
  -8   4   8    1.10    0.90
   8   4  -8    0.23    0.37
   8   4  -8    0.41    0.47
  -8   4   8    0.07    1.42
   8   4  -8    1.48    0.87
  -8   4   8   -0.16    0.47
  -7   4   8   15.97    1.10
  -7   4   8   15.46    2.10
   7   4  -8   14.12    0.84
   7   4  -8   13.81    1.25
   7   4  -8   14.43    1.55
   7   4  -8   17.33    1.42
   7   4  -8   17.74    2.08
  -7   4   8   14.61    1.11
  -7   4   8   16.66    1.40
   7   4  -8   14.27    0.98
  -7   4   8   14.40    1.27
  -7   4   8   15.46    1.44
  -7   4   8   14.53    1.36
   7   4  -8   14.15    1.08
   6   4  -8   13.88    0.93
  -6   4   8   12.07    1.66
   6   4  -8   13.53    1.24
   6   4  -8   15.25    1.87
  -6   4   8   12.93    1.26
  -6   4   8   11.07    1.29
   6   4  -8   11.77    0.98
  -6   4   8   13.93    0.98
  -6   4   8   12.44    1.14
   6   4  -8   12.32    1.40
   6   4  -8   13.82    0.94
  -6   4   8   13.71    1.34
   6   4  -8   11.41    0.99
  -6   4   8   11.93    1.23
  -6   4   8   12.37    0.96
   6   4  -8   11.32    0.70
   6   4  -8   11.49    1.28
   5   4  -8    9.02    1.09
   5   4  -8   10.59    1.22
   5   4  -8    9.20    0.75
  -5   4   8    9.16    1.08
   5   4  -8    9.28    0.89
   5   4  -8    8.82    0.75
  -5   4   8    9.30    0.78
   5   4  -8    9.30    1.54
  -5   4   8    8.49    0.92
  -5   4   8    9.00    0.78
   5   4  -8   10.41    1.03
  -5   4   8    9.43    0.94
  -5   4   8   10.12    1.45
  -5   4   8    9.37    0.97
  -5   4   8    8.10    0.91
   5   4  -8    8.78    0.80
  -4   4   8   28.04    2.14
   4   4  -8   30.83    1.75
  -4   4   8   27.67    2.48
   4   4  -8   24.39    2.56
   4   4  -8   28.32    2.04
  -4   4   8   28.29    2.07
   4   4  -8   30.58    2.18
  -4   4   8   25.88    2.05
  -4   4   8   30.82    1.79
   4   4  -8   28.17    1.65
   4   4  -8   28.38    1.98
  -4   4   8   27.09    1.66
  -4   4   8   28.13    1.98
   4   4  -8   23.64    1.97
  -4   4   8   27.60    2.35
  -4   4   8   27.00    1.98
  -4   4   8   31.67    2.19
   4   4  -8   30.12    2.03
   4   4  -8   25.32    1.84
  -3   4   8   14.22    1.15
  -3   4   8   12.92    0.91
   3   4  -8   15.47    1.46
  -3   4   8   13.81    1.17
   3   4  -8   12.51    0.91
   3   4  -8   11.93    1.16
  -3   4   8   13.12    0.93
  -3   4   8   13.08    1.21
   3   4  -8   12.39    1.19
   3   4  -8   12.76    1.19
  -3   4   8   11.91    1.07
   3   4  -8   12.78    0.89
   3   4  -8   13.02    1.11
   3   4  -8   13.15    1.53
  -3   4   8   13.62    1.55
  -3   4   8   13.71    1.76
   3   4  -8   12.39    1.79
  -3   4   8   12.66    1.20
  -3   4   8   12.32    1.27
   3   4  -8   10.96    1.06
   2   4  -8    7.51    0.83
   2   4  -8    7.63    1.35
  -2   4   8    7.60    1.26
  -2   4   8    7.98    0.88
  -2   4   8    6.56    0.78
  -2   4   8    9.76    0.94
   2   4  -8    8.20    0.72
  -2   4   8    8.62    0.86
  -2   4   8    9.48    1.37
  -2   4   8    7.17    0.68
   2   4  -8    6.46    1.51
  -2   4   8    6.63    0.67
   2   4  -8    8.02    0.87
   2   4  -8    7.37    0.65
   2   4  -8   10.14    0.88
   2   4  -8    6.97    0.99
  -2   4   8    7.56    0.94
  -2   4   8    7.42    0.80
   2   4  -8    7.91    0.87
   2   4  -8    8.36    0.75
  -1   4   8    4.90    0.57
   1   4  -8    4.79    0.68
  -1   4   8    4.16    0.70
   1   4  -8    4.26    0.57
   1   4  -8    4.90    0.79
   1   4  -8    4.79    1.17
   1   4  -8    5.62    0.76
   1   4  -8    6.74    0.82
  -1   4   8    4.67    0.78
  -1   4   8    4.55    0.58
   1   4  -8    4.93    1.44
  -1   4   8    4.70    0.48
  -1   4   8    5.78    0.72
  -1   4   8    3.56    1.16
   1   4  -8    4.95    0.47
  -1   4   8    3.90    0.97
  -1   4   8    5.48    0.68
   1   4  -8    5.69    0.55
  -1   4   8    4.86    0.49
   1   4  -8    5.55    0.65
   0   4   8   -0.11    0.97
   0   4  -8    0.30    0.73
   0   4   8    0.77    0.73
   0   4   8   -0.24    0.55
   0   4  -8    0.63    0.49
   0   4   8    0.32    0.28
   0   4  -8    0.36    0.40
   0   4  -8   -0.09    0.40
   0   4   8    0.35    0.32
   0   4  -8    0.61    0.30
   0   4  -8    0.32    0.95
   0   4   8   -0.21    0.46
   0   4  -8    0.21    0.31
   0   4  -8    0.29    1.27
   0   4   8    0.55    0.46
   0   4  -8   -0.09    0.52
   0   4   8    0.97    0.54
   0   4   8    0.59    0.54
   0   4  -8    0.38    0.59
   1   4   8    3.23    0.71
  -1   4  -8    2.54    1.52
   1   4   8    5.03    0.88
   1   4   8    3.13    0.53
   1   4   8    4.19    0.43
  -1   4  -8    3.85    0.44
   1   4   8    3.56    0.96
  -1   4  -8    3.68    0.58
  -1   4  -8    3.67    0.63
   1   4   8    4.59    0.61
   1   4   8    3.70    1.14
  -1   4  -8    4.19    0.45
   1   4   8    3.64    0.68
   1   4   8    4.81    0.64
  -1   4  -8    3.79    0.66
  -1   4  -8    5.63    0.97
   1   4   8    3.83    0.45
  -1   4  -8    4.33    0.46
  -1   4  -8    3.72    1.12
  -2   4  -8    9.18    1.56
   2   4   8    7.11    0.76
   2   4   8    8.43    0.84
   2   4   8    7.36    0.86
  -2   4  -8    9.06    0.96
  -2   4  -8    6.47    0.75
   2   4   8    8.10    0.95
  -2   4  -8    9.17    0.84
  -2   4  -8    7.29    0.61
   2   4   8    6.95    0.76
  -2   4  -8    7.39    0.80
   2   4   8    7.73    1.41
   2   4   8    8.56    1.13
   2   4   8    7.27    0.67
  -2   4  -8    7.12    0.69
   2   4   8    8.35    0.72
  -2   4  -8    8.92    1.16
  -2   4  -8    7.89    0.72
   3   4   8    9.87    0.98
   3   4   8   10.48    0.96
  -3   4  -8   11.81    1.25
  -3   4  -8    9.16    0.83
   3   4   8   12.01    1.45
  -3   4  -8   10.84    0.95
   3   4   8   10.65    0.76
   3   4   8    9.08    0.87
  -3   4  -8    9.80    1.01
   3   4   8   10.61    0.99
  -3   4  -8   11.24    0.84
   3   4   8   10.33    0.82
  -3   4  -8    9.61    1.05
   3   4   8   13.15    1.35
  -3   4  -8   12.40    1.14
   3   4   8    9.66    1.12
  -3   4  -8    8.90    1.89
  -3   4  -8    9.63    1.04
   4   4   8   42.45    2.59
   4   4   8   43.06    3.00
  -4   4  -8   46.82    2.74
  -4   4  -8   42.80    2.86
  -4   4  -8   43.73    3.73
  -4   4  -8   40.90    2.89
   4   4   8   46.03    3.48
   4   4   8   44.14    2.45
   4   4   8   43.26    3.04
   4   4   8   35.92    2.84
   4   4   8   41.02    2.98
  -4   4  -8   39.13    2.58
  -4   4  -8   43.45    3.18
  -4   4  -8   48.73    3.10
   4   4   8   43.23    2.98
  -4   4  -8   39.40    2.82
  -4   4  -8   44.79    2.44
  -5   4  -8    3.53    0.84
  -5   4  -8    4.60    0.79
   5   4   8    3.10    0.91
   5   4   8    5.24    0.94
  -5   4  -8    5.16    1.77
   5   4   8    4.15    0.51
   5   4   8    3.94    0.73
   5   4   8    4.27    0.69
  -5   4  -8    4.16    0.54
  -5   4  -8    4.08    0.60
  -5   4  -8    3.84    0.63
   5   4   8    4.54    0.50
   5   4   8    5.04    1.35
   5   4   8    3.80    0.30
   6   4   8   26.05    1.96
  -6   4  -8   26.47    3.02
  -6   4  -8   21.86    2.07
   6   4   8   23.26    1.52
   6   4   8   22.39    1.85
   6   4   8   24.49    1.59
   6   4   8   21.39    2.36
  -6   4  -8   22.46    2.02
  -6   4  -8   23.93    2.17
  -6   4  -8   25.96    1.54
   6   4   8   23.41    1.29
   6   4   8   21.16    2.00
  -6   4  -8   22.57    1.61
  -6   4  -8   23.60    1.79
   7   4   8    0.75    0.65
  -7   4  -8    1.28    1.29
   7   4   8    2.52    1.21
  -7   4  -8    0.69    0.64
  -7   4  -8    0.66    0.48
  -7   4  -8    0.46    0.61
   7   4   8    0.66    0.39
  -7   4  -8    1.07    0.38
   7   4   8    0.63    0.42
   7   4   8    1.07    0.16
   7   4   8    0.42    0.38
   8   4   8   14.08    1.11
  -8   4  -8   15.46    1.50
  -8   4  -8   13.40    1.15
   8   4   8   14.98    1.32
  -8   4  -8   15.70    1.18
   8   4   8   13.48    1.12
  -8   4  -8   14.59    1.25
   9   4   8    1.96    0.55
  -9   4  -8    1.79    0.52
  -9   4  -8    1.41    0.66
  -9   4  -8    2.38    0.58
   9   4   8    2.40    0.49
  -9   4  -8    1.93    0.49
 -10   4  -8    0.72    0.55
  10   4   8    0.69    0.53
 -10   4  -8    0.54    0.60
 -10   4  -8    0.12    0.45
  10   4   8   -0.44    0.40
  10   4   8   -1.10    0.60
 -11   4  -8    0.72    0.40
 -11   4  -8    1.07    0.61
  11   4   8    1.63    0.48
  11   4   8    0.93    0.41
  11   4   8    1.59    0.53
 -11   4  -8    0.28    0.57
  12   4   8   -0.57    0.34
  12   4   8    0.10    0.40
 -12   4  -8   -0.13    0.30
  12   4   8    0.58    0.46
 -12   4  -8   -0.10    0.79
 -12   4  -8    0.29    0.39
 -13   4  -8    6.44    0.65
  13   4   8    6.98    0.55
  13   4   8    4.37    0.59
 -13   4  -8    7.27    0.76
  13   4   8    5.46    0.57
 -15   5   8    0.02    0.47
  15   5  -8    0.48    0.27
  15   5  -8   -0.19    0.31
 -15   5   8   -0.22    0.27
  14   5  -8    7.64    0.67
 -14   5   8    7.73    0.68
  14   5  -8    6.55    0.70
  14   5  -8    7.22    0.51
 -14   5   8    8.03    0.87
  13   5  -8    0.50    0.28
  13   5  -8    1.13    0.36
  13   5  -8    1.36    0.64
 -13   5   8    0.89    0.52
 -13   5   8    1.63    0.66
  12   5  -8    5.19    0.66
 -12   5   8    5.36    1.00
  12   5  -8    4.81    0.50
  12   5  -8    4.27    0.60
 -12   5   8    5.44    0.56
 -12   5   8    4.23    0.72
  12   5  -8    5.17    0.60
  11   5  -8   -0.07    0.61
  11   5  -8    0.46    0.37
  11   5  -8    0.70    0.36
 -11   5   8    0.15    0.52
 -11   5   8    1.05    0.86
  11   5  -8    0.40    0.68
 -11   5   8    0.85    0.49
 -10   5   8   36.67    2.04
  10   5  -8   34.68    2.45
 -10   5   8   30.99    2.55
 -10   5   8   35.76    2.60
 -10   5   8   35.45    2.66
  10   5  -8   35.14    2.13
  10   5  -8   32.90    2.32
 -10   5   8   33.56    2.04
  10   5  -8   35.00    2.02
   9   5  -8   13.93    1.01
  -9   5   8   13.33    0.87
  -9   5   8   13.42    1.09
   9   5  -8   13.09    1.04
  -9   5   8   13.66    1.32
  -9   5   8   12.34    1.29
   9   5  -8   13.15    1.41
  -9   5   8   11.96    1.25
   9   5  -8    9.35    1.12
  -8   5   8   -0.46    0.49
   8   5  -8   -0.82    0.68
  -8   5   8    0.32    0.64
   8   5  -8    0.89    1.10
   8   5  -8   -0.65    0.44
  -8   5   8    0.10    0.28
   8   5  -8   -0.08    0.32
   8   5  -8   -0.61    0.42
   8   5  -8    0.18    0.41
  -8   5   8    1.24    1.59
  -8   5   8    0.38    0.71
  -8   5   8    0.32    0.45
  -7   5   8   36.98    2.47
  -7   5   8   38.63    2.87
   7   5  -8   36.77    2.66
   7   5  -8   40.93    2.33
  -7   5   8   37.18    2.75
   7   5  -8   36.87    3.28
  -7   5   8   35.15    3.58
   7   5  -8   40.31    2.72
  -7   5   8   37.82    2.72
   7   5  -8   35.28    2.60
  -7   5   8   37.33    2.28
   7   5  -8   40.08    2.24
   7   5  -8   39.87    2.61
  -7   5   8   39.25    2.25
  -6   5   8   -0.37    0.52
   6   5  -8    0.11    0.35
  -6   5   8    0.47    0.66
   6   5  -8   -0.10    0.65
   6   5  -8    0.05    0.34
   6   5  -8    0.06    0.57
  -6   5   8    0.07    0.39
  -6   5   8   -0.25    0.38
   6   5  -8    0.31    0.58
  -6   5   8    0.08    0.64
  -6   5   8   -0.05    0.97
  -6   5   8    0.51    0.21
   6   5  -8   -0.09    0.47
   6   5  -8    1.07    0.78
   6   5  -8    0.95    1.36
  -6   5   8    0.49    0.65
   5   5  -8    2.47    0.61
   5   5  -8    1.95    0.53
  -5   5   8    1.75    0.46
   5   5  -8    1.83    0.57
  -5   5   8    1.97    0.54
   5   5  -8    2.31    1.40
  -5   5   8    2.38    0.25
  -5   5   8    2.32    0.41
  -5   5   8    1.97    1.41
  -5   5   8    2.84    0.70
   5   5  -8    2.57    0.33
  -5   5   8    1.54    0.52
   5   5  -8    2.18    0.39
  -5   5   8    2.20    0.41
   5   5  -8    2.45    0.72
   5   5  -8    1.46    0.67
   4   5  -8   21.72    1.67
  -4   5   8   22.30    1.41
  -4   5   8   22.84    1.36
   4   5  -8   22.33    1.68
  -4   5   8   22.38    1.82
   4   5  -8   23.16    1.39
   4   5  -8   23.76    1.66
  -4   5   8   22.49    1.88
   4   5  -8   21.58    2.39
  -4   5   8   21.65    1.78
  -4   5   8   19.78    1.71
  -4   5   8   20.83    1.30
   4   5  -8   21.58    1.55
  -4   5   8   19.79    2.40
   4   5  -8   22.51    1.34
  -4   5   8   22.10    1.44
  -3   5   8   11.60    0.85
   3   5  -8   11.96    0.79
   3   5  -8   10.23    1.06
   3   5  -8    9.09    0.75
  -3   5   8   10.47    0.82
   3   5  -8   11.88    1.14
  -3   5   8    9.79    0.66
  -3   5   8   14.33    1.30
   3   5  -8    9.90    0.99
   3   5  -8   10.70    1.17
   3   5  -8   12.84    1.08
  -3   5   8   11.16    1.85
  -3   5   8   10.47    1.16
  -3   5   8   10.73    0.79
  -3   5   8   10.14    1.01
   3   5  -8   13.36    1.83
  -3   5   8   11.51    1.05
   2   5  -8   15.31    1.12
  -2   5   8   12.27    1.25
   2   5  -8   10.88    2.03
   2   5  -8   12.19    1.21
  -2   5   8   13.97    2.02
   2   5  -8   14.66    1.22
   2   5  -8   17.07    1.26
  -2   5   8   15.78    1.48
   2   5  -8   13.49    1.38
  -2   5   8   17.08    1.71
   2   5  -8   14.84    0.96
  -2   5   8   13.21    0.95
  -2   5   8   14.50    1.02
  -2   5   8   15.83    1.05
   2   5  -8   16.18    1.80
  -2   5   8   14.25    1.39
   2   5  -8   14.44    0.95
  -2   5   8   14.28    0.88
   2   5  -8   16.71    1.18
  -2   5   8   13.92    1.32
  -1   5   8    3.20    0.59
  -1   5   8    3.22    0.29
  -1   5   8    3.11    0.49
   1   5  -8    3.69    0.40
   1   5  -8    2.38    0.59
   1   5  -8    3.03    0.59
  -1   5   8    3.03    1.36
   1   5  -8    2.68    0.74
   1   5  -8    3.61    0.53
   1   5  -8    4.38    1.34
   1   5  -8    3.65    0.34
  -1   5   8    3.66    0.41
   1   5  -8    2.90    0.56
  -1   5   8    4.71    0.59
  -1   5   8    3.93    0.99
  -1   5   8    3.72    0.66
  -1   5   8    4.02    0.82
   1   5  -8    5.24    1.60
  -1   5   8    3.73    0.47
   1   5  -8    3.89    0.64
   0   5   8    0.30    0.55
   0   5  -8    1.17    1.51
   0   5   8    0.79    1.14
   0   5   8    0.34    0.88
   0   5  -8   -0.03    0.55
   0   5  -8    0.04    0.20
   0   5  -8    0.71    0.31
   0   5  -8    0.50    0.35
   0   5   8    0.12    0.38
   0   5   8    0.34    0.19
   0   5  -8    0.29    0.35
   0   5  -8    0.06    0.67
   0   5   8    0.83    0.64
   0   5  -8   -0.33    0.50
   0   5  -8    0.87    0.59
   0   5   8    0.63    0.43
   0   5   8   -0.16    0.30
   0   5   8    0.61    0.53
   0   5  -8    0.45    1.15
  -1   5  -8   30.62    2.28
  -1   5  -8   30.65    1.80
   1   5   8   29.84    2.19
   1   5   8   31.57    2.95
  -1   5  -8   30.21    2.63
   1   5   8   32.67    1.87
   1   5   8   33.34    2.07
   1   5   8   27.86    2.17
   1   5   8   32.02    2.28
  -1   5  -8   34.35    3.55
   1   5   8   32.00    2.29
  -1   5  -8   32.12    2.39
  -1   5  -8   31.80    1.99
   1   5   8   29.30    2.04
   1   5   8   31.20    1.82
  -1   5  -8   31.58    2.11
   2   5   8    0.25    0.51
  -2   5  -8    0.33    0.47
  -2   5  -8    0.89    0.34
  -2   5  -8    1.07    0.29
   2   5   8    0.38    0.49
   2   5   8    1.12    0.58
   2   5   8    1.21    0.63
   2   5   8    0.78    0.64
  -2   5  -8    0.61    0.52
   2   5   8    0.67    0.33
  -2   5  -8    0.36    0.57
   2   5   8    3.00    1.29
   2   5   8   -0.64    0.61
   2   5   8    0.46    0.25
  -2   5  -8    1.72    1.71
  -2   5  -8    0.98    0.42
   3   5   8    8.23    0.59
  -3   5  -8    8.03    0.77
  -3   5  -8    8.16    0.73
   3   5   8    7.25    0.92
   3   5   8   10.23    0.99
  -3   5  -8    8.44    0.84
   3   5   8    7.51    0.87
   3   5   8    7.83    0.92
  -3   5  -8    5.74    0.92
  -3   5  -8    6.07    0.85
  -3   5  -8   11.47    2.17
  -3   5  -8    6.56    0.75
  -3   5  -8    6.63    0.57
   3   5   8    4.85    0.80
   3   5   8    7.49    0.82
  -3   5  -8    7.75    0.88
   3   5   8    7.30    0.63
   3   5   8    6.74    1.53
  -4   5  -8   21.97    1.44
   4   5   8   20.75    1.71
  -4   5  -8   26.09    1.67
  -4   5  -8   22.43    2.03
   4   5   8   24.66    1.45
   4   5   8   25.64    1.91
  -4   5  -8   25.85    3.02
   4   5   8   22.36    2.28
  -4   5  -8   21.27    1.67
  -4   5  -8   22.20    1.42
  -4   5  -8   19.95    1.60
   4   5   8   21.40    1.77
   4   5   8   24.99    1.44
  -4   5  -8   23.09    1.78
  -4   5  -8   22.43    1.97
   5   5   8    0.65    0.68
  -5   5  -8    0.82    0.55
  -5   5  -8    0.99    0.35
   5   5   8    0.45    1.20
  -5   5  -8    1.10    0.41
  -5   5  -8    1.06    1.34
   5   5   8    0.37    0.32
  -5   5  -8   -0.28    0.81
  -5   5  -8    0.92    0.31
   5   5   8    0.27    0.38
   5   5   8    1.12    0.65
   5   5   8    0.53    0.29
   6   5   8   10.25    1.05
  -6   5  -8    9.17    0.88
   6   5   8   10.37    0.83
   6   5   8   10.34    1.12
  -6   5  -8   10.37    1.04
   6   5   8   10.17    0.86
  -6   5  -8    8.60    1.27
  -6   5  -8   10.05    0.75
   6   5   8   10.08    1.57
  -6   5  -8   10.81    1.03
  -7   5  -8    5.09    0.47
  -7   5  -8    4.66    0.56
   7   5   8    5.19    0.49
   7   5   8    4.30    0.55
  -7   5  -8    4.34    1.06
   7   5   8    5.47    0.88
  -7   5  -8    4.34    0.72
   7   5   8    3.93    0.61
  -7   5  -8    4.90    0.58
  -8   5  -8    3.52    0.56
  -8   5  -8    3.27    0.79
   8   5   8    2.66    0.60
   8   5   8    3.41    0.41
   8   5   8    3.05    0.63
  -8   5  -8    3.25    0.34
  -8   5  -8    2.69    0.79
   9   5   8   19.24    1.26
  -9   5  -8   20.04    1.38
   9   5   8   19.88    1.26
  -9   5  -8   20.46    1.77
   9   5   8   19.25    1.58
  -9   5  -8   17.85    1.51
  10   5   8    2.38    0.55
 -10   5  -8    3.74    0.76
 -10   5  -8    3.39    0.57
  10   5   8    3.69    0.44
  10   5   8    2.77    0.35
  11   5   8    4.09    0.44
  11   5   8    3.64    0.36
 -11   5  -8    3.69    0.71
 -11   5  -8    4.71    0.48
  11   5   8    3.76    0.57
 -12   5  -8   -0.12    0.41
  12   5   8    0.65    0.27
 -12   5  -8    1.00    0.75
  12   5   8   -0.14    0.34
 -14   6   8    6.61    0.72
  14   6  -8    5.91    0.53
 -13   6   8    9.50    0.67
 -13   6   8    8.94    0.97
  13   6  -8    8.93    0.84
  12   6  -8    0.49    0.38
 -12   6   8    0.24    0.61
  12   6  -8    0.33    0.62
 -12   6   8    0.23    0.31
  11   6  -8    4.73    0.67
 -11   6   8    4.31    0.59
  11   6  -8    4.28    0.61
 -11   6   8    5.25    0.80
  11   6  -8    3.87    0.49
 -11   6   8    4.62    0.48
 -11   6   8    3.79    0.68
 -10   6   8    0.53    0.65
  10   6  -8    1.18    0.66
 -10   6   8    0.38    0.48
  10   6  -8    1.38    0.64
  10   6  -8    0.10    0.39
 -10   6   8    1.19    0.62
 -10   6   8   -0.35    0.36
  -9   6   8    0.77    0.76
   9   6  -8    0.77    0.69
   9   6  -8    1.60    0.52
   9   6  -8    0.86    0.40
   9   6  -8    0.06    0.70
  -9   6   8    1.14    0.38
  -9   6   8    0.21    0.73
  -9   6   8    0.60    0.84
  -8   6   8    0.06    0.76
   8   6  -8    0.12    0.37
   8   6  -8    0.52    0.67
   8   6  -8    0.10    0.75
  -8   6   8    0.51    0.60
   8   6  -8    0.44    0.38
  -8   6   8   -0.12    0.35
  -8   6   8    1.36    0.76
   7   6  -8    0.35    0.35
  -7   6   8    0.36    0.76
   7   6  -8    0.84    0.79
  -7   6   8    0.13    0.75
  -7   6   8    0.58    0.34
  -7   6   8    0.09    0.55
   7   6  -8    0.87    0.49
   7   6  -8    0.38    0.39
   6   6  -8   47.92    3.33
  -6   6   8   52.56    3.53
  -6   6   8   52.25    3.49
  -6   6   8   49.55    2.82
  -6   6   8   49.08    3.62
   6   6  -8   51.20    2.84
   6   6  -8   53.75    3.51
   6   6  -8   49.90    3.47
   5   6  -8    0.57    1.38
   5   6  -8    0.42    0.31
   5   6  -8    0.77    0.44
   5   6  -8    0.33    0.53
   5   6  -8    1.22    0.47
  -5   6   8    1.18    0.57
  -5   6   8    2.06    1.62
  -5   6   8    1.03    0.75
  -5   6   8    1.12    0.73
  -5   6   8    1.20    0.30
  -4   6   8    2.25    0.35
  -4   6   8    2.11    1.18
  -4   6   8    1.59    0.71
   4   6  -8    1.64    0.64
   4   6  -8    2.15    0.35
  -4   6   8    1.83    0.61
   4   6  -8    1.53    0.62
  -4   6   8    1.50    0.77
   4   6  -8    1.80    0.60
   4   6  -8    3.24    1.19
  -4   6   8    3.11    0.65
  -3   6   8    5.20    1.28
  -3   6   8    2.44    0.36
  -3   6   8    1.76    0.67
   3   6  -8    2.48    0.68
  -3   6   8    2.75    0.73
   3   6  -8    3.03    0.53
  -3   6   8    3.03    0.87
  -3   6   8    2.99    0.61
   3   6  -8    2.51    0.66
   3   6  -8    1.16    1.08
   3   6  -8    2.76    0.62
   3   6  -8    2.75    0.35
   2   6  -8    0.19    0.43
  -2   6   8    0.35    0.24
  -2   6   8    0.31    0.47
  -2   6   8   -0.50    0.46
   2   6  -8   -0.03    0.25
   2   6  -8    0.07    0.67
   2   6  -8    0.69    0.72
   2   6  -8   -0.14    0.92
   2   6  -8   -0.49    0.55
  -2   6   8    0.08    0.83
  -2   6   8    0.79    1.04
  -2   6   8    0.04    0.44
  -1   6   8    0.24    0.69
  -1   6   8    1.00    0.26
   1   6  -8    0.75    0.31
  -1   6   8    0.13    0.61
  -1   6   8   -1.80    0.92
   1   6  -8    0.87    0.58
   1   6  -8    0.93    0.78
   1   6  -8    1.03    0.63
   1   6  -8    0.65    0.52
  -1   6   8    0.52    0.85
  -1   6   8    1.34    0.72
  -1   6   8    1.04    0.87
   1   6  -8    1.48    1.40
   0   6  -8   20.62    1.89
   0   6  -8   14.21    2.18
   0   6   8   18.13    1.67
   0   6  -8   24.30    1.69
   0   6   8   20.78    1.83
   0   6   8   17.70    2.08
   0   6   8   22.79    1.78
   0   6  -8   19.94    1.60
   0   6   8   20.59    1.24
   0   6  -8   19.47    1.21
   0   6  -8   20.73    1.47
  -1   6  -8   17.38    1.06
   1   6   8   15.42    1.48
  -1   6  -8   16.21    1.75
  -1   6  -8   16.32    1.37
  -1   6  -8   15.83    1.39
  -1   6  -8   18.95    2.48
   1   6   8   16.58    1.59
   1   6   8   17.66    1.50
   1   6   8   17.56    1.07
   1   6   8   12.02    2.01
   2   6   8   14.05    1.22
  -2   6  -8   12.72    1.03
   2   6   8   12.63    1.28
  -2   6  -8    8.27    2.33
   2   6   8   12.12    1.23
  -2   6  -8   13.06    0.89
   2   6   8   13.00    0.90
   2   6   8   11.51    1.11
   2   6   8    9.02    1.83
  -2   6  -8   12.69    1.32
  -2   6  -8   12.86    1.34
  -3   6  -8    0.19    0.60
  -3   6  -8    0.06    0.55
   3   6   8    0.06    0.80
   3   6   8    0.55    0.72
  -3   6  -8    0.20    0.44
   3   6   8   -0.95    0.57
  -3   6  -8    0.23    0.29
   3   6   8    0.14    0.54
   3   6   8    0.47    0.35
  -3   6  -8   -0.19    0.49
  -4   6  -8    1.29    0.58
   4   6   8    1.82    0.74
   4   6   8    0.78    0.69
  -4   6  -8    0.77    0.38
   4   6   8    0.90    0.31
   4   6   8    1.01    0.40
  -4   6  -8    1.04    0.57
  -4   6  -8    0.65    0.63
  -4   6  -8    0.70    0.63
  -5   6  -8    8.42    1.12
  -5   6  -8    7.84    1.14
   5   6   8    7.52    0.80
   5   6   8    8.74    0.70
  -5   6  -8    7.73    0.86
  -5   6  -8    8.71    0.73
   5   6   8    8.34    0.89
   5   6   8    7.48    0.89
   6   6   8   11.21    1.04
  -6   6  -8   12.02    0.86
   6   6   8   10.50    1.15
  -6   6  -8   11.65    1.11
   6   6   8   10.87    1.10
  -6   6  -8    9.00    0.97
   6   6   8   12.02    0.85
  -6   6  -8    9.30    1.34
  -7   6  -8   -0.05    0.53
   7   6   8    1.05    0.54
   7   6   8    0.82    0.44
   7   6   8    0.92    0.37
  -7   6  -8    1.44    0.96
  -7   6  -8    0.80    0.54
  -7   6  -8    0.44    0.35
  -8   6  -8    4.04    0.47
   8   6   8    4.47    0.41
   8   6   8    1.88    0.60
  -8   6  -8    2.76    0.77
  -8   6  -8    4.92    0.52
   8   6   8    4.42    0.82
  -8   6  -8    3.76    0.67
   9   6   8    1.08    0.66
  -9   6  -8    0.44    0.90
  -9   6  -8    0.28    0.34
  -9   6  -8    0.79    0.45
   9   6   8   -0.12    0.33
  10   6   8    6.60    0.81
 -10   6  -8    6.69    0.71
  10   6   8    6.98    0.53
 -10   6  -8    7.26    0.60
 -11   6  -8    1.56    0.21
  11   6   8    1.71    0.28
 -11   6  -8    1.57    0.56
  11   6   8    1.08    0.40
  12   7  -8   21.26    1.44
 -11   7   8   -0.01    0.54
  11   7  -8    0.55    0.43
 -11   7   8   -0.85    0.50
  10   7  -8   22.84    1.54
 -10   7   8   22.86    1.68
  10   7  -8   20.10    1.20
  -9   7   8   14.94    1.34
  -9   7   8   14.72    1.24
   9   7  -8   15.24    1.31
  -9   7   8   15.27    1.39
   9   7  -8   14.60    1.20
   9   7  -8   14.26    0.87
   9   7  -8   13.88    1.16
  -8   7   8    6.71    0.94
  -8   7   8    6.77    1.06
   8   7  -8    5.05    0.76
   8   7  -8    8.13    0.54
   8   7  -8    8.11    0.73
  -8   7   8    6.72    1.00
   8   7  -8    7.28    0.76
  -7   7   8    0.91    0.82
   7   7  -8   -0.06    0.65
  -7   7   8   -0.68    0.78
   7   7  -8    0.61    0.23
  -7   7   8    0.13    0.75
   7   7  -8    1.18    0.60
   7   7  -8    0.33    0.76
  -6   7   8    1.30    0.85
   6   7  -8    1.35    0.46
   6   7  -8    1.00    0.58
  -6   7   8    0.58    0.77
   6   7  -8    1.07    0.66
   6   7  -8    1.19    0.22
  -6   7   8    0.89    0.62
   5   7  -8    1.11    0.66
   5   7  -8    0.04    0.44
   5   7  -8   -0.27    0.14
  -5   7   8   -0.54    0.84
   5   7  -8    1.37    0.80
  -5   7   8   -0.27    0.80
  -5   7   8    0.17    0.53
   4   7  -8    2.14    0.64
   4   7  -8    1.09    0.48
   4   7  -8    1.80    0.52
  -4   7   8    0.81    0.75
  -4   7   8    1.17    0.88
  -4   7   8    2.15    0.62
  -3   7   8    1.34    0.81
  -3   7   8    1.63    0.65
   3   7  -8    1.46    0.62
   3   7  -8    0.57    0.65
  -3   7   8    1.55    0.71
  -3   7   8    1.52    0.88
   3   7  -8    1.73    0.49
  -2   7   8    1.10    0.69
  -2   7   8    0.78    0.70
   2   7  -8    0.57    0.61
   2   7  -8    0.36    0.55
   2   7  -8    0.19    0.69
  -2   7   8    0.04    0.76
   2   7  -8    0.41    0.46
  -1   7   8    2.46    0.80
  -1   7   8    1.68    0.59
   1   7  -8    1.50    0.77
  -1   7   8    1.50    0.53
   1   7  -8    2.55    0.71
   1   7  -8    1.67    0.60
   1   7  -8    0.68    0.61
   0   7  -8    0.35    0.60
   0   7   8    0.14    0.75
   0   7   8    0.69    0.64
   0   7   8    0.29    0.55
   0   7  -8    0.01    0.59
   0   7  -8   -0.10    0.49
   1   7   8    2.27    0.87
   1   7   8    2.39    0.65
   1   7   8    2.13    0.67
  -1   7  -8    2.91    0.59
  -1   7  -8    2.39    0.51
  -1   7  -8    3.73    0.76
   2   7   8   10.86    1.00
   2   7   8    6.90    0.92
   2   7   8    8.45    1.10
  -2   7  -8    8.77    0.97
  -2   7  -8    7.08    1.18
  -2   7  -8    9.43    0.90
   3   7   8   15.20    1.32
   3   7   8   17.19    1.66
  -3   7  -8   16.80    1.37
  -3   7  -8   15.91    1.56
   3   7   8   17.54    1.46
  -3   7  -8   16.89    1.39
   4   7   8    4.46    0.77
   4   7   8    3.62    0.83
   4   7   8    4.28    0.31
   4   7   8    4.05    0.67
  -4   7  -8    3.20    0.74
  -4   7  -8    4.83    0.77
   5   7   8   17.46    1.49
   5   7   8   18.90    1.04
  -5   7  -8   17.07    1.54
   5   7   8   19.62    1.70
  -5   7  -8   18.43    1.44
   5   7   8   18.68    1.40
  -5   7  -8   19.57    1.60
  -6   7  -8   16.51    1.61
  -6   7  -8   13.69    1.51
   6   7   8   14.33    1.45
   6   7   8   15.20    1.30
   6   7   8   15.44    0.87
   6   7   8   14.90    1.16
  -6   7  -8   15.71    1.21
  -7   7  -8    1.50    0.58
   7   7   8    1.34    0.51
   7   7   8    1.53    0.19
   7   7   8    0.63    0.58
  -7   7  -8    0.52    0.55
  -7   7  -8    1.54    0.41
   8   7   8   12.44    1.20
  -8   7  -8   14.21    1.28
   8   7   8   12.14    1.01
  -8   7  -8   12.23    1.18
  -9   7  -8    1.30    0.40
   9   7   8    0.66    0.52
  -9   7  -8    1.34    0.50
  -9   8   8    2.90    0.49
   8   8  -8    2.32    0.39
  -8   8   8    2.54    0.53
  -8   8   8    3.41    0.63
   8   8  -8    4.18    0.54
  -8   8   8    3.41    0.58
  -7   8   8    1.39    0.58
   7   8  -8    1.72    0.58
   7   8  -8    1.80    0.66
  -7   8   8    2.18    0.85
  -7   8   8    1.98    0.47
   7   8  -8    1.45    0.42
  -6   8   8   -0.58    0.63
  -6   8   8   -0.47    0.53
   6   8  -8   -0.43    0.39
  -6   8   8    0.50    0.59
   6   8  -8   -0.32    0.44
   6   8  -8    0.66    0.46
  -5   8   8    0.35    0.70
  -5   8   8    1.07    0.59
   5   8  -8    0.49    0.47
   5   8  -8    1.54    0.55
   5   8  -8    0.92    0.59
  -4   8   8    6.75    0.76
   4   8  -8    5.23    0.63
   4   8  -8    4.19    0.75
  -4   8   8    4.06    0.72
   4   8  -8    5.96    0.91
  -3   8   8    3.74    0.62
   3   8  -8    3.36    0.66
   3   8  -8    3.50    0.56
  -3   8   8    3.86    0.68
   2   8  -8   14.80    1.35
  -2   8   8   15.62    1.33
   2   8  -8   16.91    1.37
  -2   8   8   15.85    1.45
  -2   8   8   14.77    1.33
   1   8  -8   12.69    1.32
   1   8  -8    9.27    1.07
  -1   8   8   10.59    1.11
  -1   8   8   11.81    1.09
  -1   8   8   11.63    1.07
   1   8  -8   11.16    0.98
   0   8   8    3.36    0.67
   0   8  -8    1.86    0.47
   0   8   8    2.20    0.65
   0   8   8   -0.42    0.75
   0   8  -8    2.70    0.61
   0   8  -8    2.36    0.57
  -1   8  -8    0.84    0.66
   1   8   8   -0.18    0.75
  -1   8  -8    0.30    0.57
  -1   8  -8   -0.15    0.41
   1   8   8    0.77    0.43
   2   8   8    0.88    0.55
  -2   8  -8    1.20    0.43
  -2   8  -8    0.48    0.59
   2   8   8    0.44    0.40
  -2   8  -8   -0.03    0.45
   3   8   8    7.54    0.73
   3   8   8    7.05    0.93
  -3   8  -8    5.03    0.68
  -3   8  -8    4.83    0.98
  -4   8  -8    2.32    0.65
  -4   8  -8    2.35    0.65
   4   8   8    2.36    0.56
   4   8   8    3.18    0.48
   4   8   8    2.19    0.75
  -5   8  -8    2.78    0.67
   5   8   8    4.89    0.55
   5   8   8    5.33    0.66
   5   8   8    6.79    0.58
  -5   8  -8    5.37    0.59
  -6   8  -8    0.25    0.45
   6   8   8   -0.13    0.30
   6   8   8    0.64    0.37
  -7   8  -8    0.03    0.36
  -5   9   8    1.25    0.40
   5   9  -8    1.28    0.35
  -4   9   8    0.28    0.33
   3   9  -8    4.21    0.56
  -3   9   8    6.46    0.62
  -2   9   8    1.04    0.37
   2   9  -8    1.59    0.47
  -1   9   8   -0.23    0.33
   1   9  -8    0.13    0.43
  -1   9   8    0.27    0.32
   0   9  -8    0.19    0.56
   0   9   8    0.73    0.35
   0   9   8    1.07    0.53
  -1   9  -8    4.08    0.51
   1   9   8    2.28    0.49
   1   9   8    2.95    0.44
   2   9   8   22.26    1.55
  18   0  -9    0.16    0.19
 -18   0   9   -0.06    0.24
 -17   0   9    1.69    0.44
  17   0  -9    1.35    0.30
 -16   0   9   -0.67    0.33
  16   0  -9    0.31    0.29
 -15   0   9   11.68    1.04
  15   0  -9   10.59    0.92
 -14   0   9   -0.47    0.35
 -13   0   9   17.95    1.22
 -12   0   9    0.19    0.49
 -11   0   9   51.48    2.96
 -10   0   9   -0.61    0.92
 -10   0   9    0.26    0.44
  -9   0   9    6.52    1.21
  -8   0   9   -0.44    0.75
  -7   0   9   -0.87    0.62
  -6   0   9    0.32    0.62
  -6   0   9    1.22    0.92
  -5   0   9    7.71    1.00
  -5   0   9    5.81    0.88
  -5   0   9    7.32    1.18
  -4   0   9    0.26    0.48
  -4   0   9    0.05    0.80
  -4   0   9    0.60    0.50
   4   0  -9   -0.25    0.38
   4   0  -9    0.10    0.72
  -3   0   9   14.65    1.45
  -3   0   9   13.16    1.18
   3   0  -9   13.58    1.31
   3   0  -9    5.85    1.39
  -3   0   9   10.22    1.44
   3   0  -9   13.89    1.13
   2   0  -9    0.07    0.73
  -2   0   9    0.21    0.66
  -2   0   9    0.42    0.90
   2   0  -9    0.96    1.16
  -2   0   9    0.23    0.78
   2   0  -9   -0.51    0.50
  -1   0   9    2.09    0.87
   1   0  -9    2.89    1.27
   1   0  -9    2.21    0.83
  -1   0   9    2.95    0.78
  -1   0   9    3.07    1.10
   1   0  -9    3.46    0.69
   0   0  -9    0.03    0.37
   0   0  -9   -0.71    0.71
   0   0   9   -0.53    0.75
   0   0  -9   -0.45    1.11
   0   0   9   -0.59    0.83
   0   0   9    0.25    0.49
   1   0   9   29.69    2.12
   1   0   9   28.76    2.30
  -1   0  -9   28.63    2.06
  -1   0  -9   28.78    2.24
  -2   0  -9    0.31    0.56
  -2   0  -9   -0.47    0.51
  -4   0  -9   -0.16    0.90
   4   0   9   -0.26    0.71
  -5   0  -9    0.05    0.92
   5   0   9    1.08    0.53
  -6   0  -9   -0.86    0.89
  -7   0  -9    9.06    0.76
  -8   0  -9   -0.06    0.31
  -9   0  -9   34.50    2.03
 -10   0  -9    0.09    0.34
  11   0   9    3.56    0.42
 -11   0  -9    4.14    0.49
 -12   0  -9   -0.19    0.48
  12   0   9   -0.02    0.25
  13   0   9    9.49    0.79
 -13   0  -9    9.20    0.74
 -14   0  -9   -0.01    0.26
 -14   0  -9   -0.34    0.36
  14   0   9   -0.23    0.26
  14   0   9    0.08    0.22
  15   0   9    0.13    0.17
 -15   0  -9    0.13    0.21
  18   1  -9    8.77    0.56
 -17  -1   9    7.41    0.68
  17   1  -9    9.02    0.66
 -17   1   9    7.68    0.58
 -17   1   9    7.59    0.77
 -16  -1   9   12.91    1.08
 -16   1   9   13.01    1.10
 -16   1   9   11.25    1.25
  16   1  -9   13.90    0.98
 -16   1   9   14.41    0.98
 -15  -1   9    3.03    0.48
 -15   1   9    3.86    0.59
 -15   1   9    4.48    0.65
  15   1  -9    4.24    0.52
 -15   1   9    4.03    0.56
 -14   1   9    0.90    0.62
 -14   1   9   -0.26    0.34
  14   1  -9   -0.32    0.40
 -14   1   9    0.23    0.48
 -13   1   9    1.45    0.55
 -13   1   9    0.89    0.60
 -13   1   9    0.61    0.37
  13   1  -9    0.48    0.42
  12   1  -9    2.23    0.43
 -12   1   9    1.51    0.52
 -12   1   9    1.06    0.44
 -12   1   9    1.34    1.03
  11   1  -9   -0.40    0.25
  11   1  -9    0.70    1.08
 -11   1   9    0.51    0.34
 -11   1   9   -0.37    1.22
 -10   1   9    1.15    0.85
  10   1  -9    0.41    0.35
 -10   1   9   -0.03    0.31
  10   1  -9    0.08    0.99
  -9   1   9    5.14    0.88
  -9   1   9    3.94    1.25
   9   1  -9    6.45    1.20
   9   1  -9    4.20    0.49
  -9   1   9    6.55    0.60
  -9   1   9    4.52    1.23
   8   1  -9   20.03    1.97
  -8   1   9   17.90    1.28
  -8   1   9   20.66    2.00
  -8   1   9   22.18    2.13
   8   1  -9   19.43    1.22
  -8   1   9   22.24    1.89
   7   1  -9   44.67    3.16
  -7   1   9   46.20    3.47
  -7   1   9   47.23    3.37
   7   1  -9   47.34    3.37
   7   1  -9   46.85    3.15
  -7   1   9   45.23    3.21
  -6   1   9   16.29    1.79
   6   1  -9   18.52    1.79
   6   1  -9   18.85    1.70
  -6   1   9   16.08    1.63
  -6   1   9   18.99    1.81
   6   1  -9   17.85    1.57
  -5   1   9    1.68    0.77
  -5   1   9    1.16    0.93
   5   1  -9    2.65    0.69
   5   1  -9    1.47    0.72
   5   1  -9    1.71    0.62
  -5   1   9    2.16    0.73
   4   1  -9    4.97    0.93
   4   1  -9    4.70    0.80
  -4   1   9    3.99    0.86
  -4   1   9    4.57    0.85
   4   1  -9    2.71    1.46
  -4   1   9    4.57    1.05
   4   1  -9    4.56    0.78
   3   1  -9    2.41    0.54
   3   1  -9    3.19    0.84
   3   1  -9    3.67    1.36
  -3   1   9    4.11    0.81
  -3   1   9    3.47    0.95
  -3   1   9    2.82    0.75
  -3   1   9    0.85    1.22
   3   1  -9    3.15    0.83
  -2  -1   9   21.63    2.51
  -2   1   9   25.67    2.55
  -2   1   9   30.83    2.20
  -2   1   9   31.03    2.18
   2   1  -9   28.29    2.18
   2   1  -9   33.10    2.12
  -2   1   9   30.08    2.15
   2   1  -9   28.24    2.14
   2   1  -9   22.68    2.57
  -1   1   9   37.49    2.61
   1   1  -9   34.85    2.51
  -1   1   9   35.59    2.51
  -1   1   9   32.81    3.13
   1   1  -9   28.39    3.04
   1   1  -9   36.25    2.45
   1   1  -9   35.41    2.52
  -1   1   9   35.74    2.56
   0   1   9   29.19    2.14
   0   1   9   23.87    2.62
   0   1  -9   33.14    2.15
   0   1   9   26.20    2.22
   0   1  -9   28.35    2.07
   0   1   9   29.06    2.18
   0   1  -9   23.56    2.56
   0   1  -9   25.24    2.16
   1   1   9   -1.54    1.11
  -1   1  -9   -0.17    0.38
   1   1   9    0.69    0.80
  -1   1  -9    0.55    0.75
   1   1   9   -0.72    0.66
  -2   1  -9    5.68    0.87
   2   1   9    5.87    1.00
  -2   1  -9    6.74    1.03
   2   1   9    4.99    0.85
   3   1   9   11.75    1.29
  -3   1  -9    9.87    1.18
  -3   1  -9   11.18    1.61
  -3   1  -9   10.25    1.17
   3   1   9   10.52    1.33
   3   1   9   11.36    1.34
   4   1   9    7.04    1.08
  -4   1  -9    7.28    0.98
  -4   1  -9    7.39    1.23
   4   1   9    7.53    1.15
  -4   1  -9    4.20    1.29
   4   1   9    5.84    0.95
  -5  -1  -9    8.75    1.33
   5   1   9   12.43    1.42
  -5   1  -9   12.52    1.40
   5   1   9   11.77    1.54
   5   1   9   14.55    1.48
   5   1   9   10.60    0.84
  -5   1  -9   12.26    1.29
  -5   1  -9   12.22    1.71
  -5   1  -9    9.85    0.85
   6   1   9    1.00    0.85
   6   1   9    0.44    0.33
  -6   1  -9    1.14    1.07
  -6   1  -9    0.63    0.81
  -6   1  -9    0.04    0.26
  -6   1  -9   -0.09    0.66
   7   1   9    0.92    0.35
  -7   1  -9    0.54    0.41
  -7   1  -9    0.05    1.10
  -8   1  -9    0.27    0.43
   8   1   9    1.15    0.38
  -9   1  -9    6.20    0.62
   9   1   9    4.46    0.53
 -10   1  -9    0.60    0.46
  10   1   9    0.33    0.36
 -11   1  -9    8.69    0.74
 -11   1  -9    8.65    0.88
  11   1   9    7.66    0.67
 -12  -1  -9    2.08    0.41
  12   1   9    0.97    0.38
 -12   1  -9    1.57    0.35
 -12   1  -9    2.33    0.50
 -13  -1  -9    1.25    0.48
  13   1   9    1.49    0.37
 -13   1  -9    1.47    0.30
 -13   1  -9    1.41    0.53
 -13   1  -9    1.16    0.46
 -14  -1  -9    0.38    0.30
 -14  -1  -9   -0.05    0.33
  14  -1   9    0.62    0.23
 -14   1  -9    0.18    0.42
  14   1   9    0.38    0.28
 -14   1  -9    0.29    0.49
  14   1   9    0.61    0.41
 -14   1  -9    0.51    0.24
 -17  -2   9   -0.47    0.30
  17   2  -9    0.28    0.16
 -17   2   9   -0.10    0.49
  17   2  -9   -0.40    0.27
 -17   2   9    0.09    0.34
  16   2  -9    2.95    0.44
 -16   2   9    2.89    0.72
  16   2  -9    2.82    0.34
 -16   2   9    3.06    0.67
 -15   2   9   10.49    1.11
 -15   2   9   11.43    0.82
  15   2  -9   11.92    1.09
 -15   2   9   12.52    1.06
  15   2  -9   14.42    1.12
  15   2  -9   13.85    0.90
 -14   2   9    6.31    0.57
  14   2  -9    6.40    0.59
  14   2  -9    4.41    0.72
  14   2  -9    6.58    0.73
 -14   2   9    7.83    0.94
 -14   2   9    6.38    0.74
  13   2  -9    2.04    0.58
  13   2  -9    1.77    0.59
  13   2  -9    2.25    0.34
 -13   2   9    3.04    0.48
 -13   2   9    2.01    0.54
 -13   2   9    2.96    0.59
 -12   2   9    0.38    0.63
 -12   2   9    1.43    1.14
  12   2  -9   -0.26    0.36
 -12   2   9   -0.01    0.42
 -12   2   9    0.23    0.64
  12   2  -9    1.40    1.08
  12   2  -9   -0.33    0.37
  12   2  -9   -0.25    0.52
  11   2  -9    3.87    0.50
  11   2  -9    2.65    0.60
  11   2  -9    3.10    1.12
 -11   2   9    0.67    1.43
 -11   2   9    3.65    0.71
  11   2  -9    3.35    0.46
 -11   2   9    3.12    0.68
 -11   2   9    3.47    0.50
 -11   2   9    2.44    1.34
  10   2  -9    7.28    0.74
 -10   2   9    4.63    1.06
  10   2  -9    7.99    0.68
 -10   2   9    4.95    1.16
  10   2  -9    6.34    0.74
 -10   2   9    8.37    0.74
  10   2  -9    5.43    1.31
  10   2  -9    5.16    1.08
 -10   2   9    5.65    0.78
  10   2  -9    4.82    1.42
 -10   2   9    6.51    1.37
 -10   2   9    7.26    0.63
  -9   2   9    9.44    0.83
   9   2  -9    6.65    1.09
  -9   2   9    7.18    0.60
  -9   2   9    7.36    1.41
  -9   2   9    7.18    1.54
  -9   2   9    5.68    0.74
   9   2  -9    6.05    1.40
   9   2  -9    5.83    0.62
  -9   2   9    8.64    0.75
   9   2  -9    5.25    1.25
   9   2  -9    7.26    0.66
  -9   2   9    5.65    1.07
   8   2  -9    3.97    1.04
  -8   2   9    4.42    1.31
   8   2  -9    3.96    0.46
  -8   2   9    3.66    0.57
   8   2  -9    4.36    0.43
   8   2  -9    2.68    0.82
  -8   2   9    3.93    0.39
  -8   2   9    3.26    1.16
  -8   2   9    2.06    0.89
   8   2  -9    2.40    1.09
  -8   2   9    5.68    0.66
  -8   2   9    3.58    0.57
   7   2  -9   11.51    1.47
  -7   2   9   11.08    0.89
  -7   2   9   12.54    1.36
  -7   2   9    9.81    0.93
   7   2  -9   11.94    0.94
  -7   2   9    9.00    0.80
  -7   2   9   10.92    1.26
   7   2  -9   13.92    1.43
   7   2  -9   10.33    0.77
   7   2  -9   11.84    1.23
  -7   2   9    9.52    1.37
   6   2  -9    6.49    0.53
  -6   2   9    6.33    1.21
  -6   2   9    8.45    1.06
  -6   2   9    7.03    0.57
   6   2  -9    7.52    1.11
  -6   2   9    6.58    1.28
   6   2  -9    7.04    1.19
   6   2  -9    7.83    0.97
  -5   2   9   -0.32    0.82
  -5   2   9    1.52    0.72
   5   2  -9    0.60    0.77
   5   2  -9    0.75    0.63
  -5   2   9    1.35    0.92
   5   2  -9    1.00    0.83
   4   2  -9   26.11    1.84
  -4   2   9   26.49    2.07
   4   2  -9   23.60    2.00
  -4   2   9   23.38    2.14
  -4   2   9   24.72    1.96
   4   2  -9   23.62    2.09
  -3   2   9   21.05    1.97
   3   2  -9   22.75    1.77
   3   2  -9   22.56    1.88
  -3   2   9   21.51    2.01
  -3   2   9   25.07    1.84
   3   2  -9   21.06    1.93
   2   2  -9    2.09    0.64
   2   2  -9    2.55    0.81
   2   2  -9    1.23    0.75
  -2   2   9    0.11    0.66
  -2   2   9    0.31    0.55
  -2   2   9    0.29    0.79
  -1   2   9   28.93    2.12
   1   2  -9   27.22    2.10
   1   2  -9   28.12    1.95
   1   2  -9   25.37    2.18
  -1   2   9   27.80    2.21
  -1   2   9   27.37    2.27
   0   2   9   16.07    1.73
   0   2   9   17.77    1.63
   0   2   9   17.43    1.68
   0   2  -9   17.20    1.65
   0   2  -9   17.88    1.49
   0   2  -9   17.94    1.68
   0   2   9   16.97    1.45
   1   2   9    5.94    0.96
   1   2   9    5.77    1.05
   1   2   9    5.04    1.09
  -1   2  -9    6.12    1.01
  -1   2  -9    6.05    1.36
  -1   2  -9    6.53    0.87
  -1   2  -9    7.17    1.05
   2   2   9    0.20    0.69
   2   2   9    0.65    0.81
   2   2   9    0.32    0.62
  -2   2  -9   -0.08    1.06
  -2   2  -9    0.42    0.62
  -2   2  -9    0.12    0.78
   3   2   9   30.90    2.41
   3   2   9   32.86    2.41
  -3   2  -9   30.58    2.25
   3   2   9   32.20    2.36
  -3   2  -9   27.87    1.68
  -3   2  -9   29.78    2.42
   3   2   9   28.76    1.72
  -3   2  -9   31.94    2.71
   4   2   9    5.72    1.24
  -4   2  -9    7.55    1.03
  -4   2  -9    7.59    0.71
  -4   2  -9    6.29    0.57
  -4   2  -9    6.15    1.20
  -4   2  -9    8.28    1.56
   4   2   9    7.50    1.13
   4   2   9    6.08    0.60
   4   2   9    9.43    1.11
  -4   2  -9    7.43    0.64
   5   2   9    5.89    0.50
  -5   2  -9    5.44    1.27
  -5   2  -9    5.72    0.97
  -5   2  -9    5.60    0.70
  -5   2  -9    5.76    0.61
   5   2   9    5.43    0.55
  -5   2  -9    6.02    0.67
  -5   2  -9    6.18    1.25
   5   2   9    3.84    1.00
   5   2   9    4.56    1.12
   5   2   9    7.61    1.09
   5   2   9    4.71    0.63
  -5   2  -9    5.87    0.52
   6   2   9    2.57    0.36
  -6   2  -9    1.17    0.51
  -6   2  -9    1.28    1.35
   6   2   9    0.89    0.89
  -6   2  -9    1.92    0.30
  -6   2  -9    3.25    1.21
   6   2   9   -0.12    0.93
  -6   2  -9    1.12    0.51
  -6   2  -9    1.14    0.77
   6   2   9    1.58    0.45
   6   2   9    1.62    0.74
  -7   2  -9    5.10    1.38
   7   2   9    5.88    1.03
   7   2   9    5.33    0.48
  -7   2  -9    2.84    1.44
  -7   2  -9    4.06    0.43
  -7   2  -9    3.03    0.94
   7   2   9    3.85    1.21
   7   2   9    4.20    0.52
   7   2   9    4.16    1.11
  -7   2  -9    6.30    0.69
  -8   2  -9   -0.27    0.69
   8   2   9    0.62    0.32
   8   2   9    0.12    0.23
  -8   2  -9    2.17    1.49
  -8   2  -9   -1.73    1.10
  -8   2  -9    0.35    0.39
   9   2   9    3.91    0.39
  -9   2  -9    3.81    0.77
  -9   2  -9    3.31    0.49
   9   2   9    3.69    0.60
  10   2   9   19.64    1.49
 -10   2  -9   19.99    1.30
 -10   2  -9   18.38    1.58
  10   2   9   20.81    1.26
  11   2   9   18.62    1.45
 -11   2  -9   19.77    1.54
  11   2   9   18.28    1.16
 -11   2  -9   20.38    1.23
 -11   2  -9   20.02    1.83
  12   2   9    0.29    0.30
 -12   2  -9    0.61    0.30
 -12   2  -9    0.98    0.54
  12   2   9    0.28    0.41
 -12   2  -9   -0.31    0.59
  12   2   9    0.43    0.35
 -13   2  -9    3.82    0.82
  13   2   9    4.93    0.67
 -13   2  -9    4.53    0.55
  13   2   9    5.37    0.47
  13   2   9    4.19    0.59
 -14  -2  -9    3.37    0.38
  14   2   9    3.75    0.24
 -14   2  -9    1.97    0.63
  14   2   9    3.01    0.37
 -14   2  -9    1.82    0.38
  14   2   9    2.90    0.39
  17   3  -9    0.62    0.24
 -17   3   9    0.58    0.24
  16   3  -9    0.77    0.45
 -16   3   9    1.30    0.49
 -16   3   9    0.51    0.56
 -16   3   9    1.15    0.48
  16   3  -9    0.69    0.31
  15   3  -9    9.62    0.84
 -15   3   9    8.14    1.05
  15   3  -9   10.41    0.84
  15   3  -9    9.77    0.80
 -15   3   9    8.89    0.89
 -15   3   9   10.34    0.97
 -15   3   9    9.67    0.88
  15   3  -9    9.51    0.57
 -14   3   9    0.32    0.57
  14   3  -9    0.10    0.23
 -14   3   9   -0.70    0.58
  14   3  -9   -0.27    0.35
 -14   3   9    0.10    0.54
 -14   3   9    0.03    0.59
  14   3  -9    0.38    0.39
 -13   3   9    0.81    0.49
 -13   3   9    1.12    0.46
  13   3  -9    1.26    0.41
  13   3  -9    0.87    0.31
 -13   3   9    1.68    0.78
 -13   3   9    1.11    0.65
  13   3  -9    1.00    0.43
 -12   3   9    2.07    0.61
  12   3  -9    0.06    0.52
 -12   3   9    0.29    0.69
 -12   3   9    0.87    0.47
  12   3  -9    1.40    0.60
  12   3  -9    0.96    0.33
 -12   3   9    0.73    0.28
 -12   3   9    1.07    0.52
  11   3  -9    2.18    1.13
  11   3  -9    1.93    0.56
 -11   3   9    1.32    0.59
  11   3  -9    1.97    0.35
 -11   3   9    0.95    0.30
 -11   3   9    1.60    0.47
  11   3  -9    0.07    0.51
  11   3  -9    1.74    0.57
 -11   3   9   -0.36    1.10
 -11   3   9    1.97    0.55
  10   3  -9    3.92    0.43
  10   3  -9    4.25    0.54
 -10   3   9    1.85    1.56
 -10   3   9    2.29    1.26
  10   3  -9    2.65    0.93
  10   3  -9    4.25    0.52
 -10   3   9    3.35    0.65
 -10   3   9    4.22    0.74
 -10   3   9    4.47    0.42
  10   3  -9    1.46    1.39
 -10   3   9    4.43    0.65
  10   3  -9    4.84    0.59
  -9   3   9    7.56    0.70
  -9   3   9    8.31    0.88
  -9   3   9    6.92    1.40
   9   3  -9    7.47    0.63
  -9   3   9    6.75    0.66
   9   3  -9    6.68    1.28
   9   3  -9    8.28    0.75
   9   3  -9    7.30    0.63
  -9   3   9    8.97    1.42
  -9   3   9    6.27    1.06
   9   3  -9    5.81    1.07
   9   3  -9    6.78    0.77
   9   3  -9    7.62    1.61
  -9   3   9    7.50    0.62
   8   3  -9   16.16    1.15
   8   3  -9   16.03    0.99
  -8   3   9   14.26    1.72
   8   3  -9   16.75    1.20
   8   3  -9   14.84    1.24
  -8   3   9   15.35    1.08
  -8   3   9   20.34    2.04
  -8   3   9   16.81    1.26
  -8   3   9   14.05    1.50
   8   3  -9   17.29    2.03
  -8   3   9   14.49    1.27
  -8   3   9   14.91    0.98
   8   3  -9   16.52    1.68
   8   3  -9   13.50    1.51
   7   3  -9    2.69    1.22
   7   3  -9    4.11    0.50
  -7   3   9    3.16    1.07
  -7   3   9    3.94    0.62
  -7   3   9    3.88    0.58
  -7   3   9    2.38    1.26
   7   3  -9    3.21    0.54
  -7   3   9    3.07    0.54
   7   3  -9    3.53    0.37
  -7   3   9    3.69    0.38
   7   3  -9    3.49    0.99
   7   3  -9    4.07    0.86
  -7   3   9    4.21    0.88
   7   3  -9    2.96    0.51
   6   3  -9    0.49    0.29
  -6   3   9   -0.75    0.61
  -6   3   9   -0.05    0.26
   6   3  -9   -0.10    0.78
  -6   3   9    0.51    0.31
   6   3  -9    0.07    0.25
   6   3  -9    0.10    0.39
   6   3  -9    0.32    0.68
  -6   3   9   -0.90    0.82
   6   3  -9    1.71    1.07
  -6   3   9    0.93    1.08
   6   3  -9    0.10    0.38
  -6   3   9    0.63    0.46
  -6   3   9    0.61    0.45
  -5   3   9   74.94    4.82
   5   3  -9   77.72    5.13
   5   3  -9   78.59    4.62
  -5   3   9   68.04    3.95
  -5   3   9   69.56    4.90
   5   3  -9   70.89    4.03
  -5   3   9   67.02    4.04
   5   3  -9   73.29    3.94
  -5   3   9   76.91    4.70
  -5   3   9   78.90    4.68
   5   3  -9   80.84    4.69
   5   3  -9   65.72    5.38
  -5   3   9   77.33    5.19
  -5   3   9   72.31    4.36
   5   3  -9   75.64    4.34
  -5   3   9   68.33    4.76
   4   3  -9   17.45    1.96
   4   3  -9   12.99    1.04
  -4   3   9   11.60    1.57
  -4   3   9   15.83    1.76
  -4   3   9   15.16    1.53
   4   3  -9   13.49    1.39
   4   3  -9   13.65    0.87
  -4   3   9   13.73    1.09
  -4   3   9   14.12    0.95
   4   3  -9   16.36    1.41
   4   3  -9   13.76    1.62
  -4   3   9   14.41    0.92
  -4   3   9   15.60    1.40
  -4   3   9   15.32    1.27
   4   3  -9   13.94    0.92
   3   3  -9   13.98    1.80
  -3   3   9    9.75    0.70
   3   3  -9    9.20    0.90
  -3   3   9   10.86    1.07
  -3   3   9   12.17    1.51
  -3   3   9    9.52    0.91
  -3   3   9   10.36    1.33
   3   3  -9   11.53    0.87
  -3   3   9   12.57    1.24
  -3   3   9   11.36    1.30
   3   3  -9   10.17    0.68
   3   3  -9   12.32    1.34
   3   3  -9   11.29    1.23
   3   3  -9   12.56    1.21
  -2   3   9   10.43    1.29
   2   3  -9   12.14    1.78
  -2   3   9   10.50    1.11
  -2   3   9    8.78    0.85
  -2   3   9   12.64    1.27
   2   3  -9    9.16    1.22
   2   3  -9   10.62    1.08
  -2   3   9    9.49    0.66
  -2   3   9   11.15    1.32
   2   3  -9    9.91    1.19
   2   3  -9    8.82    0.73
   2   3  -9    9.16    0.68
   1   3  -9    8.62    0.94
   1   3  -9    9.51    1.25
   1   3  -9    9.20    1.09
  -1   3   9    8.70    1.12
  -1   3   9    6.89    0.62
   1   3  -9    9.31    1.66
  -1   3   9    8.06    1.17
  -1   3   9    6.96    1.27
  -1   3   9    7.95    0.77
   1   3  -9    6.93    0.59
  -1   3   9    8.14    1.01
   1   3  -9    6.72    0.72
   0   3  -9   26.44    1.57
   0   3   9   31.01    2.15
   0   3   9   27.80    2.35
   0   3  -9   29.20    1.79
   0   3  -9   31.88    2.18
   0   3  -9   30.20    2.42
   0   3   9   28.19    2.49
   0   3   9   27.60    1.59
   0   3   9   29.30    2.34
   0   3  -9   28.29    2.06
   0   3   9   25.32    1.76
   0   3  -9   30.65    2.89
  -1   3  -9    0.24    0.83
   1   3   9    1.00    0.39
   1   3   9    0.90    0.80
  -1   3  -9    1.22    0.79
  -1   3  -9    0.56    0.36
  -1   3  -9    1.12    0.40
   1   3   9    1.20    0.97
  -1   3  -9    1.20    0.26
   1   3   9    0.65    0.70
   1   3   9    0.56    0.27
  -1   3  -9    0.90    1.22
   1   3   9    1.16    0.26
  -1   3  -9    1.95    0.63
  -2   3  -9    0.78    0.40
   2   3   9    0.63    0.28
   2   3   9    0.78    0.38
   2   3   9    1.11    0.80
  -2   3  -9    1.00    0.63
  -2   3  -9    0.25    0.44
  -2   3  -9    2.83    1.33
  -2   3  -9    0.91    0.37
   2   3   9    2.18    0.77
  -2   3  -9    0.99    0.26
  -2   3  -9    0.56    0.82
  -2   3  -9    0.53    0.54
   2   3   9    0.35    0.36
   2   3   9    1.88    0.75
   3   3   9   15.52    1.74
  -3   3  -9   13.18    1.06
  -3   3  -9   14.66    1.56
  -3   3  -9   12.81    1.27
  -3   3  -9   14.19    1.05
   3   3   9   13.37    1.03
  -3   3  -9   14.73    1.01
   3   3   9   15.24    1.52
  -3   3  -9   13.31    2.04
  -3   3  -9   12.61    0.89
  -3   3  -9   13.87    1.40
   3   3   9   13.09    1.24
   3   3   9   14.74    1.02
   3   3   9   14.14    1.43
   3   3   9   12.29    0.83
  -4   3  -9    5.62    1.59
  -4   3  -9    4.94    0.43
  -4   3  -9    5.27    0.61
  -4   3  -9    5.12    1.13
   4   3   9    4.74    0.56
   4   3   9    4.54    0.55
  -4   3  -9    4.03    0.89
   4   3   9    4.86    0.67
   4   3   9    5.96    1.04
   4   3   9    4.76    1.23
   4   3   9    4.68    0.40
   4   3   9    6.02    1.11
  -4   3  -9    4.47    0.72
  -4   3  -9    5.09    0.49
   5   3   9   -0.61    0.77
  -5   3  -9    0.70    0.46
  -5   3  -9   -0.28    0.65
   5   3   9    0.31    0.48
   5   3   9    0.29    0.24
   5   3   9   -0.71    0.68
  -5   3  -9   -0.16    0.54
  -5   3  -9   -0.88    0.97
  -5   3  -9    0.11    0.42
  -5   3  -9   -0.75    1.29
   5   3   9    0.58    0.88
  -5   3  -9    0.53    0.29
   5   3   9    0.08    0.27
   5   3   9    0.28    0.39
  -6   3  -9    0.61    0.44
  -6   3  -9    1.02    0.48
   6   3   9    0.17    0.41
  -6   3  -9   -0.13    0.72
   6   3   9    0.45    0.82
   6   3   9    0.07    0.91
   6   3   9    0.25    0.26
  -6   3  -9   -0.23    1.04
  -6   3  -9    0.32    1.07
  -6   3  -9    0.25    0.46
   6   3   9    1.07    0.50
  -6   3  -9    1.22    0.31
   6   3   9    0.54    0.42
   6   3   9    1.50    1.09
   7   3   9   29.01    1.63
   7   3   9   29.99    2.54
  -7   3  -9   23.66    3.00
   7   3   9   28.74    1.80
  -7   3  -9   29.89    2.56
  -7   3  -9   27.04    2.11
  -7   3  -9   28.02    1.74
   7   3   9   28.04    1.84
   7   3   9   25.90    2.33
  -7   3  -9   29.32    1.67
  -7   3  -9   29.53    1.97
   8   3   9   22.00    1.50
  -8   3  -9   23.91    1.59
  -8   3  -9   24.35    1.68
   8   3   9   23.85    1.33
   8   3   9   15.10    2.13
  -8   3  -9   22.04    1.33
   8   3   9   25.25    1.62
  -8   3  -9   20.24    1.75
  -8   3  -9   21.40    2.78
  -9   3  -9    3.82    0.91
  -9   3  -9    3.66    0.71
   9   3   9    3.21    0.38
   9   3   9    4.01    0.59
  -9   3  -9    4.64    0.66
  -9   3  -9    3.69    0.36
 -10   3  -9    1.69    0.65
  10   3   9    1.60    0.28
 -10   3  -9    1.41    0.22
  10   3   9    1.06    0.38
 -10   3  -9    0.92    0.57
 -10   3  -9    1.39    0.59
  10   3   9    1.79    0.50
  11   3   9    0.29    0.34
 -11   3  -9   -0.44    0.54
  11   3   9    0.02    0.24
 -11   3  -9    0.64    0.56
 -11   3  -9   -1.21    0.72
  11   3   9   -0.40    0.39
 -12   3  -9    1.56    0.58
  12   3   9    1.21    0.36
 -12   3  -9    0.66    0.54
 -12   3  -9    1.58    0.38
  12   3   9    0.89    0.43
 -13   3  -9    4.94    0.53
 -13   3  -9    5.11    0.67
  13   3   9    3.73    0.62
 -13   3  -9    4.12    0.45
  13   3   9    4.59    0.53
 -14   3  -9    2.52    0.28
 -14   3  -9    2.08    0.46
  14   3   9    1.70    0.28
 -16   4   9    0.40    0.31
  16   4  -9   -0.23    0.23
 -16   4   9    0.76    0.42
 -15   4   9    7.06    0.83
 -15   4   9    7.71    0.58
  15   4  -9    6.75    0.70
  15   4  -9    8.60    0.69
  15   4  -9    8.18    0.73
  14   4  -9    1.43    0.34
 -14   4   9    0.89    0.42
  14   4  -9    1.53    0.42
  14   4  -9    1.58    0.37
 -14   4   9    1.16    0.50
 -14   4   9    1.35    0.61
  14   4  -9    1.02    0.38
 -14   4   9    1.51    0.60
  13   4  -9    4.01    0.55
  13   4  -9    2.77    0.43
  13   4  -9    2.44    0.57
 -13   4   9    3.54    0.67
 -13   4   9    2.32    0.54
 -13   4   9    3.54    0.89
 -13   4   9    2.49    0.67
  13   4  -9    3.28    0.54
 -12   4   9   -0.40    0.47
 -12   4   9   -0.07    0.41
 -12   4   9    0.81    0.52
 -12   4   9    0.59    0.56
  12   4  -9   -0.38    0.51
  12   4  -9    0.96    0.61
  12   4  -9    0.25    0.49
  12   4  -9   -0.07    0.43
  11   4  -9   64.24    3.96
 -11   4   9   59.59    3.59
 -11   4   9   54.71    3.96
  11   4  -9   55.74    3.36
 -11   4   9   57.30    3.35
  11   4  -9   59.14    3.57
  11   4  -9   58.02    3.79
 -11   4   9   60.75    4.02
  10   4  -9   17.72    1.59
 -10   4   9   19.09    1.33
  10   4  -9   16.65    0.95
 -10   4   9   20.24    1.72
  10   4  -9   15.73    1.27
 -10   4   9   17.22    1.32
 -10   4   9   14.01    2.11
  10   4  -9   16.73    1.19
 -10   4   9   16.35    1.63
  10   4  -9   16.88    1.44
  -9   4   9   10.72    1.15
   9   4  -9   11.76    0.71
   9   4  -9   14.09    1.35
   9   4  -9   13.21    1.02
  -9   4   9   10.89    1.04
   9   4  -9   12.19    0.90
   9   4  -9   11.94    2.01
  -9   4   9   14.13    1.44
   9   4  -9    9.94    1.04
  -9   4   9   13.18    1.09
  -9   4   9    9.61    2.02
   8   4  -9    0.04    0.91
  -8   4   9    1.41    1.12
  -8   4   9   -0.36    0.60
  -8   4   9   -0.09    0.45
   8   4  -9    0.86    0.42
  -8   4   9    0.16    0.65
  -8   4   9   -0.02    0.47
  -8   4   9   -0.09    0.68
   8   4  -9   -1.42    0.87
  -8   4   9   -2.53    1.30
   8   4  -9    0.64    0.67
   8   4  -9   -0.24    0.43
   8   4  -9   -0.06    0.17
   8   4  -9    0.19    0.53
   7   4  -9    1.86    1.37
  -7   4   9    3.24    0.55
  -7   4   9    3.50    0.99
   7   4  -9    2.95    0.26
   7   4  -9    3.16    0.40
   7   4  -9    3.23    0.61
   7   4  -9    3.65    0.61
  -7   4   9    2.98    0.76
   7   4  -9    3.29    0.49
  -7   4   9    1.98    1.45
  -7   4   9    3.57    0.64
  -7   4   9    3.00    0.75
   7   4  -9    2.19    0.75
  -7   4   9    3.07    0.52
   7   4  -9    2.82    0.96
  -7   4   9    2.71    0.51
  -6   4   9   54.32    4.01
   6   4  -9   52.17    3.44
  -6   4   9   51.60    2.92
   6   4  -9   54.89    3.47
  -6   4   9   51.24    3.40
   6   4  -9   47.96    2.74
   6   4  -9   47.22    3.28
   6   4  -9   52.08    2.90
  -6   4   9   48.88    3.62
   6   4  -9   50.02    3.43
  -6   4   9   51.55    3.56
  -6   4   9   48.29    3.49
   6   4  -9   55.30    4.09
   6   4  -9   53.23    3.10
   6   4  -9   54.94    3.51
  -6   4   9   52.73    3.12
  -6   4   9   52.71    3.56
   5   4  -9    0.56    0.64
   5   4  -9    0.89    0.13
  -5   4   9    1.17    0.74
   5   4  -9    0.94    0.48
  -5   4   9    1.08    1.19
   5   4  -9    0.82    0.43
   5   4  -9    1.20    0.39
  -5   4   9    1.23    0.37
  -5   4   9    1.29    0.55
   5   4  -9    0.96    1.16
   5   4  -9    1.32    0.33
  -5   4   9    0.80    0.78
   5   4  -9    1.39    0.77
  -5   4   9    0.84    0.60
  -5   4   9    0.79    0.41
  -5   4   9    0.72    0.56
   5   4  -9    0.79    0.36
  -5   4   9    1.26    0.41
   4   4  -9    4.89    0.92
  -4   4   9    6.32    0.66
  -4   4   9    4.46    1.10
  -4   4   9    4.81    0.57
   4   4  -9    5.27    1.38
   4   4  -9    6.20    0.88
  -4   4   9    5.18    0.56
   4   4  -9    6.17    0.62
  -4   4   9    5.84    0.76
  -4   4   9    4.89    0.78
   4   4  -9    5.06    0.62
  -4   4   9    7.12    0.80
   4   4  -9    4.86    0.64
   4   4  -9    6.62    0.79
  -4   4   9    4.37    1.11
  -4   4   9    5.58    0.73
   4   4  -9    5.89    0.54
  -4   4   9    6.08    0.96
   4   4  -9    4.94    0.53
   3   4  -9    9.92    0.85
   3   4  -9    8.71    0.78
  -3   4   9    9.58    0.81
   3   4  -9    7.79    0.79
  -3   4   9   11.21    1.00
  -3   4   9   11.93    1.69
  -3   4   9    9.59    0.82
   3   4  -9    9.70    1.73
  -3   4   9   10.39    0.99
   3   4  -9    9.50    1.34
   3   4  -9    9.32    0.91
  -3   4   9   10.96    1.51
  -3   4   9    9.58    1.05
   3   4  -9    9.43    0.79
   3   4  -9   11.10    1.16
   3   4  -9   12.04    1.10
  -3   4   9    9.96    0.98
   3   4  -9    9.12    0.97
  -3   4   9    9.32    1.01
  -3   4   9    9.75    1.25
   2   4  -9    6.59    0.87
  -2   4   9    5.84    0.55
   2   4  -9    6.72    0.83
  -2   4   9    6.08    1.41
   2   4  -9    5.85    0.67
  -2   4   9    5.53    0.75
  -2   4   9    5.92    1.33
   2   4  -9    5.21    0.56
   2   4  -9    4.87    1.57
   2   4  -9    5.66    1.31
   2   4  -9    6.06    0.93
  -2   4   9    6.17    0.81
  -2   4   9    6.56    0.65
   2   4  -9    7.40    0.72
  -2   4   9    6.83    0.90
  -2   4   9    6.95    0.84
   2   4  -9    6.67    0.56
  -2   4   9    4.94    0.92
  -2   4   9    6.09    0.65
   2   4  -9    5.76    0.65
   1   4  -9    0.57    0.35
  -1   4   9    1.36    0.81
  -1   4   9    0.52    0.67
   1   4  -9    0.52    0.34
  -1   4   9    0.89    0.37
   1   4  -9    1.90    1.10
  -1   4   9    0.72    0.34
   1   4  -9    0.16    0.55
  -1   4   9    1.01    0.36
   1   4  -9    1.08    0.54
   1   4  -9   -0.37    1.37
  -1   4   9    0.63    0.50
   1   4  -9    0.84    0.41
  -1   4   9    0.90    0.57
   1   4  -9    1.37    0.48
   1   4  -9    0.97    0.55
  -1   4   9    1.15    0.59
   1   4  -9    0.10    0.82
  -1   4   9    0.78    1.10
   0   4  -9   13.27    1.08
   0   4  -9   16.45    2.03
   0   4  -9   14.25    1.30
   0   4  -9   13.21    0.94
   0   4   9   12.73    1.33
   0   4   9   12.79    0.95
   0   4   9   17.77    1.50
   0   4   9   14.28    1.80
   0   4   9   14.58    1.84
   0   4  -9   15.33    1.46
   0   4   9   12.07    1.08
   0   4  -9   13.59    1.36
   0   4  -9   13.11    1.02
   0   4  -9   13.33    1.52
   0   4   9   12.67    1.29
   0   4  -9   11.61    1.05
   0   4   9   11.92    1.19
   0   4   9   12.70    0.96
  -1   4  -9   27.83    2.06
  -1   4  -9   26.42    1.70
   1   4   9   25.68    1.94
  -1   4  -9   30.01    3.09
   1   4   9   28.13    1.69
   1   4   9   28.72    2.65
  -1   4  -9   28.26    1.60
   1   4   9   23.65    1.87
  -1   4  -9   26.80    1.97
  -1   4  -9   31.05    2.29
   1   4   9   24.21    1.60
   1   4   9   30.88    2.12
  -1   4  -9   27.01    2.29
  -1   4  -9   26.50    1.75
  -1   4  -9   25.23    1.94
   1   4   9   25.20    2.01
   1   4   9   25.95    1.97
  -2   4  -9    4.23    0.99
  -2   4  -9    3.82    0.43
   2   4   9    4.64    0.50
   2   4   9    5.62    0.98
  -2   4  -9    4.43    0.49
   2   4   9    5.39    1.11
  -2   4  -9    3.64    1.70
   2   4   9    4.20    0.91
   2   4   9    5.05    0.64
  -2   4  -9    4.61    0.67
   2   4   9    3.76    0.51
  -2   4  -9    4.99    0.52
   2   4   9    5.69    0.72
   2   4   9    3.95    0.60
  -2   4  -9    4.83    0.78
   2   4   9    4.10    0.60
  -2   4  -9    4.02    0.78
   3   4   9   26.81    1.95
  -3   4  -9   23.86    1.86
   3   4   9   28.23    2.67
  -3   4  -9   25.31    1.63
  -3   4  -9   29.47    1.83
  -3   4  -9   28.64    1.99
  -3   4  -9   27.34    1.77
   3   4   9   26.51    1.65
   3   4   9   28.07    2.18
  -3   4  -9   26.91    2.82
  -3   4  -9   24.83    2.14
   3   4   9   25.38    2.12
   3   4   9   26.13    2.06
  -3   4  -9   25.49    2.32
   3   4   9   29.30    1.72
   3   4   9   24.00    1.90
  -3   4  -9   28.20    2.03
  -4   4  -9   22.24    1.95
  -4   4  -9   27.71    2.99
   4   4   9   24.22    1.59
  -4   4  -9   24.93    2.14
   4   4   9   26.39    2.13
  -4   4  -9   23.20    2.07
  -4   4  -9   25.67    1.61
  -4   4  -9   22.41    1.75
  -4   4  -9   22.96    1.99
   4   4   9   25.99    2.34
  -4   4  -9   25.39    1.53
   4   4   9   25.75    1.54
   4   4   9   23.40    1.93
   4   4   9   22.50    1.80
   4   4   9   21.19    2.01
  -5   4  -9   -0.73    0.63
   5   4   9    0.18    0.40
   5   4   9   -0.35    0.39
  -5   4  -9    0.02    0.74
  -5   4  -9    0.95    1.70
  -5   4  -9    0.08    0.44
  -5   4  -9    0.08    0.61
   5   4   9    0.05    0.12
   5   4   9   -0.06    0.36
   5   4   9    0.17    0.85
   5   4   9   -0.56    0.74
   5   4   9    0.82    0.61
   5   4   9    0.33    0.83
  -6   4  -9   -0.20    1.62
  -6   4  -9    0.97    0.69
   6   4   9    0.87    0.41
   6   4   9   -1.50    0.76
  -6   4  -9    1.03    0.84
  -6   4  -9    0.43    0.53
  -6   4  -9    0.87    0.35
   6   4   9    1.13    0.56
   6   4   9    0.59    0.47
   6   4   9    0.64    0.43
   7   4   9   25.30    2.05
  -7   4  -9   30.74    2.42
  -7   4  -9   24.59    1.98
  -7   4  -9   28.24    1.82
  -7   4  -9   26.44    1.74
   7   4   9   30.53    2.19
   7   4   9   27.25    1.79
   7   4   9   26.12    1.70
   8   4   9    1.87    0.54
  -8   4  -9    1.66    0.54
   8   4   9    2.34    0.38
  -8   4  -9    2.50    0.69
  -8   4  -9    1.48    0.54
   8   4   9    1.85    0.48
  -8   4  -9    1.47    0.69
   9   4   9    2.78    0.74
  -9   4  -9    2.62    0.53
  -9   4  -9    2.20    0.59
   9   4   9    2.82    0.51
  -9   4  -9    3.12    0.72
  -9   4  -9    3.09    0.55
  10   4   9    0.49    0.63
  10   4   9    0.62    0.52
 -10   4  -9    0.82    0.31
 -10   4  -9    0.72    0.85
  10   4   9    1.13    0.43
 -10   4  -9    1.86    0.56
  11   4   9    0.77    0.38
 -11   4  -9    1.42    0.38
  11   4   9    1.56    0.51
 -11   4  -9    1.11    0.60
  11   4   9    0.96    0.45
 -11   4  -9    1.27    0.42
  12   4   9    1.88    0.28
 -12   4  -9    2.14    0.42
  12   4   9    0.85    0.47
 -12   4  -9    1.87    0.60
  12   4   9    1.07    0.43
 -12   4  -9    1.50    0.28
 -13   4  -9    0.94    0.31
  13   4   9    0.16    0.30
  13   4   9    0.32    0.21
 -13   4  -9   -0.03    0.42
  13   4   9   -0.15    0.26
  15   5  -9    2.55    0.34
 -15   5   9    3.85    0.47
 -15   5   9    3.73    0.43
  14   5  -9    1.54    0.46
 -14   5   9    1.45    0.76
 -14   5   9    2.09    0.48
  14   5  -9    1.77    0.42
 -13   5   9    1.76    0.39
  13   5  -9    0.95    0.31
  13   5  -9    0.59    0.47
 -13   5   9    1.42    0.58
  13   5  -9    1.22    0.45
 -13   5   9    1.17    0.37
 -12   5   9    7.46    0.74
  12   5  -9    7.17    0.87
 -12   5   9    8.19    0.92
 -12   5   9    6.85    0.80
  12   5  -9    9.51    0.73
  12   5  -9    5.69    0.72
  12   5  -9    8.34    0.65
  11   5  -9    2.21    0.57
  11   5  -9    3.95    0.46
 -11   5   9    3.92    0.65
 -11   5   9    3.60    0.71
  11   5  -9    3.17    0.72
 -11   5   9    3.49    0.61
  11   5  -9    3.38    0.57
 -10   5   9   -0.45    0.77
 -10   5   9    0.96    0.56
  10   5  -9    0.30    0.36
 -10   5   9    0.65    0.52
  10   5  -9    1.19    0.52
 -10   5   9    0.24    0.20
  10   5  -9    1.03    0.64
  10   5  -9    0.39    0.48
  -9   5   9    3.43    0.67
  -9   5   9    3.18    0.68
   9   5  -9    4.73    0.73
  -9   5   9    3.95    0.58
   9   5  -9    3.45    0.54
   9   5  -9    2.90    0.65
  -9   5   9    1.78    0.67
   9   5  -9    3.44    0.46
  -9   5   9    3.05    0.37
   8   5  -9    0.43    0.35
  -8   5   9   -0.27    0.61
   8   5  -9   -0.79    0.48
   8   5  -9    0.11    0.43
  -8   5   9    0.05    0.72
   8   5  -9   -0.55    0.42
  -8   5   9    0.00    0.51
  -8   5   9    0.30    0.30
  -8   5   9    0.28    0.46
   7   5  -9   16.24    1.55
  -7   5   9   14.93    0.99
   7   5  -9   14.05    1.03
  -7   5   9   12.21    2.19
   7   5  -9   13.77    1.08
  -7   5   9   14.25    1.36
  -7   5   9   15.12    1.12
  -7   5   9   13.88    1.51
  -7   5   9   15.23    1.44
   7   5  -9   14.94    1.19
   7   5  -9   15.12    1.23
   6   5  -9   10.34    1.19
  -6   5   9    9.73    1.02
   6   5  -9    9.67    1.04
   6   5  -9    9.82    0.74
  -6   5   9    8.14    0.99
  -6   5   9    8.81    0.75
  -6   5   9    9.75    1.03
   6   5  -9    9.37    0.82
   6   5  -9    7.22    1.49
  -6   5   9    8.85    1.81
  -6   5   9    8.74    0.67
   6   5  -9    9.13    0.92
   6   5  -9    9.62    0.98
  -6   5   9   10.15    1.10
  -5   5   9    8.07    0.61
   5   5  -9    8.69    0.68
   5   5  -9    9.58    0.78
   5   5  -9    6.16    1.68
  -5   5   9    6.70    0.89
   5   5  -9    8.02    0.87
   5   5  -9    8.38    0.91
  -5   5   9    6.30    0.76
  -5   5   9    9.15    0.98
  -5   5   9    7.63    1.48
  -5   5   9    8.63    0.80
  -5   5   9    9.78    1.00
   5   5  -9    8.39    1.06
   5   5  -9    8.84    0.85
  -5   5   9    8.85    1.00
   4   5  -9    1.69    0.42
   4   5  -9    1.15    0.59
   4   5  -9    0.55    1.32
  -4   5   9    1.32    0.41
  -4   5   9    1.97    0.65
   4   5  -9    1.03    0.49
   4   5  -9    1.27    0.43
   4   5  -9    1.33    0.37
  -4   5   9    1.35    0.58
  -4   5   9    2.80    0.65
  -4   5   9    1.55    0.55
  -4   5   9    1.94    1.04
   4   5  -9    1.41    0.35
   4   5  -9    0.20    0.66
  -4   5   9    0.83    0.45
  -4   5   9    2.10    0.66
  -4   5   9    1.23    0.27
  -3   5   9   29.20    1.92
   3   5  -9   29.32    2.18
  -3   5   9   27.34    2.17
  -3   5   9   29.43    1.72
  -3   5   9   31.16    2.32
   3   5  -9   25.42    2.81
   3   5  -9   25.03    1.99
   3   5  -9   26.55    1.98
   3   5  -9   32.49    2.11
  -3   5   9   29.44    1.73
   3   5  -9   28.98    1.77
  -3   5   9   29.04    2.71
   3   5  -9   30.40    1.71
  -3   5   9   28.03    1.91
   3   5  -9   27.20    2.07
   3   5  -9   29.32    2.05
  -3   5   9   26.82    2.09
  -3   5   9   29.05    2.22
  -2   5   9   31.80    2.07
   2   5  -9   32.06    2.17
  -2   5   9   28.39    1.83
   2   5  -9   33.18    2.32
   2   5  -9   30.18    2.13
  -2   5   9   30.61    2.41
  -2   5   9   30.74    1.88
  -2   5   9   30.79    3.09
   2   5  -9   31.03    1.83
  -2   5   9   30.76    2.88
   2   5  -9   29.12    2.13
   2   5  -9   27.28    2.94
   2   5  -9   33.33    1.91
  -2   5   9   30.45    2.07
  -2   5   9   31.47    2.31
   2   5  -9   31.20    2.36
  -2   5   9   33.59    2.37
   2   5  -9   35.46    2.27
  -2   5   9   30.64    2.22
  -1   5   9   46.80    3.41
  -1   5   9   51.11    3.11
  -1   5   9   51.34    3.96
   1   5  -9   45.20    4.45
   1   5  -9   48.73    3.43
   1   5  -9   50.17    3.17
   1   5  -9   52.49    2.97
  -1   5   9   45.15    4.04
   1   5  -9   47.56    3.79
  -1   5   9   51.28    2.95
  -1   5   9   51.36    2.82
   1   5  -9   59.50    3.42
  -1   5   9   45.80    3.14
   1   5  -9   49.62    2.81
   1   5  -9   47.70    3.17
   1   5  -9   50.00    3.19
  -1   5   9   45.04    3.42
   1   5  -9   53.72    3.50
  -1   5   9   52.12    3.57
   0   5  -9    7.68    0.85
   0   5  -9    6.75    0.90
   0   5   9    8.28    1.41
   0   5   9    7.26    0.93
   0   5  -9    6.23    0.71
   0   5  -9    7.27    0.66
   0   5   9    7.25    0.87
   0   5  -9    5.12    1.58
   0   5  -9    6.32    0.57
   0   5  -9    5.73    0.71
   0   5   9    7.56    0.60
   0   5   9    6.15    0.55
   0   5   9    7.76    0.86
   0   5   9    6.80    1.53
   0   5  -9    3.80    1.35
   0   5  -9    6.31    0.86
   0   5   9    6.24    0.74
   0   5   9    6.93    0.75
   1   5   9   41.30    2.41
   1   5   9   39.41    2.76
  -1   5  -9   41.68    2.64
   1   5   9   37.85    3.48
   1   5   9   40.07    2.63
  -1   5  -9   43.23    2.31
   1   5   9   42.10    2.97
  -1   5  -9   40.42    3.41
  -1   5  -9   39.49    4.09
  -1   5  -9   41.84    2.96
  -1   5  -9   41.62    2.65
   1   5   9   36.19    2.65
  -1   5  -9   36.17    2.57
  -1   5  -9   41.95    2.41
   1   5   9   38.68    2.29
  -1   5  -9   40.08    2.76
   1   5   9   39.54    2.81
   2   5   9    1.99    0.54
   2   5   9    2.06    0.34
  -2   5  -9    0.91    0.56
   2   5   9    1.67    0.44
   2   5   9    1.93    0.71
  -2   5  -9    2.79    0.81
   2   5   9    1.38    0.51
   2   5   9    0.39    0.58
  -2   5  -9   -0.12    1.76
  -2   5  -9    1.58    0.52
   2   5   9    1.03    0.90
  -2   5  -9    1.62    0.62
   2   5   9    1.75    0.54
  -2   5  -9    1.65    0.40
   2   5   9    1.91    0.41
   3   5   9    5.99    0.90
  -3   5  -9    7.27    0.63
   3   5   9    6.44    0.85
   3   5   9    7.75    0.73
  -3   5  -9    4.99    0.88
  -3   5  -9    6.27    2.09
   3   5   9    7.61    1.36
  -3   5  -9    6.05    0.81
   3   5   9    7.20    0.63
  -3   5  -9    6.06    0.60
   3   5   9    5.89    0.96
  -3   5  -9    6.29    1.00
  -3   5  -9    7.11    0.72
   3   5   9    7.17    0.59
  -3   5  -9    5.54    0.89
   4   5   9   13.82    1.01
   4   5   9   12.35    1.14
  -4   5  -9   12.78    1.01
   4   5   9   11.27    1.87
  -4   5  -9   13.33    0.92
  -4   5  -9   14.29    1.32
   4   5   9   13.84    0.92
   4   5   9   12.70    1.43
   4   5   9   13.58    1.39
  -4   5  -9   11.11    1.19
  -4   5  -9   11.00    2.07
  -4   5  -9   12.61    1.50
   5   5   9    0.32    0.63
   5   5   9   -0.26    0.35
  -5   5  -9   -0.14    0.50
  -5   5  -9   -0.15    0.33
  -5   5  -9    0.32    0.42
   5   5   9   -0.05    0.39
  -5   5  -9    0.08    0.77
  -5   5  -9    1.13    0.81
   5   5   9   -0.05    0.68
  -6   5  -9    0.07    0.74
  -6   5  -9   -0.45    0.86
   6   5   9   -0.07    0.38
   6   5   9    0.10    0.30
  -6   5  -9   -0.04    0.27
   6   5   9   -0.24    0.60
  -6   5  -9    0.15    0.30
   6   5   9   -0.01    0.70
  -6   5  -9    0.00    0.49
  -7   5  -9    0.31    0.26
  -7   5  -9    0.35    0.64
   7   5   9    0.36    0.40
   7   5   9    0.47    0.31
  -7   5  -9   -0.34    0.73
   7   5   9    0.81    0.59
   7   5   9    2.04    0.74
  -7   5  -9    0.04    0.44
   8   5   9   16.92    1.41
  -8   5  -9   16.19    1.38
  -8   5  -9   19.51    1.81
   8   5   9   18.69    1.58
   8   5   9   17.71    1.09
  -8   5  -9   18.46    1.24
  -8   5  -9   13.69    0.96
   9   5   9    5.91    0.90
  -9   5  -9    6.44    0.75
  -9   5  -9    7.27    0.70
   9   5   9    6.94    0.58
  -9   5  -9    7.43    1.11
   9   5   9    7.86    0.69
  10   5   9    6.96    0.63
  10   5   9    6.40    0.48
 -10   5  -9    6.14    0.66
 -10   5  -9    5.65    1.03
  10   5   9    5.49    0.80
  11   5   9    1.33    0.43
 -11   5  -9    1.26    0.60
  11   5   9    1.05    0.31
 -11   5  -9    0.71    0.43
 -12   5  -9    6.48    0.77
 -12   5  -9    7.14    0.57
  13   6  -9   30.16    1.99
 -13   6   9   31.15    1.70
  12   6  -9    3.94    0.48
 -12   6   9    6.46    0.76
  12   6  -9    4.59    0.58
 -12   6   9    4.88    0.45
 -11   6   9    4.46    0.47
  11   6  -9    5.08    0.61
 -11   6   9    4.43    0.62
 -11   6   9    5.34    0.96
  11   6  -9    5.17    0.63
  11   6  -9    4.55    0.44
 -10   6   9   -0.74    0.46
  10   6  -9   -0.31    0.44
 -10   6   9   -0.34    0.40
 -10   6   9    0.00    0.85
  10   6  -9    0.03    0.27
 -10   6   9    0.05    0.35
  10   6  -9    0.02    0.47
   9   6  -9    1.89    0.67
  -9   6   9    2.44    0.66
  -9   6   9    0.85    0.52
   9   6  -9    0.71    0.40
  -9   6   9    2.56    0.83
  -9   6   9    1.62    0.41
   9   6  -9    1.10    0.78
   8   6  -9   18.80    1.44
  -8   6   9   20.46    1.22
  -8   6   9   18.81    1.55
   8   6  -9   19.03    1.24
   8   6  -9   17.66    1.37
   8   6  -9   17.90    1.78
  -8   6   9   16.86    1.80
  -8   6   9   19.26    1.77
   7   6  -9   10.23    0.97
   7   6  -9    9.79    0.82
  -7   6   9    8.02    1.13
   7   6  -9    9.25    1.04
  -7   6   9   10.09    1.05
   7   6  -9   10.30    0.89
  -7   6   9    9.25    0.88
  -7   6   9    9.19    1.12
   6   6  -9   10.41    0.97
  -6   6   9   10.46    1.07
  -6   6   9   11.18    1.18
   6   6  -9   10.30    0.84
  -6   6   9   10.63    0.83
  -6   6   9   12.67    1.40
   6   6  -9   10.87    1.03
   6   6  -9   11.86    1.27
   5   6  -9   35.78    2.57
  -5   6   9   35.70    2.06
  -5   6   9   32.87    2.53
  -5   6   9   36.21    2.69
   5   6  -9   37.61    2.53
   5   6  -9   32.83    2.44
   5   6  -9   34.93    2.04
  -5   6   9   37.75    2.76
   4   6  -9    0.25    0.31
   4   6  -9    0.05    0.58
  -4   6   9    0.04    0.66
  -4   6   9    0.31    0.60
   4   6  -9   -0.02    0.42
   4   6  -9    0.22    0.54
  -4   6   9    0.32    0.50
  -4   6   9    0.14    0.81
  -4   6   9    0.12    0.35
   3   6  -9    1.27    0.64
  -3   6   9    0.28    0.71
   3   6  -9    0.63    1.45
   3   6  -9    1.23    0.76
  -3   6   9    1.28    0.70
  -3   6   9    1.28    0.31
   3   6  -9    1.23    0.70
   3   6  -9    2.05    0.48
  -3   6   9    2.36    0.56
  -3   6   9    1.72    1.16
   3   6  -9    1.90    0.33
  -3   6   9    1.26    0.87
  -2   6   9   45.58    3.42
  -2   6   9   48.80    3.43
   2   6  -9   48.76    3.44
   2   6  -9   49.83    2.73
  -2   6   9   52.16    2.74
   2   6  -9   48.43    3.15
   2   6  -9   53.87    3.40
  -2   6   9   44.79    3.41
   2   6  -9   53.03    3.46
  -2   6   9   40.37    3.87
   2   6  -9   45.48    4.04
  -1   6   9    0.31    0.49
   1   6  -9    0.26    0.29
   1   6  -9    0.69    0.71
  -1   6   9    0.99    0.36
   1   6  -9    0.27    0.57
  -1   6   9    1.62    1.53
  -1   6   9    0.29    1.42
   1   6  -9   -0.15    0.82
  -1   6   9    0.66    0.54
   1   6  -9   -0.60    1.29
  -1   6   9    1.08    0.46
   0   6  -9    7.40    0.83
   0   6   9    8.08    0.99
   0   6   9    8.63    0.67
   0   6  -9    3.63    1.56
   0   6  -9    7.88    0.65
   0   6  -9    7.86    0.98
   0   6   9    4.17    1.62
   0   6   9    8.34    0.86
   0   6   9    8.68    0.95
   0   6  -9    6.60    1.11
   1   6   9   12.72    1.20
   1   6   9   11.83    1.09
  -1   6  -9   12.13    1.31
  -1   6  -9   12.13    1.00
  -1   6  -9   12.01    0.83
  -1   6  -9   13.07    1.22
   1   6   9    9.94    0.83
   1   6   9   11.29    1.25
  -2   6  -9    0.01    0.86
   2   6   9    0.53    0.80
   2   6   9    0.66    0.32
   2   6   9    0.47    0.57
   2   6   9    0.29    0.54
   2   6   9    0.45    0.54
  -2   6  -9    0.84    0.57
  -2   6  -9    1.25    0.33
  -2   6  -9    0.94    0.67
   3   6   9    9.56    1.06
  -3   6  -9   12.49    0.97
  -3   6  -9   10.76    1.19
   3   6   9   10.69    0.99
  -3   6  -9   10.58    1.28
   3   6   9   10.72    0.81
  -3   6  -9   10.59    0.81
   3   6   9   11.07    1.19
  -4   6  -9    1.42    0.35
   4   6   9    1.05    0.34
  -4   6  -9    3.28    0.94
   4   6   9    1.61    0.69
  -4   6  -9    1.21    0.47
   4   6   9    1.73    0.40
  -4   6  -9    1.58    0.74
   4   6   9    1.87    0.76
  -5   6  -9   51.58    3.58
   5   6   9   52.76    3.58
   5   6   9   50.95    3.71
  -5   6  -9   57.60    3.03
  -5   6  -9   52.47    3.94
  -5   6  -9   58.08    3.70
   5   6   9   54.20    3.02
   5   6   9   54.39    3.73
  -6   6  -9    0.25    0.57
  -6   6  -9    1.00    0.37
  -6   6  -9   -0.66    0.84
   6   6   9   -0.31    0.49
  -6   6  -9    0.75    0.40
   6   6   9    0.29    0.65
  -7   6  -9    4.96    0.71
  -7   6  -9    3.66    0.97
   7   6   9    5.21    0.45
   7   6   9    4.51    0.61
  -7   6  -9    5.13    0.44
  -7   6  -9    3.21    0.58
   7   6   9    4.32    0.83
  -8   6  -9    1.88    0.68
  -8   6  -9    0.96    0.53
   8   6   9    1.95    0.30
   8   6   9    1.34    0.52
  -8   6  -9    1.72    0.38
   8   6   9    1.68    0.53
  -9   6  -9    4.97    0.46
   9   6   9    5.08    0.65
  -9   6  -9    4.52    0.61
  -9   6  -9    5.55    0.79
   9   6   9    5.51    0.43
 -10   6  -9    1.69    0.56
  10   6   9    0.18    0.38
  10   6   9    0.42    0.27
 -10   6  -9    0.56    0.25
 -12   7   9    0.02    0.37
  11   7  -9   16.35    1.17
 -11   7   9   15.70    1.27
  10   7  -9   26.77    1.87
 -10   7   9   27.07    1.90
  10   7  -9   27.89    1.47
 -10   7   9   24.46    1.94
  10   7  -9   27.92    1.81
 -10   7   9   26.70    2.06
   9   7  -9    1.14    0.21
  -9   7   9    0.77    0.59
  -9   7   9    1.10    0.48
  -9   7   9    1.71    0.51
   9   7  -9    1.34    0.47
   9   7  -9    1.67    0.49
   8   7  -9   12.80    1.07
   8   7  -9   12.92    0.76
  -8   7   9   11.70    1.19
  -8   7   9   10.13    1.10
   8   7  -9   13.47    1.36
  -8   7   9   13.42    1.39
   8   7  -9   11.99    1.24
   7   7  -9    9.40    0.62
  -7   7   9    9.86    1.07
  -7   7   9    8.73    0.98
   7   7  -9    7.54    1.08
  -7   7   9    9.95    1.01
   7   7  -9    9.87    0.95
   7   7  -9    9.51    0.85
  -6   7   9    3.42    0.87
  -6   7   9    3.16    0.68
   6   7  -9    3.64    0.53
   6   7  -9    3.91    0.71
   6   7  -9    3.02    0.58
  -6   7   9    4.00    0.71
   6   7  -9    3.35    0.31
  -5   7   9    2.02    0.90
   5   7  -9    2.01    0.64
  -5   7   9    1.99    0.60
   5   7  -9    1.64    0.19
  -5   7   9    1.28    0.59
   5   7  -9    0.90    0.82
   5   7  -9    1.91    0.67
   4   7  -9   -0.11    0.44
  -4   7   9   -0.76    0.76
   4   7  -9   -0.20    0.54
  -4   7   9    0.51    0.71
   4   7  -9   -0.77    0.61
   3   7  -9    3.04    0.56
  -3   7   9    2.77    0.73
   3   7  -9    2.59    0.68
   3   7  -9    3.09    0.68
  -3   7   9    2.85    0.77
  -3   7   9    3.04    0.65
   2   7  -9    1.22    0.47
  -2   7   9    1.41    0.59
  -2   7   9    1.56    0.58
  -2   7   9    1.88    0.54
   2   7  -9    0.96    0.77
   2   7  -9    1.63    0.55
  -1   7   9   40.88    2.94
   1   7  -9   39.48    2.88
   1   7  -9   41.89    3.02
   1   7  -9   43.94    2.70
  -1   7   9   41.68    2.88
  -1   7   9   39.57    3.09
   0   7   9   -0.05    0.43
   0   7  -9    0.73    0.86
   0   7  -9    0.41    0.42
   0   7  -9    0.18    0.70
   0   7   9    1.01    0.81
   0   7   9    0.60    0.57
  -1   7  -9    7.00    1.09
   1   7   9    4.45    1.00
  -1   7  -9    6.45    0.79
   1   7   9    6.83    0.75
  -1   7  -9    4.15    0.85
   1   7   9    8.33    0.87
   2   7   9    3.73    0.70
  -2   7  -9    1.98    0.73
  -2   7  -9    4.36    0.80
   2   7   9    4.07    0.59
  -2   7  -9    3.69    0.66
  -3   7  -9    2.05    0.94
   3   7   9    1.55    0.57
   3   7   9    1.98    0.60
  -3   7  -9    1.38    0.67
   3   7   9    0.71    0.40
   4   7   9    2.21    0.43
  -4   7  -9    1.41    0.48
   4   7   9    2.09    0.20
   4   7   9    2.73    0.61
  -4   7  -9    1.06    0.85
   4   7   9    2.77    0.50
   5   7   9   11.21    0.67
  -5   7  -9   12.80    1.23
   5   7   9   11.79    0.96
   5   7   9   12.28    1.34
  -5   7  -9   11.53    1.02
   5   7   9   10.92    1.20
  -6   7  -9    2.53    0.80
   6   7   9    2.54    0.20
  -6   7  -9    2.78    0.45
   6   7   9    2.28    0.52
   6   7   9    1.62    0.50
  -6   7  -9    2.14    0.70
   7   7   9    0.22    0.54
  -7   7  -9    1.64    0.72
  -7   7  -9   -0.17    0.65
   7   7   9    1.27    0.61
  -8   7  -9    2.77    0.47
   8   7   9    2.13    0.43
  -8   7  -9    2.76    0.47
   8   7   9    1.80    0.44
   9   8  -9    1.76    0.34
   8   8  -9   11.95    0.93
   7   8  -9    0.36    0.41
   7   8  -9    0.57    0.41
  -7   8   9    0.60    0.50
  -7   8   9   -0.16    0.39
   6   8  -9    2.41    0.55
  -6   8   9    1.74    0.80
  -6   8   9    2.09    0.72
   6   8  -9    1.26    0.44
  -5   8   9    0.06    0.47
   5   8  -9    1.10    0.54
  -4   8   9    8.02    0.84
   4   8  -9    9.17    0.83
   4   8  -9    5.97    0.81
  -4   8   9    9.45    0.96
   3   8  -9    4.39    0.84
  -3   8   9    5.16    0.69
   2   8  -9    0.63    0.71
  -2   8   9    1.46    0.49
  -2   8   9    1.85    0.50
  -1   8   9    3.21    0.81
  -1   8   9    3.37    0.56
   1   8  -9    2.65    0.54
  -1   8   9    2.46    0.75
   1   8  -9    1.88    0.54
   0   8   9    0.38    0.41
   0   8  -9    0.77    0.49
   0   8  -9    0.89    0.73
   0   8   9    0.13    0.54
   0   8  -9    0.88    0.57
   1   8   9    0.64    0.55
  -1   8  -9    1.70    0.81
  -1   8  -9    1.51    0.58
  -1   8  -9    1.15    0.48
   1   8   9    0.17    0.74
   2   8   9   13.77    1.22
  -2   8  -9   11.52    1.08
  -2   8  -9   10.65    1.21
   2   8   9   14.33    1.17
  -3   8  -9    9.44    0.88
   3   8   9    9.16    1.03
   3   8   9    8.63    0.81
  -4   8  -9    2.21    0.45
  -4   8  -9    1.98    0.59
   4   8   9    1.54    0.49
   4   8   9    2.47    0.40
  -5   8  -9    0.65    0.69
   6   8   9    9.17    0.80
  -6   8  -9    8.85    0.85
  -3   9   9    5.98    0.69
   3   9  -9    7.58    0.70
   2   9  -9    0.48    0.35
  -2   9   9   -0.56    0.29
   1   9  -9   -0.35    0.33
  -1   9   9   -0.09    0.30
   0   9  -9    0.80    0.37
  17   0 -10   -0.27    0.33
 -17   0  10   -0.09    0.26
  16   0 -10    0.66    0.40
 -16   0  10    0.79    0.48
  15   0 -10   -0.01    0.28
 -15   0  10   -0.45    0.49
  14   0 -10    0.79    0.31
 -14   0  10    0.37    0.53
 -13   0  10    0.87    0.54
 -12   0  10    1.25    0.40
 -11   0  10    0.30    0.35
 -10   0  10   14.14    1.01
  -9   0  10   -0.88    0.46
  -3   0  10    0.20    0.71
  -3   0  10    0.28    0.86
  -2   0  10   76.67    4.82
  -2   0  10   73.20    4.72
  -1   0  10    0.64    0.88
  -4   0 -10    0.48    0.99
   4   0  10    0.80    0.59
  -5   0 -10   -1.38    0.95
   5   0  10    0.19    0.75
  -6   0 -10    1.44    1.13
  -7   0 -10    0.53    0.32
  -8   0 -10   26.07    1.59
  -9   0 -10    1.32    0.49
  10   0  10   23.61    1.52
 -10   0 -10   25.12    1.59
  11   0  10   -0.48    0.36
 -11   0 -10   -0.32    0.46
 -12   0 -10   22.70    1.41
  12   0  10   23.17    1.41
 -13   0 -10   -0.22    0.41
  13   0  10   -0.10    0.23
 -14   0 -10    8.60    0.64
  14   0  10    8.13    0.56
 -14   0 -10    8.59    0.75
  14   0  10    6.91    0.65
 -17  -1  10   -0.31    0.29
  17  -1 -10   -0.13    0.34
 -17   1  10   -0.62    0.36
 -17   1  10    0.08    0.19
  17   1 -10    0.25    0.21
 -16  -1  10    8.20    0.76
  16   1 -10    9.75    0.77
 -16   1  10    9.84    0.76
 -16   1  10    7.87    0.92
 -15  -1  10    0.26    0.37
  15   1 -10   -0.12    0.28
 -15   1  10    0.04    0.46
 -15   1  10    0.40    0.46
 -14  -1  10   17.42    1.25
 -14   1  10   18.04    1.45
 -14   1  10   21.37    1.34
  14   1 -10   19.26    1.19
 -13   1  10   -0.45    0.68
  13   1 -10   -0.26    0.28
 -13   1  10   -0.80    0.48
 -12   1  10    7.55    0.73
  12   1 -10    8.01    0.68
 -11   1  10    6.85    1.63
 -11   1  10   10.51    0.95
  11   1 -10    9.62    0.84
 -10   1  10    1.18    0.46
  10   1 -10    1.05    0.29
 -10   1  10    0.50    0.82
  -9   1  10    0.60    0.43
  -9   1  10   -1.12    0.97
   9   1 -10    0.11    0.35
  -8   1  10    1.38    0.91
  -8   1  10    2.06    0.46
   8   1 -10    1.85    0.38
  -8   1  10    1.40    1.11
  -8   1  10    2.36    1.01
  -7   1  10    0.72    1.00
   7   1 -10    0.86    0.74
  -7   1  10    0.94    0.87
   7   1 -10    0.00    0.73
  -7   1  10    1.21    0.83
   7   1 -10    0.26    0.23
  -7   1  10    0.19    0.38
  -6   1  10    1.83    0.86
  -6   1  10    2.17    1.01
   6   1 -10    3.03    0.77
  -6   1  10    2.12    0.83
   6   1 -10    3.87    0.94
   6   1 -10    2.84    0.93
   5   1 -10    0.88    0.78
   5   1 -10    1.82    0.55
  -5   1  10    0.95    0.72
  -5   1  10    0.68    0.95
  -5   1  10    1.84    0.79
   5   1 -10    0.52    0.82
  -4   1  10   11.09    1.28
   4   1 -10   11.41    1.25
   4   1 -10   13.12    1.34
  -4   1  10   10.06    1.23
  -4   1  10   11.40    1.28
   4   1 -10   13.18    1.26
  -3   1  10   22.52    1.88
   3   1 -10   23.09    1.84
   3   1 -10   21.66    1.83
  -3   1  10   23.38    2.12
   3   1 -10   24.48    1.84
  -3   1  10   23.65    1.95
   2   1 -10    7.53    1.05
  -2   1  10    9.59    1.13
  -2   1  10    8.29    1.06
   2   1 -10    8.85    1.04
  -2   1  10    9.21    1.11
   2   1 -10    8.94    1.16
  -1   1  10    1.38    0.85
   1   1 -10    0.24    0.57
  -1   1  10    0.26    0.62
   1   1 -10    0.53    0.81
   1   1 -10    0.00    0.56
  -1   1  10    1.69    0.77
   0   1 -10    9.87    1.22
   0   1  10    8.51    1.14
   0   1 -10    9.02    1.05
   0   1  10    7.35    1.21
  -1   1 -10    1.14    0.85
   1   1  10    0.94    0.87
   1   1  10    2.04    0.64
  -1   1 -10    1.82    0.69
  -2   1 -10   62.01    4.15
  -2   1 -10   62.74    4.17
   2   1  10   63.26    4.21
   2   1  10   66.51    4.25
  -3   1 -10   -0.03    0.63
   3   1  10    0.33    0.60
   3   1  10   -0.39    0.58
  -3   1 -10    0.17    0.34
   3   1  10   -0.16    0.81
  -3   1 -10    0.59    1.07
  -3   1 -10   -0.66    0.86
  -4   1 -10   25.74    1.62
   4   1  10   27.93    2.45
   4   1  10   25.89    1.63
  -4   1 -10   26.28    2.25
  -4   1 -10   30.58    2.23
  -4   1 -10   31.64    2.59
   5   1  10    1.14    0.39
   5   1  10    1.34    0.92
  -5   1 -10   -0.43    0.76
  -5   1 -10    1.15    0.73
  -5   1 -10    0.89    0.29
   6   1  10    1.76    0.38
  -6   1 -10    0.30    1.19
  -6   1 -10    1.54    0.42
   6   1  10    0.02    0.91
  -7   1 -10    4.74    1.43
   7   1  10    5.21    0.54
  -7   1 -10    5.82    0.59
   8   1  10   11.09    0.88
  -8   1 -10   11.32    1.00
  -9   1 -10   38.33    2.17
   9   1  10   34.57    2.11
 -10   1 -10    4.66    0.58
  10   1  10    4.22    0.51
 -11  -1 -10    0.32    0.47
  11   1  10   -0.01    0.35
 -11   1 -10    0.93    0.49
 -11   1 -10    0.24    0.31
 -12  -1 -10    1.20    0.49
  12   1  10    0.63    0.27
 -12   1 -10    0.50    0.29
 -12   1 -10   -0.01    0.42
 -13  -1 -10   16.44    1.20
  13   1  10   20.95    1.19
 -13   1 -10   20.16    1.18
  13   1  10   20.79    1.44
 -13   1 -10   18.57    1.42
 -13   1 -10   19.27    1.54
 -14  -1 -10   12.20    0.81
 -14   1 -10   13.42    0.91
  14   1  10   12.18    0.74
  17   2 -10   14.58    0.99
 -17   2  10   14.40    1.01
  16   2 -10   -0.01    0.33
 -16   2  10    0.16    0.59
  16   2 -10    0.39    0.25
 -16   2  10    0.65    0.47
  15   2 -10    1.98    0.56
 -15   2  10    2.21    0.29
 -15   2  10    2.45    0.53
  15   2 -10    1.78    0.27
 -15   2  10    1.12    0.45
  14   2 -10    1.80    0.47
 -14   2  10    2.54    0.42
 -14   2  10    2.77    0.58
  14   2 -10    3.26    0.43
 -14   2  10    3.74    0.58
  13   2 -10   -0.16    0.37
 -13   2  10   -1.39    0.59
 -13   2  10    0.75    0.68
 -13   2  10   -0.10    0.39
  13   2 -10    0.25    0.39
  12   2 -10   13.51    0.84
 -12   2  10   10.39    1.08
 -12   2  10   11.71    1.08
 -12   2  10   11.64    0.98
  12   2 -10   11.45    0.99
  11   2 -10    3.03    0.48
 -11   2  10    1.74    1.51
  11   2 -10    2.63    0.44
  11   2 -10    0.78    1.30
 -11   2  10    2.67    0.39
 -11   2  10    2.99    0.69
 -11   2  10    2.72    0.51
 -10   2  10    3.46    1.09
 -10   2  10    1.61    1.43
  10   2 -10    5.47    1.43
  10   2 -10    7.90    0.68
 -10   2  10    7.65    1.52
  10   2 -10    6.08    0.64
 -10   2  10    8.28    0.86
 -10   2  10    6.63    0.62
   9   2 -10    1.98    0.88
   9   2 -10    2.86    1.17
  -9   2  10    3.04    1.36
  -9   2  10    1.26    0.90
  -9   2  10    4.09    1.26
   9   2 -10    3.48    0.42
   9   2 -10    2.63    0.55
  -9   2  10    1.60    0.61
   9   2 -10    1.69    1.14
  -9   2  10    3.26    0.47
  -8   2  10   29.31    2.43
  -8   2  10   34.64    2.74
   8   2 -10   32.07    2.71
   8   2 -10   33.66    2.62
  -8   2  10   31.70    2.05
   8   2 -10   28.21    1.97
   8   2 -10   26.92    2.35
  -8   2  10   31.58    2.84
  -8   2  10   27.63    1.87
  -8   2  10   30.21    1.78
   8   2 -10   30.14    1.71
   7   2 -10    6.03    1.21
  -7   2  10    6.96    0.58
  -7   2  10    7.11    0.70
   7   2 -10    6.63    0.62
  -7   2  10    5.40    1.32
   7   2 -10    6.64    1.03
   7   2 -10    5.83    0.66
   7   2 -10    6.51    1.22
  -7   2  10    5.42    1.06
  -7   2  10    7.41    0.76
  -7   2  10    4.00    1.22
  -6   2  10    1.02    0.98
   6   2 -10    0.73    0.68
  -6   2  10    1.01    0.45
   6   2 -10    0.66    0.63
  -6   2  10    1.20    0.27
  -6   2  10    1.14    0.79
  -6   2  10    2.79    0.57
  -6   2  10    1.72    1.07
   6   2 -10    1.38    0.32
   6   2 -10    0.57    0.32
   6   2 -10    0.64    0.85
  -5   2  10   -0.07    0.90
   5   2 -10   -0.27    0.62
   5   2 -10   -0.50    0.80
  -5   2  10   -0.17    0.47
  -5   2  10    0.40    0.33
   5   2 -10    0.03    0.78
   5   2 -10   -0.58    0.28
  -5   2  10    0.49    0.73
  -5   2  10   -0.60    0.83
   4   2 -10   43.61    2.81
  -4   2  10   41.37    2.97
  -4   2  10   40.02    3.02
  -4   2  10   37.98    2.79
  -4   2  10   37.14    2.21
   4   2 -10   39.50    2.95
   4   2 -10   43.13    2.85
   4   2 -10   37.46    2.19
  -3   2  10   29.25    2.16
   3   2 -10   26.08    2.07
  -3   2  10   27.45    2.32
   3   2 -10   29.46    2.23
   3   2 -10   24.35    2.23
  -3   2  10   27.30    2.29
  -2   2  10    1.14    0.89
  -2   2  10    0.85    0.75
   2   2 -10   -0.31    0.70
   2   2 -10    1.37    0.49
   2   2 -10    0.36    0.79
  -2   2  10    2.33    0.85
   1   2 -10    0.36    0.59
   1   2 -10    1.55    0.82
  -1   2  10    0.97    0.75
  -1   2  10   -0.12    0.83
  -1   2  10    0.06    0.75
   1   2 -10   -0.19    0.72
   0   2  10   31.59    1.94
   0   2 -10   36.89    2.68
   0   2 -10   38.46    3.22
   0   2  10   32.63    2.56
   0   2  10   36.17    2.88
   0   2  10   32.85    2.64
   0   2  10   35.87    2.64
   0   2 -10   35.66    2.59
   0   2 -10   36.68    2.49
   1   2  10    5.83    1.05
   1   2  10    8.41    1.22
  -1   2 -10    5.81    0.50
   1   2  10    5.98    0.55
  -1   2 -10    5.35    0.80
  -1   2 -10    6.13    1.46
   1   2  10    7.51    1.09
  -1   2 -10    7.35    1.12
   2   2  10    0.05    0.33
   2   2  10    0.43    0.56
  -2   2 -10   -0.62    0.41
   2   2  10    0.16    0.39
   2   2  10    0.40    0.67
   2   2  10   -1.18    0.81
  -2   2 -10   -0.04    0.31
  -2   2 -10   -0.23    1.19
  -2   2 -10    0.16    0.89
  -2   2 -10    0.26    0.65
  -3   2 -10    2.81    0.85
  -3   2 -10    3.92    0.45
   3   2  10    5.49    1.17
  -3   2 -10    3.47    0.48
   3   2  10    4.55    0.86
  -3   2 -10    3.96    1.10
   3   2  10    4.04    0.47
  -3   2 -10    4.65    0.45
   3   2  10    4.57    0.47
  -3   2 -10    4.58    1.11
   3   2  10    4.13    1.15
   4   2  10   17.44    1.79
  -4   2 -10   17.37    1.30
  -4   2 -10   19.20    1.91
  -4   2 -10   17.55    1.09
   4   2  10   17.50    1.76
   4   2  10   14.89    1.25
  -4   2 -10   15.62    2.17
  -4   2 -10   17.03    1.67
   4   2  10   16.76    1.90
   5   2  10   47.30    2.56
   5   2  10   43.37    2.84
  -5   2 -10   46.51    2.57
   5   2  10   45.36    3.36
  -5   2 -10   44.28    3.25
  -5   2 -10   45.35    3.49
   5   2  10   52.10    3.49
  -5   2 -10   43.55    4.03
  -5   2 -10   47.05    3.11
   5   2  10   47.10    3.42
  -5   2 -10   44.82    2.87
   5   2  10   43.24    3.14
   6   2  10    8.59    1.22
  -6   2 -10    5.79    1.46
  -6   2 -10    6.45    1.13
  -6   2 -10    5.44    1.71
   6   2  10    8.19    0.71
  -6   2 -10    9.31    0.84
  -6   2 -10    8.72    0.65
   6   2  10    8.02    0.79
  -6   2 -10    8.12    0.86
   6   2  10    9.71    1.34
   6   2  10    7.23    1.42
   6   2  10    7.76    0.82
   7   2  10    2.50    0.89
  -7   2 -10    2.45    1.50
  -7   2 -10    3.04    0.46
  -7   2 -10    2.48    0.61
   7   2  10    2.72    0.41
  -7   2 -10   -0.62    1.28
  -8   2 -10    5.90    1.83
   8   2  10    5.40    0.64
  -8   2 -10    6.81    0.62
  -8   2 -10    7.50    0.94
   8   2  10    6.77    0.58
  -9   2 -10   22.86    1.39
   9   2  10   21.92    1.31
  -9   2 -10   21.48    1.68
   9   2  10   21.37    1.59
 -10   2 -10   37.20    2.44
 -10   2 -10   33.69    2.09
  10   2  10   38.08    2.08
  10   2  10   37.35    2.38
 -11   2 -10    6.97    0.85
 -11   2 -10    7.43    0.64
  11   2  10    5.89    0.72
 -11   2 -10    7.14    0.87
  11   2  10    7.23    0.63
 -12   2 -10    0.38    0.41
  12   2  10    0.25    0.48
 -12   2 -10    0.31    0.22
 -12   2 -10    0.59    0.71
  12   2  10   -0.10    0.26
  12   2  10    1.26    0.57
 -13   2 -10    5.59    0.70
 -13   2 -10    6.07    0.65
  13   2  10    6.47    0.41
  13   2  10    5.94    0.57
  13   2  10    4.15    0.57
 -14   2 -10    2.54    0.32
  16   3 -10    5.26    0.50
 -16   3  10    4.33    0.53
  15   3 -10   10.01    0.94
  15   3 -10    8.90    0.87
 -15   3  10   10.70    0.87
 -15   3  10    8.59    0.79
 -15   3  10    8.67    0.97
 -15   3  10    9.62    0.87
  14   3 -10   14.32    1.10
 -14   3  10   14.45    1.27
 -14   3  10   17.08    1.29
 -14   3  10   15.76    1.14
 -14   3  10   14.67    1.43
  14   3 -10   15.27    0.90
  13   3 -10    6.78    0.82
 -13   3  10    9.70    1.02
 -13   3  10    9.83    0.88
 -13   3  10    9.04    0.87
  13   3 -10    7.35    0.81
 -13   3  10    6.57    0.98
  13   3 -10    9.26    0.65
 -12   3  10   14.79    0.88
 -12   3  10   15.11    1.31
  12   3 -10   15.94    0.95
  12   3 -10   14.69    1.26
 -12   3  10   14.18    1.34
  12   3 -10   13.07    1.21
 -12   3  10   12.40    1.44
 -12   3  10   13.52    1.11
 -11   3  10    2.50    0.49
 -11   3  10    1.18    0.67
  11   3 -10    1.66    0.56
 -11   3  10    3.15    0.68
 -11   3  10    2.02    0.32
  11   3 -10    2.93    0.60
  11   3 -10    2.23    0.37
 -10   3  10   37.03    2.14
 -10   3  10   36.21    2.69
  10   3 -10   39.30    2.13
 -10   3  10   35.85    3.55
 -10   3  10   37.30    2.32
  10   3 -10   30.90    3.37
  10   3 -10   36.18    2.49
  10   3 -10   38.25    2.28
  10   3 -10   39.65    2.42
 -10   3  10   39.44    2.41
   9   3 -10    2.22    0.86
   9   3 -10    3.23    0.40
   9   3 -10    2.85    0.58
   9   3 -10    2.17    1.36
  -9   3  10    3.11    0.60
  -9   3  10    2.93    1.25
  -9   3  10    3.21    0.66
   9   3 -10    3.16    0.57
  -9   3  10    3.50    0.67
   9   3 -10    4.84    1.20
  -9   3  10    4.30    0.98
   9   3 -10    3.37    0.56
  -9   3  10    4.00    1.55
  -9   3  10    3.38    0.39
  -8   3  10    5.27    1.34
   8   3 -10    8.31    0.66
  -8   3  10    5.89    1.08
   8   3 -10    6.15    1.28
  -8   3  10    8.21    0.66
   8   3 -10    9.37    0.75
   8   3 -10    7.80    1.54
  -8   3  10   10.04    1.74
  -8   3  10   10.49    0.99
  -8   3  10    7.83    0.87
   8   3 -10    7.74    0.77
   8   3 -10    7.06    1.10
  -8   3  10    8.35    0.79
  -7   3  10   35.51    2.55
   7   3 -10   35.16    2.02
   7   3 -10   39.01    2.87
  -7   3  10   34.27    2.14
  -7   3  10   36.55    2.92
   7   3 -10   35.90    2.31
  -7   3  10   36.66    2.36
   7   3 -10   38.06    3.15
  -7   3  10   40.05    2.05
  -7   3  10   34.64    2.70
  -7   3  10   38.34    3.28
   7   3 -10   35.48    2.71
   7   3 -10   36.95    2.17
  -6   3  10    7.95    1.49
   6   3 -10    8.34    1.24
   6   3 -10    7.35    0.69
   6   3 -10    7.98    1.42
   6   3 -10    7.08    0.65
  -6   3  10    7.72    1.28
  -6   3  10    7.15    1.08
  -6   3  10    6.77    0.54
   6   3 -10    7.33    1.05
   6   3 -10    6.99    0.59
  -6   3  10    6.12    0.61
  -6   3  10    6.38    0.70
  -6   3  10    7.22    0.75
  -6   3  10    8.28    0.90
   5   3 -10   12.73    1.05
  -5   3  10   13.63    1.16
  -5   3  10   13.45    1.12
  -5   3  10   12.80    1.74
   5   3 -10   13.07    1.48
  -5   3  10   13.51    0.94
  -5   3  10   12.43    1.24
  -5   3  10   17.31    1.52
  -5   3  10   15.61    1.63
   5   3 -10   12.85    0.99
  -5   3  10   11.67    1.59
   5   3 -10   13.76    0.86
   5   3 -10   14.59    1.45
  -5   3  10   13.50    0.87
   5   3 -10   12.08    1.83
   5   3 -10   12.12    1.64
   4   3 -10    2.97    1.14
  -4   3  10    5.18    0.99
   4   3 -10    4.61    1.00
  -4   3  10    3.82    0.38
  -4   3  10    4.44    0.71
  -4   3  10    1.79    0.77
  -4   3  10    4.13    1.17
   4   3 -10    3.71    0.66
   4   3 -10    3.02    0.48
  -4   3  10    3.26    0.56
   4   3 -10    3.46    0.80
  -4   3  10    3.06    0.64
   4   3 -10    3.87    1.37
  -4   3  10    4.80    0.55
  -4   3  10    3.08    1.02
   4   3 -10    4.53    0.53
   4   3 -10    3.72    0.36
   3   3 -10    1.68    0.42
  -3   3  10    2.70    0.95
  -3   3  10    1.67    0.31
  -3   3  10    1.26    0.73
   3   3 -10    2.84    0.76
   3   3 -10    2.01    0.90
  -3   3  10    1.36    1.03
  -3   3  10    2.01    0.43
   3   3 -10    2.16    0.29
   3   3 -10    2.09    0.98
   3   3 -10    3.36    1.36
  -3   3  10    2.20    0.47
  -3   3  10    0.78    1.00
   3   3 -10    1.75    0.41
   3   3 -10    1.81    0.44
  -3   3  10    2.88    0.40
   2   3 -10   36.34    2.56
   2   3 -10   42.59    3.51
   2   3 -10   34.42    1.98
  -2   3  10   39.48    2.93
   2   3 -10   33.77    2.08
  -2   3  10   35.05    2.27
  -2   3  10   31.83    2.10
  -2   3  10   36.90    2.01
  -2   3  10   36.60    2.62
  -2   3  10   38.83    2.87
  -2   3  10   34.58    2.50
  -2   3  10   40.40    2.76
   2   3 -10   36.01    2.90
   2   3 -10   34.08    2.47
   2   3 -10   38.51    2.66
   2   3 -10   38.53    2.25
  -1   3  10    1.06    0.96
   1   3 -10   -0.43    0.73
  -1   3  10    1.38    0.33
   1   3 -10    0.63    0.38
   1   3 -10    0.93    0.65
  -1   3  10    1.29    0.77
   1   3 -10    1.35    0.33
   1   3 -10    1.75    0.95
   1   3 -10    1.33    0.38
  -1   3  10    1.75    0.46
  -1   3  10    1.18    0.28
  -1   3  10    0.80    0.34
  -1   3  10   -0.87    0.80
  -1   3  10    2.11    0.83
   1   3 -10    1.93    1.42
   1   3 -10    1.57    0.27
   0   3 -10    3.66    1.03
   0   3 -10    1.12    1.39
   0   3  10    2.59    0.83
   0   3  10    2.37    0.46
   0   3  10    3.03    0.34
   0   3  10    2.64    0.89
   0   3  10    1.47    1.03
   0   3  10    1.37    0.46
   0   3 -10    2.34    0.91
   0   3 -10    2.74    0.43
   0   3 -10    3.84    0.79
   0   3  10    2.60    0.96
   0   3 -10    1.67    0.51
   0   3 -10    3.15    0.48
   0   3 -10    2.53    0.32
   0   3  10    2.37    0.40
  -1   3 -10   -0.10    0.41
   1   3  10    0.18    0.37
  -1   3 -10    0.26    0.27
   1   3  10    0.54    1.01
   1   3  10    0.55    0.29
   1   3  10    0.27    0.28
  -1   3 -10   -0.84    0.59
  -1   3 -10   -0.03    0.86
  -1   3 -10    0.18    0.25
   1   3  10    0.51    0.27
   1   3  10    1.06    0.78
  -1   3 -10    0.06    1.29
   1   3  10   -0.12    0.81
  -1   3 -10    0.82    0.44
   2   3  10    1.03    0.56
  -2   3 -10    0.83    0.45
  -2   3 -10    0.40    0.92
  -2   3 -10    1.25    0.29
   2   3  10    2.06    0.83
  -2   3 -10    3.25    1.44
  -2   3 -10    1.45    0.42
  -2   3 -10    0.75    0.68
   2   3  10    1.79    0.84
   2   3  10    1.59    0.43
  -2   3 -10    1.58    0.61
   2   3  10    1.46    0.90
   2   3  10    0.90    0.42
  -3   3 -10    2.18    0.39
   3   3  10    1.93    0.57
   3   3  10    2.33    0.30
  -3   3 -10    2.13    1.43
  -3   3 -10    1.96    0.72
   3   3  10    2.18    0.38
   3   3  10    3.81    0.92
  -3   3 -10    0.98    1.01
   3   3  10    2.17    0.46
   3   3  10    1.51    1.11
  -3   3 -10    1.55    0.36
  -3   3 -10    2.86    0.52
   3   3  10    2.20    0.96
  -3   3 -10    2.13    0.33
  -4   3 -10   21.66    2.68
  -4   3 -10   22.48    1.56
   4   3  10   23.04    1.53
  -4   3 -10   23.22    1.31
  -4   3 -10   21.12    1.66
   4   3  10   21.90    2.27
   4   3  10   21.98    1.75
  -4   3 -10   20.74    1.45
   4   3  10   21.16    1.46
  -4   3 -10   23.82    2.27
   4   3  10   20.17    1.85
  -4   3 -10   21.81    1.92
   4   3  10   23.69    2.17
   4   3  10   22.24    1.29
  -5   3 -10   11.24    1.13
   5   3  10   11.47    1.47
   5   3  10   12.39    0.81
   5   3  10   11.32    1.55
   5   3  10   11.33    1.05
  -5   3 -10   10.08    1.56
  -5   3 -10   12.65    1.10
   5   3  10   13.11    1.02
   5   3  10   10.87    1.22
   5   3  10   15.39    1.68
  -5   3 -10   12.68    0.93
  -5   3 -10   12.90    0.84
  -5   3 -10   12.88    1.42
  -5   3 -10   11.88    2.09
   6   3  10   75.08    5.21
  -6   3 -10   68.32    4.73
  -6   3 -10   70.76    4.05
  -6   3 -10   75.02    3.94
  -6   3 -10   66.99    5.59
  -6   3 -10   73.53    4.39
   6   3  10   70.02    4.35
   6   3  10   65.48    4.83
  -6   3 -10   75.86    4.98
   6   3  10   79.27    3.95
   6   3  10   66.66    4.84
   6   3  10   80.72    4.10
   7   3  10    0.92    0.46
  -7   3 -10    1.58    1.63
   7   3  10    1.29    0.37
  -7   3 -10    0.48    0.59
  -7   3 -10    1.22    0.30
   7   3  10    1.88    0.94
   7   3  10    0.88    0.29
  -7   3 -10    1.42    0.69
  -7   3 -10    0.80    0.52
   8   3  10    4.54    0.62
   8   3  10    4.42    0.41
  -8   3 -10    4.66    0.69
  -8   3 -10    4.15    0.75
   8   3  10    4.72    0.63
  -8   3 -10    6.36    0.79
  -8   3 -10    4.42    0.44
  -9   3 -10    7.08    0.92
  -9   3 -10    7.81    0.78
  -9   3 -10    6.95    0.53
  -9   3 -10    7.29    0.86
   9   3  10    7.96    0.77
   9   3  10    7.00    0.58
 -10   3 -10    1.42    0.58
 -10   3 -10    0.34    0.58
  10   3  10    0.00    0.60
  10   3  10    0.81    0.28
 -10   3 -10    0.18    0.76
  10   3  10    1.33    0.50
 -11   3 -10    0.17    0.37
 -11   3 -10   -0.02    0.52
  11   3  10    0.22    0.58
 -11   3 -10    0.84    0.56
  11   3  10    0.61    0.46
  11   3  10    0.28    0.15
  12   3  10    8.40    0.77
 -12   3 -10    8.51    0.76
  12   3  10    6.49    0.81
 -12   3 -10    8.10    0.76
 -12   3 -10    6.33    0.96
  13   3  10    0.53    0.34
 -13   3 -10    1.00    0.49
  13   3  10    0.59    0.25
 -13   3 -10    0.85    0.25
 -13   3 -10    1.41    0.48
  16   4 -10    9.16    0.61
 -16   4  10    9.40    0.70
 -15   4  10    0.81    0.61
  15   4 -10    0.09    0.30
 -15   4  10   -0.35    0.37
  15   4 -10    0.11    0.24
 -14   4  10    2.39    0.41
  14   4 -10    2.95    0.46
 -14   4  10    2.35    0.58
  14   4 -10    2.86    0.48
  14   4 -10    3.21    0.56
  14   4 -10    3.41    0.45
 -14   4  10    3.35    0.49
 -14   4  10    2.95    0.61
 -13   4  10    9.00    0.75
 -13   4  10    8.44    0.69
  13   4 -10    8.18    0.77
  13   4 -10    9.46    0.83
 -13   4  10    7.90    0.94
  13   4 -10    7.97    0.81
  13   4 -10    7.28    0.88
 -13   4  10    7.43    1.01
  12   4 -10    0.46    0.40
  12   4 -10    0.35    0.37
 -12   4  10    0.38    0.59
 -12   4  10    0.12    0.51
  12   4 -10    0.47    0.46
 -12   4  10   -0.56    0.67
 -12   4  10    0.05    0.49
  12   4 -10    0.28    0.33
 -11   4  10    0.24    0.58
  11   4 -10   -0.49    0.34
  11   4 -10    0.09    0.33
  11   4 -10    0.50    0.67
  11   4 -10    0.10    0.40
 -11   4  10   -0.54    0.35
 -11   4  10   -0.37    0.51
 -11   4  10    0.24    0.76
 -10   4  10   25.94    1.64
 -10   4  10   27.29    1.78
  10   4 -10   27.98    1.97
  10   4 -10   22.31    1.76
 -10   4  10   24.38    2.06
  10   4 -10   27.25    1.74
  10   4 -10   26.09    1.61
 -10   4  10   26.09    2.02
  -9   4  10    1.89    0.61
   9   4 -10    2.95    0.26
   9   4 -10    2.34    0.61
  -9   4  10    3.13    0.60
  -9   4  10    2.68    1.60
  -9   4  10    2.33    0.57
   9   4 -10    2.54    0.53
  -9   4  10    3.13    0.60
   9   4 -10    4.28    0.67
   9   4 -10    3.07    0.55
   9   4 -10    3.14    1.50
   8   4 -10    0.11    0.15
   8   4 -10    0.45    0.49
  -8   4  10    0.62    1.45
  -8   4  10    0.00    0.48
  -8   4  10    0.04    0.44
   8   4 -10    0.79    0.54
  -8   4  10   -0.41    0.93
   8   4 -10   -0.76    1.29
   8   4 -10   -0.19    0.45
  -8   4  10    0.46    0.50
   8   4 -10   -0.99    0.92
  -8   4  10   -0.71    0.49
   8   4 -10    1.13    0.47
  -7   4  10    8.92    1.81
   7   4 -10    9.59    0.88
  -7   4  10    9.74    1.14
  -7   4  10   10.11    0.82
  -7   4  10   11.24    1.12
  -7   4  10   11.02    0.94
  -7   4  10    9.78    1.52
   7   4 -10   10.42    1.10
  -7   4  10    8.37    1.00
   7   4 -10   10.65    0.81
  -7   4  10   10.59    1.13
   7   4 -10    7.17    1.44
   7   4 -10    9.43    1.17
   7   4 -10    7.55    1.68
   7   4 -10   10.16    0.60
   7   4 -10    9.89    0.91
  -6   4  10  168.25    9.69
   6   4 -10  165.14    8.83
   6   4 -10  176.15    9.01
   6   4 -10  170.12    9.67
  -6   4  10  163.29    9.88
   6   4 -10  159.55    9.84
   6   4 -10  151.47   10.13
  -6   4  10  152.47   10.04
  -6   4  10  171.85    9.02
  -6   4  10  175.81   11.21
   6   4 -10  160.55   10.89
  -6   4  10  164.39   10.87
  -6   4  10  170.20   10.74
   6   4 -10  168.45   10.11
  -6   4  10  157.17   10.59
   6   4 -10  177.59   10.68
   5   4 -10    4.56    0.36
   5   4 -10    3.78    1.01
  -5   4  10    6.16    0.61
   5   4 -10    5.42    0.58
   5   4 -10    4.91    0.64
  -5   4  10    5.08    1.46
   5   4 -10    5.73    0.63
   5   4 -10    6.02    0.95
  -5   4  10    6.18    1.06
   5   4 -10    5.69    0.57
  -5   4  10    5.23    0.68
   5   4 -10    4.67    0.79
  -5   4  10    4.74    0.85
  -5   4  10    5.58    0.72
  -5   4  10    5.77    0.80
  -5   4  10    5.02    0.62
  -5   4  10    5.09    0.59
   5   4 -10    4.30    1.41
  -4   4  10    0.06    0.49
   4   4 -10    0.77    0.33
  -4   4  10    0.92    0.98
   4   4 -10    0.00    0.42
   4   4 -10    0.92    1.17
   4   4 -10    1.42    0.56
   4   4 -10    0.78    0.34
   4   4 -10    0.29    0.37
  -4   4  10    1.05    1.19
  -4   4  10    0.13    0.42
   4   4 -10    1.36    0.81
  -4   4  10    0.17    0.55
  -4   4  10    0.39    0.99
   4   4 -10    0.14    0.68
   4   4 -10    0.78    0.39
  -4   4  10    0.63    0.67
  -4   4  10    1.13    0.64
  -4   4  10    0.99    0.58
  -4   4  10    0.03    0.39
   3   4 -10    4.62    0.51
  -3   4  10    4.44    1.03
   3   4 -10    3.87    1.04
  -3   4  10    4.02    0.53
   3   4 -10    2.94    1.51
  -3   4  10    4.37    1.08
   3   4 -10    3.77    0.62
  -3   4  10    4.35    0.63
   3   4 -10    4.08    0.94
  -3   4  10    4.01    0.53
   3   4 -10    4.58    0.51
  -3   4  10    3.97    0.81
   3   4 -10    3.18    0.55
   3   4 -10    5.69    0.56
   3   4 -10    5.64    0.87
  -3   4  10    1.61    1.02
  -3   4  10    3.68    0.64
   3   4 -10    3.52    0.69
  -3   4  10    4.59    0.60
  -2   4  10    6.33    0.71
   2   4 -10    5.17    1.00
   2   4 -10    6.61    1.40
  -2   4  10    5.54    1.02
   2   4 -10    6.22    0.59
  -2   4  10    6.75    1.45
   2   4 -10    5.93    0.65
  -2   4  10    6.62    0.63
   2   4 -10    7.68    0.82
   2   4 -10    6.86    0.62
  -2   4  10    6.48    0.77
  -2   4  10    7.39    1.03
   2   4 -10    6.04    1.79
   2   4 -10    6.99    0.81
  -2   4  10    5.91    0.75
  -2   4  10    5.93    1.41
   2   4 -10    6.76    0.94
  -2   4  10    7.02    0.64
   1   4 -10   15.35    1.04
  -1   4  10   12.97    1.03
  -1   4  10   13.48    1.40
   1   4 -10   15.87    1.58
  -1   4  10   16.23    1.98
   1   4 -10   14.72    2.34
  -1   4  10   14.15    1.88
  -1   4  10   14.15    1.45
   1   4 -10   14.26    1.41
  -1   4  10   16.52    1.53
  -1   4  10   15.68    1.09
   1   4 -10   16.87    1.73
   1   4 -10   13.88    1.18
   1   4 -10   13.44    1.12
  -1   4  10   13.60    1.18
  -1   4  10   14.10    1.26
   1   4 -10   13.95    1.06
   1   4 -10   16.28    1.52
   0   4  10   28.40    2.72
   0   4  10   25.69    1.90
   0   4  10   24.46    1.91
   0   4 -10   24.46    1.91
   0   4 -10   25.29    1.99
   0   4 -10   24.64    1.74
   0   4  10   26.65    1.60
   0   4 -10   24.15    1.58
   0   4  10   24.97    2.37
   0   4 -10   28.29    1.68
   0   4 -10   27.32    3.09
   0   4  10   25.81    2.13
   0   4 -10   24.52    2.47
   0   4 -10   28.05    2.09
   0   4  10   25.65    1.67
   0   4  10   23.12    2.00
   0   4  10   27.84    1.97
   0   4 -10   26.47    2.15
  -1   4 -10   30.10    1.72
   1   4  10   31.34    2.86
   1   4  10   31.38    2.22
  -1   4 -10   27.07    2.98
   1   4  10   29.66    2.28
   1   4  10   26.89    1.68
   1   4  10   28.01    2.06
   1   4  10   28.11    2.05
  -1   4 -10   26.77    2.30
  -1   4 -10   26.49    1.89
  -1   4 -10   26.51    2.04
   1   4  10   29.91    1.81
  -1   4 -10   28.05    1.81
  -1   4 -10   29.88    2.22
  -1   4 -10   29.30    2.13
   1   4  10   24.81    2.17
   2   4  10   21.66    1.67
   2   4  10   23.68    2.26
  -2   4 -10   20.53    1.69
  -2   4 -10   23.48    1.84
   2   4  10   19.80    1.61
  -2   4 -10   20.55    2.07
   2   4  10   24.31    2.02
   2   4  10   21.98    1.50
  -2   4 -10   22.44    1.44
  -2   4 -10   24.46    1.59
   2   4  10   21.00    1.91
   2   4  10   22.96    1.76
  -2   4 -10   23.17    1.90
   2   4  10   24.37    1.47
  -2   4 -10   22.07    2.86
  -2   4 -10   23.95    1.52
   2   4  10   23.77    1.76
  -3   4 -10   19.83    1.37
   3   4  10   17.71    2.21
  -3   4 -10   20.70    1.60
   3   4  10   21.00    1.36
  -3   4 -10   21.75    2.02
   3   4  10   19.55    1.68
  -3   4 -10   17.27    1.42
  -3   4 -10   18.77    1.33
  -3   4 -10   18.57    2.65
  -3   4 -10   16.36    1.66
  -3   4 -10   22.23    1.44
  -3   4 -10   18.62    1.61
   3   4  10   16.42    1.77
   3   4  10   20.87    1.55
   3   4  10   22.00    1.93
   3   4  10   19.48    1.33
  -4   4 -10    1.38    0.44
  -4   4 -10    2.84    1.02
   4   4  10    1.02    0.39
   4   4  10    1.90    0.96
  -4   4 -10    0.70    0.70
  -4   4 -10    0.71    0.46
   4   4  10    0.58    0.59
   4   4  10    2.13    0.97
  -4   4 -10   -1.38    1.51
   4   4  10    1.21    0.45
   4   4  10    0.75    0.45
  -4   4 -10    0.48    0.71
   5   4  10   31.97    1.95
  -5   4 -10   33.84    3.58
   5   4  10   29.60    2.23
   5   4  10   28.38    3.00
   5   4  10   34.05    2.29
  -5   4 -10   31.78    2.55
  -5   4 -10   30.14    2.35
   5   4  10   29.05    1.90
  -5   4 -10   28.83    1.84
   6   4  10    2.69    0.51
   6   4  10    3.74    0.54
   6   4  10    3.40    0.56
  -6   4 -10    3.76    0.73
   6   4  10    4.81    0.65
  -6   4 -10    3.63    0.63
  -6   4 -10    2.33    0.76
  -6   4 -10    3.46    0.58
  -7   4 -10    0.85    0.51
   7   4  10   -0.12    0.42
   7   4  10    0.42    0.54
  -7   4 -10   -0.07    0.84
   7   4  10   -0.18    0.41
  -7   4 -10   -0.22    0.51
  -7   4 -10   -0.23    0.47
   7   4  10   -0.31    0.64
   8   4  10    1.26    0.35
   8   4  10    1.45    0.47
  -8   4 -10    1.01    0.51
  -8   4 -10    0.98    0.48
  -8   4 -10    1.03    0.89
  -8   4 -10    0.79    0.54
   8   4  10    1.03    0.70
   9   4  10    4.47    0.67
  -9   4 -10    4.68    0.59
  -9   4 -10    3.65    0.95
  -9   4 -10    4.39    0.66
   9   4  10    4.93    0.49
  10   4  10    1.76    0.53
  10   4  10    1.25    0.31
 -10   4 -10    1.12    0.39
  10   4  10    1.19    0.47
 -10   4 -10    1.39    0.61
 -10   4 -10    1.39    0.41
  11   4  10    0.30    0.26
 -11   4 -10    0.23    0.29
 -11   4 -10    0.52    0.55
  11   4  10   -0.02    0.31
 -11   4 -10    0.51    0.39
  11   4  10    0.15    0.40
  12   4  10   10.32    0.85
 -12   4 -10    9.75    0.95
  12   4  10    9.43    0.69
 -12   4 -10    8.45    0.75
 -15   5  10    0.23    0.22
  14   5 -10    8.14    0.67
 -14   5  10    8.95    0.68
  13   5 -10    5.91    0.69
 -13   5  10    6.40    0.71
  13   5 -10    7.60    0.64
 -13   5  10    6.37    0.75
  13   5 -10    6.09    0.46
  13   5 -10    5.71    0.70
 -12   5  10   23.48    1.40
  12   5 -10   22.45    1.46
 -12   5  10   21.96    1.69
 -12   5  10   21.70    1.70
  12   5 -10   22.55    1.64
  12   5 -10   20.51    1.53
  12   5 -10   21.81    1.38
  11   5 -10    6.84    0.77
  11   5 -10    5.24    0.76
 -11   5  10    5.81    0.82
 -11   5  10    6.36    0.60
  11   5 -10    5.66    0.59
  11   5 -10    5.58    0.67
 -11   5  10    6.98    0.82
  10   5 -10    9.21    0.89
 -10   5  10    7.33    1.07
  10   5 -10    7.56    0.77
 -10   5  10    9.51    1.11
  10   5 -10    7.98    1.05
 -10   5  10    9.08    0.81
  10   5 -10    9.82    0.75
  -9   5  10   12.28    1.21
  -9   5  10   10.81    0.87
  -9   5  10    9.78    1.03
   9   5 -10   10.62    0.86
   9   5 -10   11.16    0.83
  -9   5  10    9.25    0.71
   9   5 -10   12.13    1.20
   9   5 -10   10.77    1.13
  -8   5  10    6.19    0.67
   8   5 -10    7.21    0.98
   8   5 -10    5.83    0.64
  -8   5  10    7.21    0.59
  -8   5  10    5.08    0.92
   8   5 -10    5.58    0.57
  -8   5  10    5.53    0.83
  -8   5  10    6.57    0.86
   8   5 -10    5.35    0.76
  -7   5  10   12.93    1.35
   7   5 -10   14.78    1.06
   7   5 -10   12.45    0.96
  -7   5  10   12.58    1.42
  -7   5  10   14.16    1.47
   7   5 -10   12.68    1.26
   7   5 -10   11.64    1.23
  -7   5  10   13.84    0.91
  -7   5  10   13.32    1.09
  -6   5  10   19.63    1.81
   6   5 -10   17.52    2.36
   6   5 -10   20.72    1.60
  -6   5  10   21.23    1.70
   6   5 -10   22.01    1.38
   6   5 -10   20.70    1.61
  -6   5  10   21.57    1.43
   6   5 -10   20.51    1.32
  -6   5  10   21.89    1.34
   6   5 -10   22.91    1.86
  -6   5  10   19.61    2.56
  -6   5  10   20.28    1.65
   5   5 -10    6.47    0.62
   5   5 -10    7.09    0.64
  -5   5  10    8.55    0.86
  -5   5  10    6.43    0.95
  -5   5  10    6.63    0.65
   5   5 -10    6.51    0.95
  -5   5  10    3.88    1.65
  -5   5  10    7.59    0.77
   5   5 -10    5.01    1.58
  -5   5  10    5.25    0.88
  -5   5  10    9.18    1.02
   5   5 -10    7.63    0.73
  -5   5  10    6.38    0.59
   5   5 -10    6.30    0.78
  -4   5  10   40.19    2.28
   4   5 -10   40.75    2.26
  -4   5  10   41.93    2.95
   4   5 -10   40.01    2.81
  -4   5  10   33.81    3.49
   4   5 -10   36.35    2.58
  -4   5  10   37.35    2.59
  -4   5  10   38.95    2.74
  -4   5  10   35.81    2.77
  -4   5  10   39.60    2.33
   4   5 -10   42.61    2.36
   4   5 -10   31.65    3.16
   4   5 -10   37.69    2.68
   4   5 -10   39.85    2.67
  -4   5  10   37.91    2.83
   4   5 -10   38.26    2.71
   3   5 -10  146.17    9.15
   3   5 -10  156.62    9.79
  -3   5  10  161.36    8.27
   3   5 -10  157.69    8.91
  -3   5  10  141.04    9.08
  -3   5  10  140.57   10.13
  -3   5  10  153.64    9.75
  -3   5  10  149.67   10.01
   3   5 -10  152.29    8.25
   3   5 -10  138.17    9.99
  -3   5  10  152.58    9.88
   3   5 -10  156.54    8.85
   3   5 -10  146.00    9.33
   3   5 -10  153.04    9.75
  -3   5  10  158.33    8.82
  -3   5  10  165.65    8.83
   2   5 -10    0.67    0.38
  -2   5  10    0.99    0.51
  -2   5  10    0.48    0.27
   2   5 -10   -0.55    1.24
   2   5 -10    0.63    0.51
   2   5 -10    0.81    0.48
  -2   5  10    1.11    0.62
   2   5 -10    1.01    0.54
   2   5 -10    0.59    0.55
  -2   5  10    0.79    0.61
   2   5 -10    0.84    0.28
   2   5 -10    1.31    0.80
  -2   5  10    1.25    0.45
  -2   5  10    0.14    1.34
  -2   5  10   -0.57    1.24
  -2   5  10   -0.12    0.47
  -2   5  10    0.96    0.40
  -1   5  10   19.27    1.68
   1   5 -10   21.56    1.88
  -1   5  10   22.27    1.31
  -1   5  10   21.42    1.70
   1   5 -10   19.60    1.50
  -1   5  10   21.18    2.38
   1   5 -10   22.50    1.32
  -1   5  10   19.96    1.70
   1   5 -10   18.89    1.71
  -1   5  10   20.56    1.70
   1   5 -10   19.99    1.58
  -1   5  10   20.04    1.33
  -1   5  10   16.63    1.53
   1   5 -10   20.49    1.56
   1   5 -10   16.53    2.17
  -1   5  10   19.91    2.27
   1   5 -10   22.18    2.65
   1   5 -10   21.96    1.33
   0   5  10   -1.38    0.54
   0   5 -10    0.01    0.30
   0   5 -10    0.04    0.37
   0   5 -10   -0.24    0.83
   0   5  10    0.36    0.54
   0   5 -10    0.82    0.71
   0   5  10    0.41    0.71
   0   5  10   -0.46    0.37
   0   5  10    0.20    0.30
   0   5  10    1.22    0.71
   0   5 -10   -0.49    0.78
   0   5  10    0.31    0.95
   0   5 -10    1.75    1.77
   0   5 -10   -0.10    0.34
   0   5 -10   -0.05    0.44
  -1   5 -10    3.00    0.88
   1   5  10    2.12    1.09
   1   5  10    2.12    0.60
  -1   5 -10    3.16    0.57
   1   5  10    3.39    0.41
  -1   5 -10    3.41    0.36
  -1   5 -10    2.71    0.68
   1   5  10    2.92    0.49
   1   5  10    3.21    0.53
   1   5  10    2.84    0.56
   1   5  10    2.85    0.80
  -1   5 -10    2.68    0.89
  -1   5 -10    3.19    0.46
  -1   5 -10    3.28    2.01
   2   5  10    2.39    0.76
  -2   5 -10    2.61    0.45
  -2   5 -10    2.46    0.56
   2   5  10    1.90    1.02
   2   5  10    0.95    0.54
   2   5  10    2.67    0.47
   2   5  10    2.05    0.33
  -2   5 -10    2.24    0.85
  -2   5 -10    2.60    1.90
  -2   5 -10    1.71    0.63
   2   5  10    1.51    0.56
   2   5  10    1.60    0.57
   3   5  10   -0.05    0.39
  -3   5 -10    0.63    0.37
   3   5  10    0.07    0.32
  -3   5 -10    0.99    1.93
   3   5  10    0.55    0.30
  -3   5 -10    0.08    0.41
  -3   5 -10    1.50    0.82
   3   5  10    0.47    0.51
   3   5  10   -0.55    0.56
  -3   5 -10    0.09    0.39
  -3   5 -10    0.10    0.38
   3   5  10   -1.19    0.83
  -4   5 -10    3.59    0.66
  -4   5 -10    4.85    0.76
   4   5  10    4.37    0.79
  -4   5 -10    3.72    0.55
   4   5  10    4.60    0.56
   4   5  10    4.46    0.46
   4   5  10    3.90    0.81
  -4   5 -10    4.26    0.44
  -4   5 -10    4.91    0.71
   5   5  10    0.15    0.30
  -5   5 -10    0.49    0.45
   5   5  10    0.57    0.42
   5   5  10    0.40    0.46
  -5   5 -10    0.24    0.77
  -5   5 -10   -0.58    0.48
   5   5  10    0.19    0.68
  -5   5 -10    0.29    0.33
  -5   5 -10    0.14    0.57
  -6   5 -10   10.45    1.30
   6   5  10   15.00    1.02
  -6   5 -10   11.38    0.92
  -6   5 -10   12.43    1.28
   6   5  10   14.08    1.43
  -6   5 -10   13.09    0.89
   6   5  10   13.53    1.39
   6   5  10   11.82    0.91
   7   5  10    0.42    0.42
   7   5  10   -0.16    0.34
  -7   5 -10   -0.30    0.45
  -7   5 -10    0.84    0.88
   7   5  10    0.81    0.58
   7   5  10    0.33    0.48
  -7   5 -10   -0.10    0.22
  -7   5 -10   -0.37    0.50
  -8   5 -10    0.61    0.68
   8   5  10   -0.23    0.49
   8   5  10   -0.01    0.31
   8   5  10   -0.19    0.46
  -8   5 -10    0.46    0.61
  -8   5 -10    0.45    0.47
   9   5  10    0.05    0.21
   9   5  10    0.02    0.43
  -9   5 -10    0.49    0.48
   9   5  10    0.34    0.45
  -9   5 -10    0.59    0.57
  -9   5 -10   -0.43    0.58
  10   5  10   -0.41    0.40
  10   5  10   -0.12    0.42
 -10   5 -10    0.05    0.33
 -10   5 -10    0.13    0.58
 -11   5 -10    2.37    0.35
  11   5  10    2.64    0.44
  11   5  10    2.38    0.31
 -11   5 -10    2.02    0.55
  13   6 -10   -0.01    0.22
 -13   6  10   -0.12    0.37
  13   6 -10    0.16    0.29
  12   6 -10    1.09    0.27
 -12   6  10    0.52    0.33
 -12   6  10    0.69    0.34
  12   6 -10    0.35    0.48
 -12   6  10    0.30    0.50
  12   6 -10   -0.19    0.29
  11   6 -10    0.49    0.44
  11   6 -10    0.67    0.41
 -11   6  10    0.88    0.46
  11   6 -10    0.61    0.40
 -11   6  10    1.29    0.78
 -11   6  10    0.96    0.35
  10   6 -10    1.41    0.47
 -10   6  10    1.46    0.57
 -10   6  10    1.84    0.83
  10   6 -10    1.42    0.72
 -10   6  10    1.58    0.40
  10   6 -10    1.49    0.43
   9   6 -10    4.17    0.70
  -9   6  10    2.91    0.58
  -9   6  10    3.32    0.45
  -9   6  10    3.85    0.68
   9   6 -10    2.79    0.69
  -9   6  10    5.04    0.72
   9   6 -10    2.62    0.47
  -8   6  10    0.85    0.75
  -8   6  10    0.74    0.38
   8   6 -10    0.80    0.46
  -8   6  10    1.15    0.80
  -8   6  10    1.56    0.84
   8   6 -10    0.28    0.39
   8   6 -10    1.35    0.60
  -7   6  10   51.97    3.69
  -7   6  10   53.04    2.93
   7   6 -10   56.20    2.95
   7   6 -10   58.00    3.62
  -7   6  10   50.68    3.63
  -7   6  10   50.12    3.62
   7   6 -10   50.81    3.34
   7   6 -10   47.54    3.51
  -6   6  10   10.14    1.12
  -6   6  10   10.97    1.07
   6   6 -10    8.55    0.98
   6   6 -10   10.40    0.83
   6   6 -10    9.28    0.93
  -6   6  10    9.30    1.06
   6   6 -10   10.78    1.21
  -6   6  10    9.07    0.80
   5   6 -10    6.96    0.60
  -5   6  10    7.21    0.88
   5   6 -10    5.95    1.02
   5   6 -10    7.37    0.74
   5   6 -10    5.48    0.80
  -5   6  10    7.14    0.83
  -5   6  10    5.83    0.56
  -5   6  10    7.55    0.88
  -4   6  10    1.40    0.51
  -4   6  10    1.66    0.57
   4   6 -10    1.92    0.80
  -4   6  10    2.04    0.37
  -4   6  10    1.47    0.74
   4   6 -10    2.09    0.38
   4   6 -10    2.26    0.50
   4   6 -10    1.86    0.47
  -3   6  10   13.78    1.28
  -3   6  10   12.86    1.43
  -3   6  10   13.06    1.23
   3   6 -10   12.95    1.32
   3   6 -10   12.55    0.93
   3   6 -10   13.25    1.09
  -3   6  10   13.80    0.93
   3   6 -10   13.01    1.44
   2   6 -10   54.90    3.67
   2   6 -10   52.44    3.56
  -2   6  10   46.32    3.72
  -2   6  10   52.05    3.61
  -2   6  10   56.32    2.93
   2   6 -10   50.62    3.32
  -2   6  10   50.86    3.62
   2   6 -10   53.31    2.91
  -1   6  10   -0.93    0.73
  -1   6  10    0.53    0.33
   1   6 -10    0.38    0.49
  -1   6  10    0.08    0.71
  -1   6  10    0.63    0.64
   1   6 -10    0.21    0.61
   1   6 -10    0.15    0.39
   1   6 -10    0.52    0.32
   0   6  10    9.69    1.12
   0   6  10    8.44    0.72
   0   6  10    7.97    0.88
   0   6 -10    7.83    0.83
   0   6 -10    8.84    1.02
   0   6  10    7.23    0.93
   0   6 -10    7.32    0.70
   0   6 -10    8.40    0.88
   1   6  10    9.49    1.02
  -1   6 -10    9.98    0.76
   1   6  10    8.20    0.96
  -1   6 -10    9.30    0.99
   1   6  10   10.69    1.09
  -1   6 -10    8.17    0.87
  -1   6 -10   11.08    1.29
   1   6  10    9.08    0.77
  -2   6 -10    0.88    0.65
  -2   6 -10    1.71    0.58
  -2   6 -10    0.65    0.92
   2   6  10    1.00    0.35
   2   6  10    1.18    0.43
   2   6  10    1.31    0.59
  -2   6 -10    0.88    0.36
  -3   6 -10    6.16    0.56
   3   6  10    6.11    0.80
   3   6  10    5.74    0.74
  -3   6 -10    5.86    1.08
   3   6  10    6.97    0.56
  -3   6 -10    5.90    0.71
   3   6  10    5.76    0.83
  -4   6 -10    0.30    0.87
   4   6  10    1.95    0.57
   4   6  10    0.74    0.46
   4   6  10    1.19    0.50
   4   6  10    0.96    0.35
  -4   6 -10    1.55    0.47
  -4   6 -10    0.90    0.36
  -5   6 -10   21.43    1.30
  -5   6 -10   21.23    1.71
   5   6  10   19.84    1.73
   5   6  10   20.74    1.64
  -5   6 -10   19.37    1.79
   5   6  10   22.31    1.30
  -5   6 -10   17.87    1.49
  -6   6 -10    2.25    0.56
  -6   6 -10    4.32    0.70
  -6   6 -10    4.20    0.70
   6   6  10    4.13    0.79
  -6   6 -10    4.16    0.46
   6   6  10    3.82    0.74
   7   6  10    0.95    0.48
  -7   6 -10    0.66    0.77
   7   6  10    0.53    0.35
  -7   6 -10   -0.26    0.51
   7   6  10    0.21    0.39
  -7   6 -10    0.29    0.34
   8   6  10   11.88    0.83
   8   6  10   12.42    1.18
  -8   6 -10   11.22    1.12
  -8   6 -10   12.59    1.22
  -8   6 -10   11.44    0.82
   8   6  10   10.07    0.93
  -9   6 -10    6.26    0.71
  -9   6 -10    5.75    0.50
   9   6  10    6.87    0.56
   9   6  10    5.62    0.72
  10   6  10    0.99    0.34
  10   6  10    0.92    0.22
  11   7 -10    6.80    0.61
 -11   7  10    5.47    0.63
 -10   7  10    1.61    0.56
  10   7 -10    2.09    0.42
  10   7 -10    1.86    0.41
 -10   7  10    2.61    0.44
   9   7 -10   13.17    1.02
   9   7 -10   12.31    1.11
  -9   7  10   13.56    1.31
  -9   7  10   13.79    1.16
   9   7 -10   12.19    0.73
  -8   7  10   -0.70    0.53
   8   7 -10    0.63    0.44
  -8   7  10    0.90    0.72
   8   7 -10    0.03    0.18
   8   7 -10   -0.30    0.48
  -7   7  10    1.19    0.76
   7   7 -10    1.16    0.23
   7   7 -10    1.91    0.48
  -7   7  10    2.16    0.82
   7   7 -10    1.04    0.58
   6   7 -10    1.23    0.60
   6   7 -10    0.49    0.18
  -6   7  10   -0.05    0.73
  -6   7  10    0.85    0.77
   6   7 -10    0.48    0.44
   5   7 -10    4.53    0.61
  -5   7  10    3.94    0.71
   5   7 -10    4.85    0.42
   5   7 -10    5.71    0.95
  -5   7  10    5.84    0.76
   4   7 -10    8.32    0.52
   4   7 -10    6.91    1.02
  -4   7  10    7.79    0.88
   4   7 -10    6.63    0.85
  -4   7  10    9.41    0.99
  -3   7  10   -0.04    0.47
   3   7 -10   -0.05    0.40
  -3   7  10    0.59    0.54
  -3   7  10    0.03    0.48
   3   7 -10    1.13    0.77
  -2   7  10    3.96    0.85
   2   7 -10    4.27    0.57
   2   7 -10    3.38    0.82
  -2   7  10    5.17    0.83
  -2   7  10    3.92    0.88
   2   7 -10    4.88    0.71
  -1   7  10    0.36    0.77
  -1   7  10    0.05    0.45
   1   7 -10   -0.02    0.50
   1   7 -10    0.13    0.57
  -1   7  10   -0.13    0.56
   1   7 -10    0.45    0.40
   0   7  10    1.24    0.62
   0   7  10    1.69    0.64
   0   7 -10    0.97    0.52
   0   7 -10    0.76    0.65
   0   7 -10    1.73    0.45
   0   7  10    0.87    0.83
   1   7  10    9.77    1.17
  -1   7 -10    9.29    1.07
   1   7  10   10.49    1.14
  -1   7 -10    9.79    1.02
  -1   7 -10   10.76    0.92
  -2   7 -10   30.90    2.19
   2   7  10   28.10    2.16
  -2   7 -10   31.56    2.52
   2   7  10   30.12    2.31
  -2   7 -10   34.50    2.13
  -3   7 -10    1.84    0.64
  -3   7 -10    1.11    0.90
   3   7  10    2.15    0.60
   3   7  10    1.54    0.52
  -4   7 -10   44.29    3.07
   4   7  10   44.17    2.96
   4   7  10   42.44    2.97
  -4   7 -10   38.98    2.82
   4   7  10   42.12    2.82
   5   7  10    3.71    0.62
   5   7  10    4.04    0.57
  -5   7 -10    6.67    0.60
   5   7  10    5.04    0.59
  -5   7 -10    7.01    0.78
   6   7  10    1.12    0.41
   6   7  10    1.54    0.61
  -6   7 -10    1.07    0.52
   7   7  10    0.94    0.50
  -7   7 -10    2.47    0.50
   7   7  10    2.66    0.41
   8   7  10    0.64    0.30
   8   8 -10    1.37    0.32
  -8   8  10    1.89    0.41
  -7   8  10    0.24    0.40
   7   8 -10    0.40    0.52
   7   8 -10    0.16    0.35
  -7   8  10    0.49    0.44
   6   8 -10   11.44    1.03
  -6   8  10   10.93    1.02
   5   8 -10    4.85    0.82
  -5   8  10    6.45    0.73
   4   8 -10    6.23    0.76
  -4   8  10    6.12    0.84
  -3   8  10    4.23    0.65
   3   8 -10    4.55    0.66
   2   8 -10   11.58    1.09
  -2   8  10   11.49    1.21
  -2   8  10   11.01    1.03
   1   8 -10    1.89    0.48
  -1   8  10    2.40    0.70
  -1   8  10    2.32    0.49
   1   8 -10    1.06    0.51
   1   8 -10    2.18    0.58
   0   8 -10    2.54    0.76
   0   8  10    3.77    0.56
   0   8 -10    2.69    0.55
   0   8 -10    4.77    0.52
   0   8  10    3.90    0.64
   1   8  10    6.31    0.85
   1   8  10    9.56    0.83
  -1   8 -10   10.25    1.07
   2   8  10   -0.13    0.32
   2   8  10   -0.43    0.48
  -2   8 -10    0.03    0.51
  -2   8 -10    0.39    0.57
  -3   8 -10    1.54    0.40
  -3   8 -10    0.76    0.71
   3   8  10    1.99    0.35
   3   8  10    1.20    0.49
  -4   8 -10    1.09    0.69
   4   8  10    3.03    0.50
  -5   8 -10   18.25    1.35
  17   0 -11    4.02    0.35
 -17   0  11    3.50    0.34
  16   0 -11    0.01    0.27
 -16   0  11    0.02    0.31
 -15   0  11    3.53    0.45
  15   0 -11    3.49    0.49
 -14   0  11    0.52    0.36
  14   0 -11   -0.72    0.38
  13   0 -11   11.20    1.01
 -13   0  11   13.91    0.97
 -12   0  11    0.25    0.50
 -11   0  11   52.35    3.01
 -10   0  11   -1.10    0.45
  -9   0  11    0.97    0.47
   4   0  11   -0.40    0.84
  -4   0 -11    0.01    1.07
   5   0  11   74.43    5.10
  -5   0 -11   78.93    5.59
  -6   0 -11   -0.80    0.40
  -7   0 -11   16.36    1.20
  -8   0 -11    0.04    0.45
  -9   0 -11   14.06    1.09
   9   0  11   12.15    0.99
 -10   0 -11    0.13    0.33
  10   0  11    0.21    0.37
 -11   0 -11    3.84    0.46
  11   0  11    3.53    0.39
 -12   0 -11   -0.17    0.29
  12   0  11   -0.20    0.23
 -13   0 -11    4.82    0.40
  13   0  11    4.83    0.38
 -13   0 -11    3.30    0.55
 -17  -1  11    3.74    0.50
  17   1 -11    5.50    0.39
 -16  -1  11    4.73    0.48
 -16   1  11    4.93    0.43
  16   1 -11    3.68    0.38
 -16   1  11    3.01    0.53
 -15  -1  11    3.77    0.62
 -15   1  11    6.83    0.85
  15   1 -11    5.74    0.54
 -15   1  11    5.74    0.57
 -14  -1  11    4.76    0.61
 -14   1  11    4.00    0.78
  14   1 -11    2.37    0.48
 -14   1  11    3.61    0.45
 -13   1  11    7.22    0.62
 -13   1  11    7.36    0.81
  13   1 -11    6.90    0.64
 -12   1  11    0.19    0.48
  12   1 -11    0.68    0.41
 -11   1  11   15.06    1.16
  11   1 -11   14.42    1.07
 -10   1  11   19.74    1.32
  10   1 -11   18.41    1.25
   9   1 -11   18.61    1.23
  -9   1  11   19.37    1.23
  -8   1  11    7.70    0.68
   8   1 -11    7.05    0.61
   7   1 -11   27.04    1.64
  -7   1  11   27.51    2.65
  -7   1  11   27.33    2.20
  -7   1  11   28.82    1.70
  -6   1  11    7.78    1.24
  -6   1  11    8.13    1.21
   6   1 -11    8.56    0.72
  -6   1  11    8.79    0.71
  -5   1  11   11.68    1.40
   5   1 -11   10.45    1.17
  -5   1  11   11.67    0.91
   5   1 -11   13.64    1.46
  -5   1  11   10.92    1.34
   5   1 -11   11.20    0.83
  -4   1  11    6.03    0.55
   4   1 -11    8.31    1.21
  -4   1  11    8.29    1.12
  -4   1  11    9.01    1.32
   4   1 -11    7.48    1.03
  -3   1  11    0.19    0.58
   3   1 -11    0.15    0.65
   3   1 -11   -0.80    0.81
  -3   1  11    0.54    0.67
  -2   1  11    3.02    0.90
   2   1 -11    3.04    0.79
  -2   1  11    3.05    0.80
   2   1 -11    3.41    0.97
   1   1 -11    7.24    1.04
   1   1 -11    7.04    1.18
  -1   1  11    8.89    1.11
  -1   1  11    9.01    1.07
   0   1  11    0.49    0.89
   0   1  11   -0.66    0.76
   0   1 -11    0.94    0.89
   0   1 -11    0.89    0.68
  -1   1 -11   20.28    1.37
   1   1  11   21.93    1.41
   1   1  11   23.69    2.06
   1   1  11   26.35    2.23
  -1   1 -11   25.90    2.17
  -1   1 -11   25.37    1.94
   2   1  11    5.71    1.12
  -2   1 -11    5.54    0.55
   2   1  11    5.32    1.17
   2   1  11    7.06    1.10
  -2   1 -11    5.44    0.99
  -2   1 -11    8.50    1.57
  -2   1 -11    5.68    0.98
   2   1  11    6.27    0.53
   3   1  11    4.99    1.19
  -3   1 -11    3.62    0.41
  -3   1 -11    6.10    1.49
  -3   1 -11    4.28    1.18
  -3   1 -11    3.36    0.89
   3   1  11    4.71    0.45
  -4   1 -11   23.73    2.61
   4   1  11   22.58    2.29
   4   1  11   22.53    1.35
  -4   1 -11   21.32    1.39
   5   1  11   28.90    2.59
  -5   1 -11   33.85    1.91
  -5   1 -11   31.32    3.17
  -6   1 -11    1.77    1.37
  -6   1 -11    0.66    0.42
   6   1  11    0.88    1.00
   6   1  11    0.13    0.26
   7   1  11    5.90    0.51
  -7   1 -11    5.70    0.62
  -8   1 -11    0.49    0.46
   8   1  11    0.69    0.28
   9   1  11   13.84    0.93
  -9   1 -11   13.85    0.98
  10   1  11    1.36    0.30
 -10   1 -11    0.70    0.72
 -10   1 -11    0.32    0.44
 -11  -1 -11   20.15    1.39
  11   1  11   24.79    1.38
 -11   1 -11   20.29    1.65
 -11   1 -11   23.66    1.36
 -12  -1 -11   -0.07    0.43
 -12   1 -11    0.26    0.39
 -12   1 -11    0.04    0.48
  12   1  11    0.12    0.22
 -12   1 -11    0.07    0.24
 -13  -1 -11   11.72    0.77
  13   1  11   11.45    0.69
 -13   1 -11   10.97    0.66
 -13   1 -11    9.17    0.85
 -13   1 -11   11.97    1.00
  13   1  11   11.30    0.90
 -17   2  11    8.08    0.73
  16   2 -11    1.68    0.48
 -16   2  11    2.10    0.45
  16   2 -11    1.99    0.24
 -16   2  11    2.23    0.41
 -15   2  11    8.26    0.93
  15   2 -11    8.73    0.77
  15   2 -11   10.17    0.70
 -15   2  11    8.20    0.90
 -15   2  11    8.68    0.57
  14   2 -11   13.74    0.88
  14   2 -11   12.25    1.03
 -14   2  11   14.50    1.30
 -14   2  11   13.98    0.92
 -13   2  11    5.88    0.69
  13   2 -11    4.82    0.45
  13   2 -11    4.41    0.68
 -13   2  11    4.71    0.53
 -12   2  11   -0.36    0.29
 -12   2  11   -0.47    0.67
  12   2 -11   -0.18    0.38
  12   2 -11   -1.75    0.49
 -11   2  11    2.04    0.69
  11   2 -11    1.07    0.55
 -11   2  11    3.03    0.50
  11   2 -11    1.89    0.42
  10   2 -11    7.28    0.82
 -10   2  11    9.09    0.83
 -10   2  11    7.25    1.66
  10   2 -11    8.99    0.77
 -10   2  11    8.11    0.82
 -10   2  11    7.80    1.69
  -9   2  11    0.70    0.88
  -9   2  11    0.67    0.65
  -9   2  11   -0.72    1.18
   9   2 -11    0.15    0.35
  -9   2  11    0.44    0.43
  -9   2  11    0.34    0.41
   9   2 -11    0.50    0.49
  -8   2  11    1.05    1.13
  -8   2  11    2.86    0.46
   8   2 -11    2.49    0.55
   8   2 -11    0.81    1.03
  -8   2  11    3.15    1.30
   8   2 -11    3.33    1.17
   8   2 -11    2.19    0.39
  -8   2  11    1.90    0.49
   8   2 -11    1.90    0.66
  -8   2  11    1.25    0.91
   7   2 -11    2.09    0.66
  -7   2  11    3.24    0.99
   7   2 -11    4.16    1.08
  -7   2  11    4.19    1.30
  -7   2  11    2.56    1.10
  -7   2  11    2.55    0.64
   7   2 -11    3.87    0.36
   7   2 -11    3.35    0.46
  -7   2  11    4.04    0.48
   7   2 -11    3.39    1.14
  -6   2  11    3.25    1.19
   6   2 -11    3.58    0.71
  -6   2  11    3.44    0.45
  -6   2  11    2.76    0.49
   6   2 -11    3.06    0.40
   6   2 -11    3.73    0.54
   6   2 -11    2.22    1.02
  -6   2  11    2.92    1.08
  -6   2  11    2.84    0.93
  -6   2  11    2.54    0.43
   6   2 -11    1.53    0.92
   5   2 -11    4.57    1.04
  -5   2  11    4.46    0.51
   5   2 -11    3.32    1.08
  -5   2  11    4.69    1.20
  -5   2  11    5.85    0.69
  -5   2  11    4.90    0.52
  -5   2  11    4.35    1.00
   5   2 -11    5.19    0.47
   5   2 -11    5.42    0.95
   5   2 -11    4.54    0.59
  -5   2  11    3.75    1.06
   4   2 -11    2.23    0.37
  -4   2  11    0.53    0.82
   4   2 -11    2.04    0.77
   4   2 -11    1.22    0.87
  -4   2  11    2.77    1.11
  -4   2  11    4.14    0.61
  -4   2  11    2.96    0.88
   4   2 -11    2.08    0.74
  -4   2  11    2.83    0.42
  -4   2  11    2.17    0.50
   4   2 -11    2.53    0.40
  -3   2  11    6.23    0.71
  -3   2  11    6.11    1.23
  -3   2  11    6.63    1.09
   3   2 -11    5.91    0.63
  -3   2  11    5.71    0.69
   3   2 -11    5.86    1.03
  -3   2  11    4.38    1.03
   3   2 -11    5.15    1.10
  -3   2  11    5.30    0.56
   3   2 -11    6.36    0.51
   3   2 -11    7.07    0.98
  -3   2  11    6.13    0.55
  -2   2  11    7.59    0.68
   2   2 -11    6.88    0.73
  -2   2  11    7.79    1.17
  -2   2  11    5.87    0.69
   2   2 -11    7.40    0.70
   2   2 -11    8.01    1.04
   2   2 -11    6.79    0.62
   2   2 -11    7.51    1.22
  -2   2  11    7.89    0.69
  -2   2  11    7.98    1.29
  -2   2  11    9.24    1.22
   2   2 -11    7.48    1.11
   1   2 -11   17.41    1.68
   1   2 -11   16.40    1.53
   1   2 -11   14.17    1.17
  -1   2  11   18.11    1.78
   1   2 -11   17.40    1.69
  -1   2  11   15.15    0.98
  -1   2  11   19.31    1.89
  -1   2  11   18.44    1.75
  -1   2  11   13.56    1.11
  -1   2  11   18.01    1.71
   1   2 -11   14.25    0.99
   0   2 -11    3.76    0.86
   0   2  11    3.82    0.57
   0   2 -11    3.93    0.82
   0   2  11    3.50    1.08
   0   2  11    4.07    0.94
   0   2 -11    3.37    0.41
   0   2 -11    3.90    0.47
   0   2  11    4.92    1.01
   0   2  11    3.25    0.39
   0   2 -11    3.84    1.41
  -1   2 -11   45.48    3.50
  -1   2 -11   36.07    2.62
   1   2  11   40.53    3.05
  -1   2 -11   39.35    2.79
   1   2  11   35.15    2.82
   1   2  11   32.67    2.27
   1   2  11   34.06    2.00
  -1   2 -11   34.65    2.01
  -1   2 -11   34.06    2.26
   1   2  11   36.43    2.73
  -2   2 -11   16.70    1.59
  -2   2 -11   19.58    1.86
  -2   2 -11   17.56    2.19
  -2   2 -11   16.33    1.04
  -2   2 -11   14.72    1.22
   2   2  11   16.36    1.81
   2   2  11   15.00    0.98
   2   2  11   13.18    1.20
   2   2  11   17.37    1.89
   2   2  11   15.93    1.56
  -3   2 -11   31.19    2.38
   3   2  11   27.80    1.95
   3   2  11   29.26    2.57
   3   2  11   29.48    2.49
   3   2  11   32.74    2.79
  -3   2 -11   28.73    1.97
  -3   2 -11   29.26    1.73
  -3   2 -11   33.17    3.16
   3   2  11   29.35    1.71
  -3   2 -11   32.96    2.69
  -4   2 -11    1.86    0.31
   4   2  11    1.05    0.93
  -4   2 -11    0.21    0.57
   4   2  11    3.36    1.11
  -4   2 -11    2.24    1.11
   4   2  11    1.49    0.47
  -4   2 -11    1.70    1.13
  -4   2 -11    1.74    0.41
   4   2  11    1.07    0.83
  -5   2 -11    1.12    0.56
   5   2  11    0.73    0.46
   5   2  11   -1.11    0.88
   5   2  11    1.11    0.50
  -5   2 -11    0.78    0.85
  -5   2 -11    0.21    0.37
   5   2  11    1.20    1.13
   5   2  11    0.64    1.09
  -5   2 -11    0.77    0.40
  -5   2 -11    2.09    0.86
   5   2  11    1.46    0.27
  -5   2 -11    0.45    1.43
  -6   2 -11    1.11    1.12
   6   2  11    0.58    0.77
  -6   2 -11    0.81    0.39
   6   2  11    0.79    0.48
   6   2  11    0.42    0.35
  -6   2 -11    0.06    0.52
  -6   2 -11    0.52    0.40
  -6   2 -11    0.24    0.88
   7   2  11   -0.31    0.44
   7   2  11    0.02    0.33
  -7   2 -11   -0.53    1.03
  -7   2 -11    0.03    0.37
  -7   2 -11   -0.41    0.38
   8   2  11   35.19    1.89
  -8   2 -11   31.96    1.91
   8   2  11   30.47    2.09
  -8   2 -11   31.58    2.14
  -9   2 -11   10.51    0.91
   9   2  11    8.20    0.84
  -9   2 -11    8.38    0.70
   9   2  11   10.07    0.76
  10   2  11   26.05    1.46
  10   2  11   24.87    1.69
 -10   2 -11   24.85    1.50
 -10   2 -11   25.62    1.73
 -11   2 -11   16.80    1.05
 -11   2 -11   18.55    1.49
 -11   2 -11   15.16    1.34
  11   2  11   18.64    1.07
  11   2  11   16.62    1.22
  12   2  11    1.33    0.18
 -12   2 -11    1.40    0.55
  12   2  11    1.54    0.56
 -12   2 -11    1.25    0.56
  12   2  11    1.42    0.35
  13   2  11    1.07    0.27
  13   2  11    0.56    0.33
 -13   2 -11    0.41    0.43
 -13   2 -11   -0.14    0.40
 -16   3  11    0.45    0.26
  16   3 -11    0.05    0.37
 -16   3  11    0.79    0.38
 -15   3  11    0.74    0.53
  15   3 -11    1.37    0.35
 -15   3  11    0.67    0.59
  15   3 -11    1.50    0.40
 -15   3  11    1.45    0.55
 -14   3  11    3.76    0.73
  14   3 -11    3.45    0.59
 -14   3  11    4.13    0.68
  14   3 -11    3.23    0.29
  14   3 -11    4.17    0.57
 -14   3  11    3.16    0.66
 -13   3  11    2.87    0.59
 -13   3  11    1.90    0.48
 -13   3  11    2.11    0.68
  13   3 -11    2.03    0.44
  13   3 -11    1.90    0.29
 -12   3  11    9.87    0.89
  12   3 -11   11.32    0.99
 -12   3  11    6.40    0.49
 -12   3  11   10.18    0.87
 -12   3  11    8.67    0.91
 -12   3  11   10.82    1.09
  12   3 -11   11.31    0.69
 -11   3  11    0.34    0.52
 -11   3  11   -0.11    0.45
  11   3 -11    0.65    0.33
  11   3 -11    0.59    0.55
 -11   3  11    0.05    0.26
 -11   3  11    0.74    0.58
  10   3 -11    0.78    0.38
 -10   3  11    0.50    0.35
 -10   3  11    1.32    0.64
 -10   3  11    0.77    0.42
 -10   3  11    0.00    0.72
  10   3 -11    0.99    0.40
  10   3 -11    0.67    0.33
  -9   3  11   27.50    1.91
   9   3 -11   27.87    1.87
   9   3 -11   29.58    1.72
   9   3 -11   28.58    2.90
  -9   3  11   30.11    2.04
  -9   3  11   28.25    3.04
  -9   3  11   30.86    1.74
   9   3 -11   30.78    1.92
  -8   3  11    2.04    1.18
  -8   3  11    0.73    0.70
  -8   3  11    2.01    1.34
   8   3 -11    1.02    0.81
  -8   3  11    0.48    0.52
  -8   3  11    1.39    0.34
   8   3 -11    0.91    0.37
  -8   3  11   -0.19    0.81
   8   3 -11    1.01    0.34
   8   3 -11    2.47    0.98
   8   3 -11    0.77    0.48
   8   3 -11    0.28    0.52
  -8   3  11    1.56    0.59
  -7   3  11   61.22    3.50
   7   3 -11   58.76    3.59
  -7   3  11   63.00    4.30
  -7   3  11   61.45    3.59
  -7   3  11   67.96    3.92
   7   3 -11   62.68    3.87
  -7   3  11   63.38    4.67
   7   3 -11   67.01    4.25
   7   3 -11   66.96    3.49
   7   3 -11   63.39    4.31
  -7   3  11   67.37    4.31
   6   3 -11    0.06    0.28
  -6   3  11    0.80    0.60
   6   3 -11   -1.63    0.89
   6   3 -11    0.62    0.32
  -6   3  11   -0.13    0.29
   6   3 -11   -0.60    0.48
  -6   3  11    1.26    1.18
   6   3 -11    0.88    0.79
  -6   3  11   -0.69    0.75
  -6   3  11    0.40    0.52
   6   3 -11    0.33    0.32
  -6   3  11   -0.53    0.46
  -6   3  11   -0.87    0.98
  -5   3  11    7.59    0.62
  -5   3  11    6.85    0.76
   5   3 -11    8.44    1.09
   5   3 -11    6.46    0.59
   5   3 -11    7.47    1.24
   5   3 -11    7.52    0.71
   5   3 -11    6.75    1.14
  -5   3  11    7.57    0.78
  -5   3  11    4.90    1.04
  -5   3  11    9.11    1.43
  -5   3  11    7.88    1.41
   5   3 -11    6.64    0.60
  -5   3  11    7.42    1.33
  -5   3  11    7.38    0.72
   5   3 -11    6.05    1.55
   5   3 -11    8.36    0.88
  -4   3  11    4.61    1.17
  -4   3  11    6.08    0.51
   4   3 -11    7.43    0.80
   4   3 -11    6.70    0.66
   4   3 -11    6.42    0.55
  -4   3  11    6.76    0.60
   4   3 -11    7.29    1.62
  -4   3  11    6.91    1.18
   4   3 -11    4.89    0.82
  -4   3  11    6.15    0.71
  -4   3  11    6.53    1.04
  -4   3  11    6.45    0.80
  -4   3  11    5.39    1.33
   4   3 -11    5.36    1.23
   4   3 -11    5.94    0.61
   4   3 -11    5.42    1.17
   3   3 -11   -0.11    0.52
   3   3 -11    0.23    1.35
  -3   3  11    2.55    1.17
  -3   3  11    1.49    0.51
   3   3 -11    1.80    0.93
  -3   3  11   -0.04    0.75
   3   3 -11    0.60    0.98
  -3   3  11    0.51    0.93
   3   3 -11    0.94    0.44
  -3   3  11    0.53    0.47
   3   3 -11    0.99    0.42
  -3   3  11    0.79    0.31
   3   3 -11    0.85    0.27
   3   3 -11    1.82    0.57
  -3   3  11    0.84    0.50
  -3   3  11   -0.19    0.97
  -2   3  11   22.25    1.80
  -2   3  11   25.06    1.67
  -2   3  11   23.19    1.55
   2   3 -11   24.34    1.40
   2   3 -11   25.92    1.91
   2   3 -11   24.01    1.80
  -2   3  11   23.81    1.42
  -2   3  11   26.44    2.42
   2   3 -11   24.52    1.63
  -2   3  11   24.45    2.07
  -2   3  11   26.55    2.52
   2   3 -11   29.05    2.69
   2   3 -11   25.33    2.16
   2   3 -11   22.53    1.51
   2   3 -11   22.89    2.29
  -2   3  11   26.49    2.28
  -1   3  11    3.27    0.49
  -1   3  11    2.38    1.09
  -1   3  11    4.21    0.98
   1   3 -11    4.88    0.87
   1   3 -11    4.85    0.56
  -1   3  11    3.52    0.56
  -1   3  11    4.47    1.13
   1   3 -11    4.13    0.52
  -1   3  11    4.02    0.40
   1   3 -11    5.39    1.69
   1   3 -11    1.93    1.04
   1   3 -11    3.63    0.61
  -1   3  11    5.22    1.09
  -1   3  11    3.64    0.54
   1   3 -11    3.53    0.38
   1   3 -11    4.36    1.06
   0   3  11    0.80    0.45
   0   3 -11   -0.64    0.94
   0   3  11   -0.52    1.06
   0   3  11    0.67    0.42
   0   3  11   -0.22    0.91
   0   3  11    0.12    0.33
   0   3 -11   -0.47    0.44
   0   3  11    0.54    0.80
   0   3 -11   -0.66    0.64
   0   3 -11    0.09    0.29
   0   3 -11   -0.41    0.26
   0   3 -11    0.89    1.40
   0   3  11    0.00    0.30
   0   3 -11   -1.10    0.84
   0   3 -11   -0.13    0.42
  -1   3 -11   11.25    0.88
  -1   3 -11   10.09    0.92
  -1   3 -11    9.98    0.99
  -1   3 -11   11.12    1.47
   1   3  11   11.70    1.71
   1   3  11   10.20    1.33
   1   3  11   10.24    0.93
   1   3  11   11.58    0.79
  -1   3 -11   11.54    0.78
  -1   3 -11   13.76    1.89
   1   3  11   10.84    0.98
  -1   3 -11   12.52    1.30
   1   3  11   10.71    1.47
   2   3  11    2.02    0.48
  -2   3 -11   -0.17    1.43
  -2   3 -11    3.62    1.12
   2   3  11    1.30    0.44
   2   3  11    2.20    0.47
   2   3  11    1.52    1.00
  -2   3 -11    1.71    0.77
   2   3  11    1.44    0.28
  -2   3 -11    1.60    0.33
  -2   3 -11    1.75    0.65
   2   3  11    0.73    0.85
  -2   3 -11    1.53    0.49
   2   3  11    2.48    0.95
  -2   3 -11    1.94    0.47
   3   3  11   -0.01    0.93
   3   3  11    0.38    0.26
   3   3  11    1.01    0.46
  -3   3 -11   -0.33    0.47
  -3   3 -11    0.88    0.30
   3   3  11   -0.45    0.79
  -3   3 -11    0.02    0.60
   3   3  11    0.81    0.43
  -3   3 -11    1.33    1.56
  -3   3 -11    0.65    0.34
   3   3  11    1.19    0.57
  -3   3 -11    0.68    0.71
  -3   3 -11   -1.67    1.00
   3   3  11   -0.27    0.86
   4   3  11   12.57    1.07
  -4   3 -11   13.55    1.08
  -4   3 -11   14.30    1.35
  -4   3 -11   14.44    1.76
  -4   3 -11   12.08    1.41
   4   3  11    9.11    1.45
   4   3  11   13.64    0.84
  -4   3 -11   12.95    1.13
   4   3  11   12.93    1.66
  -4   3 -11   12.57    0.86
   4   3  11    8.94    1.54
  -4   3 -11   11.80    2.21
   4   3  11   12.23    1.05
   4   3  11   12.55    1.30
  -5   3 -11   55.37    3.01
   5   3  11   55.80    3.38
  -5   3 -11   57.73    3.39
  -5   3 -11   53.26    3.15
   5   3  11   47.58    3.89
   5   3  11   53.01    3.77
  -5   3 -11   57.24    3.73
   5   3  11   55.69    3.00
   5   3  11   53.70    3.11
  -5   3 -11   52.90    3.99
   5   3  11   54.65    4.07
  -6   3 -11   56.21    3.90
   6   3  11   62.21    3.62
  -6   3 -11   59.16    3.22
   6   3  11   57.36    4.01
   6   3  11   57.95    4.49
   6   3  11   58.32    3.34
  -6   3 -11   59.20    3.39
   6   3  11   60.48    3.22
  -6   3 -11   60.12    3.62
  -6   3 -11   54.38    4.80
  -7   3 -11    0.98    0.54
  -7   3 -11   -1.16    0.45
   7   3  11    0.48    0.27
  -7   3 -11    0.62    0.32
   7   3  11   -0.11    0.32
   7   3  11   -0.17    0.30
  -7   3 -11    0.14    0.42
   8   3  11    7.46    0.70
  -8   3 -11    8.73    0.95
  -8   3 -11    7.22    0.56
  -8   3 -11    7.48    0.78
  -8   3 -11    8.13    0.81
   8   3  11    6.55    0.57
   9   3  11    7.21    0.55
  -9   3 -11    9.05    0.77
  -9   3 -11    7.27    0.69
  -9   3 -11    6.20    1.02
   9   3  11    7.43    0.89
   9   3  11    8.41    0.78
 -10   3 -11    1.11    0.56
  10   3  11    1.04    0.50
  10   3  11    1.01    0.20
 -10   3 -11    1.14    0.42
  10   3  11    0.87    0.44
 -10   3 -11    1.11    0.58
 -11   3 -11    3.35    0.56
  11   3  11    3.68    0.53
 -11   3 -11    4.31    0.68
  11   3  11    3.97    0.45
 -11   3 -11    2.68    0.48
  12   3  11    4.96    0.49
 -12   3 -11    4.56    0.40
 -12   3 -11    2.43    0.58
 -12   3 -11    3.95    0.46
  12   3  11    3.09    0.59
  15   4 -11    0.39    0.21
 -15   4  11   -0.17    0.32
  15   4 -11    0.27    0.30
  15   4 -11   -0.08    0.25
 -14   4  11    2.25    0.58
 -14   4  11    1.91    0.43
  14   4 -11    1.24    0.37
 -14   4  11    1.68    0.47
 -14   4  11    1.34    0.35
  14   4 -11    1.34    0.32
  14   4 -11    1.57    0.53
  13   4 -11    5.83    0.67
 -13   4  11    6.41    0.74
  13   4 -11    6.12    0.56
 -13   4  11    5.98    0.59
 -13   4  11    5.37    0.69
  13   4 -11    4.68    0.52
 -13   4  11    5.26    0.72
 -12   4  11    0.88    0.53
 -12   4  11    0.35    0.48
  12   4 -11    1.07    0.50
 -12   4  11    1.37    0.71
  12   4 -11    0.46    0.52
 -12   4  11    0.14    0.58
  12   4 -11    0.80    0.48
  11   4 -11    7.51    0.83
 -11   4  11    6.49    0.79
  11   4 -11    7.15    0.72
  11   4 -11    7.10    0.73
 -11   4  11    7.22    0.88
 -11   4  11    6.95    0.92
  11   4 -11    5.45    0.73
 -11   4  11    6.75    0.73
 -10   4  11   35.63    2.59
 -10   4  11   33.93    2.17
  10   4 -11   37.97    2.53
  10   4 -11   31.49    2.10
  10   4 -11   31.89    2.06
 -10   4  11   36.63    2.13
 -10   4  11   30.27    2.36
  10   4 -11   32.48    2.25
   9   4 -11    1.92    0.54
  -9   4  11    3.01    0.59
   9   4 -11    2.05    0.53
   9   4 -11    2.61    0.78
   9   4 -11    1.22    0.54
  -9   4  11    2.06    0.80
  -9   4  11    3.32    0.62
  -9   4  11    1.40    0.68
   8   4 -11    1.30    0.14
   8   4 -11    0.70    0.52
   8   4 -11    1.85    0.50
  -8   4  11    1.23    0.65
  -8   4  11    2.19    0.74
  -8   4  11    0.18    1.43
  -8   4  11    1.75    0.56
   8   4 -11    1.92    0.54
   8   4 -11   -0.89    1.36
  -8   4  11    1.12    0.53
   8   4 -11    1.88    0.38
   7   4 -11   32.82    1.89
   7   4 -11   28.72    3.21
  -7   4  11   33.26    2.45
  -7   4  11   35.98    2.16
   7   4 -11   39.53    2.25
  -7   4  11   36.26    2.26
   7   4 -11   35.60    2.59
   7   4 -11   32.15    2.30
  -7   4  11   36.63    2.54
   7   4 -11   39.07    2.13
  -6   4  11    0.29    0.48
  -6   4  11   -1.89    0.78
   6   4 -11    0.89    1.28
   6   4 -11    0.34    0.66
  -6   4  11    0.27    0.63
  -6   4  11   -0.13    0.46
   6   4 -11    0.10    0.15
   6   4 -11    0.26    0.32
  -6   4  11   -1.36    0.53
   6   4 -11    0.52    0.44
  -6   4  11   -0.38    0.92
   6   4 -11    0.16    0.93
   5   4 -11    5.88    1.03
   5   4 -11    6.89    0.69
  -5   4  11    6.55    1.00
   5   4 -11    6.96    0.65
   5   4 -11    5.80    0.89
  -5   4  11    6.73    1.18
  -5   4  11    9.54    0.74
  -5   4  11    6.90    0.90
  -5   4  11    6.38    0.81
  -5   4  11    8.39    0.81
   5   4 -11    7.01    1.22
  -5   4  11    8.55    0.73
   5   4 -11    5.81    1.22
   5   4 -11    6.90    0.84
   5   4 -11    6.50    0.43
  -5   4  11    6.89    1.38
   4   4 -11    0.22    0.84
  -4   4  11   -0.45    0.39
   4   4 -11    0.19    0.42
   4   4 -11    0.08    0.42
  -4   4  11   -0.22    0.32
   4   4 -11   -0.35    0.66
   4   4 -11    0.57    1.13
  -4   4  11   -0.50    0.85
  -4   4  11    0.21    0.68
   4   4 -11    0.62    0.45
  -4   4  11   -0.01    0.58
  -4   4  11    0.17    0.88
  -4   4  11   -0.36    0.49
  -4   4  11   -0.18    0.44
   4   4 -11   -0.29    0.39
  -4   4  11    0.15    0.78
  -3   4  11   59.45    3.14
   3   4 -11   53.44    4.07
   3   4 -11   50.53    3.68
  -3   4  11   48.99    4.06
  -3   4  11   54.06    3.66
   3   4 -11   55.18    3.79
  -3   4  11   56.13    4.18
  -3   4  11   53.11    3.79
  -3   4  11   59.57    3.35
   3   4 -11   56.40    3.33
   3   4 -11   59.23    3.69
   3   4 -11   55.96    3.72
  -3   4  11   54.54    3.74
   3   4 -11   54.71    3.08
  -3   4  11   52.14    3.72
   3   4 -11   52.55    4.76
  -3   4  11   52.80    3.67
  -2   4  11   12.68    0.96
  -2   4  11   11.84    0.96
   2   4 -11   10.35    1.07
  -2   4  11   10.96    1.15
  -2   4  11   10.71    1.38
  -2   4  11    9.46    1.20
  -2   4  11   10.87    1.76
  -2   4  11   12.35    1.88
   2   4 -11    9.08    1.58
   2   4 -11   14.23    2.31
   2   4 -11   12.43    0.86
   2   4 -11   12.17    1.17
  -2   4  11   10.10    1.14
   2   4 -11   13.56    1.53
   2   4 -11   12.48    1.26
   2   4 -11   11.44    0.92
  -2   4  11    8.92    0.97
   1   4 -11   11.98    1.27
   1   4 -11   15.70    2.39
  -1   4  11   10.66    1.58
   1   4 -11   11.34    1.06
  -1   4  11   10.51    0.98
   1   4 -11   13.60    1.44
  -1   4  11   14.03    1.48
  -1   4  11   14.52    1.15
  -1   4  11   11.23    0.98
   1   4 -11   12.10    1.54
   1   4 -11   11.35    0.85
  -1   4  11   11.63    1.05
  -1   4  11   12.91    1.89
  -1   4  11   12.12    1.39
   1   4 -11   11.35    0.97
   1   4 -11   12.56    1.24
  -1   4  11   12.09    1.38
   0   4 -11    9.10    1.33
   0   4  11   10.06    0.87
   0   4 -11    9.34    1.57
   0   4  11   10.13    0.81
   0   4 -11    9.53    0.87
   0   4  11   10.18    1.78
   0   4 -11   11.72    1.15
   0   4  11    9.69    1.46
   0   4 -11    8.03    0.95
   0   4 -11    8.35    1.13
   0   4 -11    9.29    0.88
   0   4  11    9.62    1.03
   0   4 -11    9.03    2.15
   0   4  11    8.69    1.17
   0   4  11    9.73    0.96
   0   4  11   10.46    1.06
  -1   4 -11   40.43    2.86
  -1   4 -11   45.57    2.60
   1   4  11   34.31    2.93
   1   4  11   37.34    2.86
   1   4  11   42.33    2.41
  -1   4 -11   38.24    3.06
   1   4  11   45.88    2.90
  -1   4 -11   41.48    2.92
  -1   4 -11   41.21    2.43
   1   4  11   40.94    3.14
   1   4  11   41.47    3.04
  -1   4 -11   40.57    3.84
  -1   4 -11   44.21    3.02
   1   4  11   44.06    2.59
   1   4  11   45.69    3.65
   2   4  11   40.60    2.86
  -2   4 -11   45.95    2.40
  -2   4 -11   37.54    4.12
   2   4  11   34.42    3.00
   2   4  11   42.21    3.37
   2   4  11   42.42    2.89
  -2   4 -11   36.21    2.77
   2   4  11   41.07    2.36
  -2   4 -11   37.32    3.17
  -2   4 -11   45.10    2.97
  -2   4 -11   40.84    2.94
   2   4  11   39.44    2.52
  -2   4 -11   40.98    2.50
  -3   4 -11    4.32    1.27
   3   4  11    6.84    0.90
   3   4  11    7.65    0.69
   3   4  11    8.41    1.63
  -3   4 -11    7.06    0.61
  -3   4 -11    7.38    0.85
  -3   4 -11    4.89    0.86
  -3   4 -11    5.74    1.56
   3   4  11    6.27    0.68
   3   4  11    6.34    0.83
   3   4  11    6.01    1.19
  -3   4 -11    6.99    0.68
  -4   4 -11   10.12    0.84
   4   4  11    9.38    1.03
  -4   4 -11   10.67    1.13
   4   4  11   10.30    1.57
  -4   4 -11   10.42    0.93
   4   4  11    9.91    0.84
   4   4  11    9.85    1.02
   4   4  11    8.57    0.89
  -4   4 -11    9.40    1.11
  -4   4 -11    8.86    2.10
   5   4  11    1.99    0.52
  -5   4 -11    2.05    0.80
  -5   4 -11    2.89    0.76
   5   4  11    2.05    0.50
  -5   4 -11    2.24    0.55
   5   4  11    1.78    0.68
   5   4  11    1.93    0.38
  -6   4 -11    2.08    0.87
  -6   4 -11    3.09    0.57
   6   4  11    1.46    0.71
   6   4  11    1.65    0.39
   6   4  11    3.00    0.51
  -6   4 -11    2.70    0.58
   6   4  11    1.89    0.63
  -6   4 -11    2.46    0.76
   7   4  11    2.69    0.51
  -7   4 -11    2.57    0.46
  -7   4 -11    2.81    0.58
  -7   4 -11    3.32    0.90
   7   4  11    2.95    0.75
   7   4  11    3.67    0.45
  -7   4 -11    1.18    0.72
   7   4  11    3.73    0.52
   8   4  11    2.78    0.56
  -8   4 -11    2.55    0.69
  -8   4 -11    3.19    0.43
  -8   4 -11    1.75    0.66
  -8   4 -11    3.20    0.48
   8   4  11    3.00    0.43
   8   4  11    3.29    0.50
   9   4  11    0.25    0.40
  -9   4 -11    0.50    0.38
   9   4  11    0.68    0.61
  -9   4 -11    0.34    0.80
  -9   4 -11    0.80    0.40
  10   4  11    6.26    0.56
  10   4  11    6.89    0.75
  10   4  11    5.17    0.55
 -10   4 -11    6.01    0.68
 -10   4 -11    6.70    0.81
 -10   4 -11    5.87    0.55
  11   4  11    1.27    0.30
 -11   4 -11    1.84    0.38
  11   4  11    1.60    0.40
 -11   4 -11    1.44    0.53
  11   4  11    1.72    0.43
 -12   4 -11    3.03    0.49
  12   4  11    1.75    0.35
 -14   5  11    6.34    0.64
 -13   5  11    4.14    0.59
  13   5 -11    3.66    0.50
  13   5 -11    3.21    0.53
  13   5 -11    4.15    0.46
 -13   5  11    4.55    0.56
 -13   5  11    3.44    0.54
  12   5 -11    0.28    0.25
 -12   5  11   -0.23    0.62
  12   5 -11    0.58    0.34
 -12   5  11    0.34    0.49
  12   5 -11    0.46    0.61
  12   5 -11   -0.67    0.45
 -12   5  11    0.16    0.69
  11   5 -11    0.46    0.70
  11   5 -11    0.64    0.37
  11   5 -11   -0.10    0.37
 -11   5  11    0.28    0.71
  11   5 -11    0.15    0.34
 -11   5  11    0.50    0.52
 -11   5  11    1.00    0.73
  10   5 -11    6.85    0.60
 -10   5  11    6.15    0.60
 -10   5  11    7.33    0.87
 -10   5  11    5.81    0.92
  10   5 -11    5.94    0.62
  10   5 -11    7.50    0.84
  10   5 -11    5.63    0.74
  -9   5  11    1.48    0.54
   9   5 -11    1.35    0.43
   9   5 -11    1.67    0.40
  -9   5  11    1.42    0.56
   9   5 -11    1.52    0.52
  -9   5  11    1.53    0.27
   9   5 -11    1.83    0.59
  -9   5  11    0.69    0.80
   8   5 -11   -0.18    0.51
  -8   5  11   -0.23    0.48
  -8   5  11    0.24    0.66
   8   5 -11    0.75    0.48
  -8   5  11    0.34    0.51
  -8   5  11    0.51    0.27
   8   5 -11   -0.60    0.35
   8   5 -11   -0.11    0.55
  -8   5  11   -0.45    0.75
   7   5 -11    1.00    0.58
   7   5 -11    0.58    0.35
  -7   5  11   -0.03    0.29
   7   5 -11   -0.29    0.45
  -7   5  11   -0.40    0.48
  -7   5  11   -0.47    0.69
  -7   5  11    0.11    0.47
  -7   5  11    0.88    0.49
   7   5 -11   -0.01    0.72
  -6   5  11   21.26    1.85
  -6   5  11   21.77    1.43
  -6   5  11   23.50    1.43
   6   5 -11   24.95    1.50
   6   5 -11   21.48    1.79
  -6   5  11   22.45    1.92
   6   5 -11   23.39    1.47
   6   5 -11   21.06    1.66
  -5   5  11    3.46    0.40
   5   5 -11    1.85    1.45
  -5   5  11    2.92    0.78
   5   5 -11    3.31    0.65
   5   5 -11    3.56    0.51
  -5   5  11    2.86    0.52
   5   5 -11    3.56    0.51
  -5   5  11    3.27    0.69
   5   5 -11    3.99    0.53
  -5   5  11    2.19    1.52
  -5   5  11    3.00    0.58
  -4   5  11    0.46    0.32
   4   5 -11   -0.35    0.67
   4   5 -11   -0.11    0.38
  -4   5  11    0.72    0.47
   4   5 -11   -0.25    0.42
   4   5 -11    0.22    0.50
  -4   5  11    3.41    1.62
  -4   5  11    0.76    0.46
   4   5 -11    0.67    0.66
  -4   5  11   -0.38    0.42
   4   5 -11    0.57    0.99
  -4   5  11    0.35    0.65
   3   5 -11    4.68    0.73
  -3   5  11    4.48    0.56
  -3   5  11    3.99    0.70
  -3   5  11    4.44    0.63
   3   5 -11    4.37    0.53
   3   5 -11    3.01    1.13
   3   5 -11    4.12    0.52
   3   5 -11    5.54    0.71
  -3   5  11    2.26    1.49
   3   5 -11    4.41    0.53
  -3   5  11    4.24    0.41
  -3   5  11    4.63    0.79
  -2   5  11   37.19    2.09
   2   5 -11   32.06    2.91
  -2   5  11   31.48    2.64
   2   5 -11   31.81    2.48
  -2   5  11   26.06    3.04
   2   5 -11   35.81    2.03
  -2   5  11   33.21    2.46
   2   5 -11   37.00    2.13
   2   5 -11   35.71    2.52
  -2   5  11   26.55    3.12
  -2   5  11   37.72    2.05
   2   5 -11   32.25    2.23
  -2   5  11   34.18    2.43
  -1   5  11    2.83    0.49
  -1   5  11    2.74    0.36
   1   5 -11    2.82    0.56
  -1   5  11    3.20    0.56
   1   5 -11    3.60    0.75
   1   5 -11    3.09    0.39
   1   5 -11    3.65    0.49
  -1   5  11    3.07    0.85
   1   5 -11    2.17    1.89
   1   5 -11    2.71    1.38
  -1   5  11    2.43    1.52
   1   5 -11    3.06    0.70
  -1   5  11    3.88    0.59
   0   5 -11   -0.21    0.42
   0   5 -11   -0.10    0.35
   0   5  11   -0.26    0.33
   0   5 -11    0.34    0.40
   0   5 -11    0.43    0.34
   0   5  11    0.43    0.42
   0   5  11    0.89    1.00
   0   5 -11   -0.20    0.82
   0   5  11    0.05    0.53
   0   5  11    0.44    0.53
   0   5 -11    1.36    1.91
   0   5  11    0.10    0.61
  -1   5 -11   16.83    1.29
   1   5  11   16.52    2.05
  -1   5 -11   15.08    2.70
  -1   5 -11   17.00    1.46
  -1   5 -11   18.37    1.16
  -1   5 -11   16.82    1.10
   1   5  11   16.56    1.35
   1   5  11   13.76    1.28
  -1   5 -11   18.93    1.78
   1   5  11   16.28    1.18
   1   5  11   16.57    1.11
   1   5  11   16.98    1.52
  -2   5 -11    4.93    0.59
  -2   5 -11    5.60    0.66
  -2   5 -11    4.78    0.99
   2   5  11    6.40    0.62
  -2   5 -11    3.47    0.72
   2   5  11    5.62    0.77
   2   5  11    4.09    0.65
   2   5  11    5.43    0.49
   3   5  11    2.78    0.40
   3   5  11    3.79    0.65
  -3   5 -11    2.91    0.52
  -3   5 -11    2.87    0.62
  -3   5 -11    3.54    0.47
   3   5  11    3.77    0.53
   3   5  11    3.55    0.55
  -3   5 -11    3.74    0.91
   3   5  11    3.27    0.46
  -4   5 -11    4.91    0.47
  -4   5 -11    5.10    0.75
  -4   5 -11    2.84    0.60
   4   5  11    3.46    0.43
   4   5  11    3.59    0.81
   4   5  11    4.44    0.76
   4   5  11    3.88    0.46
  -4   5 -11    3.77    0.47
  -4   5 -11    3.42    0.78
  -5   5 -11    7.46    0.64
  -5   5 -11    8.03    0.72
   5   5  11    8.63    0.86
   5   5  11    6.50    0.94
  -5   5 -11    9.75    1.10
   5   5  11    7.95    0.65
  -5   5 -11    5.91    1.01
   5   5  11    7.67    0.67
   6   5  11    3.39    0.40
   6   5  11    3.16    0.70
   6   5  11    1.94    0.35
  -6   5 -11    2.37    0.82
  -6   5 -11    2.29    0.51
  -6   5 -11    2.25    0.30
  -6   5 -11    2.52    0.85
   6   5  11    2.46    0.72
  -7   5 -11    3.95    0.71
   7   5  11    3.05    0.58
   7   5  11    3.05    0.52
   7   5  11    3.30    0.51
  -7   5 -11    3.51    0.64
  -7   5 -11    2.96    0.54
   7   5  11    3.14    0.36
   8   5  11    5.84    0.60
  -8   5 -11    4.04    0.62
  -8   5 -11    2.96    0.69
   8   5  11    4.72    0.40
   8   5  11    4.79    0.76
  -8   5 -11    5.41    0.50
   9   5  11    0.55    0.42
  -9   5 -11   -0.25    0.45
   9   5  11    0.57    0.31
  -9   5 -11    0.71    0.55
  10   5  11    0.11    0.37
  10   5  11    0.30    0.26
 -10   5 -11    0.45    0.49
 -10   5 -11    0.35    0.29
  13   6 -11    1.58    0.27
 -12   6  11    0.45    0.22
 -12   6  11    0.15    0.43
  12   6 -11    0.03    0.27
 -12   6  11    0.49    0.33
  12   6 -11    0.14    0.31
  12   6 -11    0.03    0.23
 -11   6  11    1.09    0.49
  11   6 -11    1.04    0.39
 -11   6  11    1.39    0.24
 -11   6  11    1.75    0.65
  11   6 -11    1.03    0.61
  11   6 -11    1.33    0.49
  10   6 -11    2.79    0.58
  10   6 -11    2.95    0.45
 -10   6  11    2.51    0.77
  10   6 -11    2.87    0.57
 -10   6  11    3.18    0.41
 -10   6  11    3.25    0.80
  -9   6  11    6.58    0.57
   9   6 -11    4.97    0.75
  -9   6  11    8.98    0.85
  -9   6  11    8.11    0.89
   9   6 -11    6.41    0.60
   9   6 -11    6.50    0.96
   8   6 -11    3.94    0.88
  -8   6  11    3.80    0.85
   8   6 -11    2.97    0.64
  -8   6  11    2.96    0.44
   8   6 -11    3.05    0.49
  -8   6  11    3.44    0.70
   7   6 -11   28.88    1.72
   7   6 -11   25.25    1.92
  -7   6  11   30.29    1.71
   7   6 -11   31.78    2.31
  -7   6  11   28.57    2.19
  -7   6  11   27.24    2.17
  -6   6  11    1.56    0.39
  -6   6  11    1.42    0.58
   6   6 -11    1.67    0.33
   6   6 -11    0.94    0.59
  -6   6  11    2.29    0.76
   6   6 -11    2.26    0.63
  -5   6  11   13.21    0.95
   5   6 -11   14.56    0.95
  -5   6  11   10.88    1.17
   5   6 -11   13.55    1.20
  -5   6  11   11.10    1.25
   5   6 -11   13.24    1.29
  -4   6  11    0.41    0.69
   4   6 -11    0.67    0.38
  -4   6  11    0.90    0.70
  -4   6  11   -0.28    0.65
   4   6 -11    0.35    0.56
  -4   6  11    0.50    0.36
   4   6 -11    0.13    0.54
  -3   6  11    0.10    0.72
   3   6 -11    0.47    0.75
  -3   6  11    0.27    0.68
  -3   6  11    0.33    0.49
   3   6 -11    0.00    0.38
   3   6 -11   -0.55    0.71
   3   6 -11   -0.17    0.34
  -3   6  11   -0.38    0.34
  -2   6  11    3.33    0.81
   2   6 -11    3.59    0.44
  -2   6  11    4.16    0.47
   2   6 -11    3.76    0.66
   2   6 -11    4.08    0.53
  -2   6  11    3.11    0.77
   2   6 -11    4.70    0.78
  -2   6  11    2.81    0.88
  -1   6  11    3.16    0.58
   1   6 -11    1.99    0.74
   1   6 -11    2.35    0.61
  -1   6  11    3.22    0.79
  -1   6  11    3.04    0.90
  -1   6  11    3.42    0.45
   1   6 -11    3.77    0.44
   1   6 -11    2.86    0.75
   0   6  11   16.38    1.76
   0   6 -11   15.76    1.50
   0   6 -11   16.85    1.53
   0   6  11   14.99    1.32
   0   6  11   17.39    1.33
   0   6 -11   15.98    1.07
   0   6  11   15.84    1.15
   0   6 -11   13.61    1.29
  -1   6 -11   48.00    3.33
   1   6  11   46.53    3.38
  -1   6 -11   51.58    3.14
   1   6  11   48.03    2.78
  -1   6 -11   50.69    2.77
   1   6  11   49.02    3.49
  -1   6 -11   51.67    3.60
  -2   6 -11    0.33    0.52
  -2   6 -11    0.24    0.37
  -2   6 -11   -0.27    0.61
   2   6  11    0.17    0.56
   2   6  11    0.42    0.37
   2   6  11   -0.05    0.34
  -2   6 -11    0.50    0.92
  -3   6 -11    9.68    0.98
  -3   6 -11   12.50    0.87
   3   6  11   10.71    0.85
   3   6  11   10.53    0.93
  -3   6 -11   10.08    1.25
   3   6  11   11.39    1.18
   4   6  11    0.15    0.57
   4   6  11    0.15    0.50
  -4   6 -11    0.14    0.37
  -4   6 -11   -0.39    0.82
   4   6  11    0.09    0.33
  -4   6 -11   -0.10    0.34
   5   6  11   -0.29    0.57
   5   6  11   -0.30    0.47
   5   6  11   -0.05    0.24
  -5   6 -11    0.11    0.58
  -5   6 -11    0.04    0.35
   6   6  11    1.25    0.46
  -6   6 -11    0.23    0.48
  -6   6 -11    1.34    0.56
  -6   6 -11    1.03    0.35
   6   6  11    0.55    0.60
  -7   6 -11   -0.23    0.60
   7   6  11    0.55    0.34
  -7   6 -11    0.00    0.67
   7   6  11    1.03    0.52
  -7   6 -11   -0.34    0.34
   7   6  11   -0.14    0.38
   8   6  11    3.62    0.61
  -8   6 -11    3.85    0.37
  -8   6 -11    4.01    0.57
   8   6  11    4.79    0.36
  -8   6 -11    3.72    0.54
  -9   6 -11    2.63    0.51
   9   6  11    5.00    0.50
 -10   7  11    1.56    0.41
 -10   7  11    1.08    0.41
  10   7 -11    1.61    0.34
  10   7 -11    0.88    0.32
  -9   7  11    4.63    0.61
  -9   7  11    7.36    0.70
   9   7 -11    4.05    0.57
   8   7 -11    4.41    0.67
  -8   7  11    7.10    0.78
   8   7 -11    6.75    0.76
  -8   7  11    5.70    0.72
   7   7 -11    5.18    0.72
   7   7 -11    4.40    0.54
  -7   7  11    4.85    0.69
   7   7 -11    3.96    0.35
  -7   7  11    4.99    0.83
  -6   7  11    0.14    0.49
   6   7 -11    0.27    0.18
  -6   7  11   -0.29    0.71
   6   7 -11    0.29    0.40
   6   7 -11   -0.43    0.75
  -5   7  11    3.84    0.65
   5   7 -11    3.36    0.53
   5   7 -11    4.22    0.36
   5   7 -11    3.74    0.69
  -5   7  11    3.16    0.63
   4   7 -11   -0.17    0.51
   4   7 -11    0.12    0.55
  -4   7  11    0.43    0.68
  -4   7  11    0.12    0.51
   4   7 -11    0.02    0.16
  -3   7  11    9.49    1.04
  -3   7  11   11.59    1.11
  -3   7  11   11.85    1.27
   3   7 -11   11.20    1.14
   3   7 -11   11.27    0.95
   2   7 -11    4.35    0.54
  -2   7  11    4.17    0.84
   2   7 -11    3.47    0.81
   2   7 -11    2.26    0.78
  -2   7  11    4.70    0.64
  -2   7  11    2.81    0.83
   1   7 -11    1.56    0.62
  -1   7  11    2.50    0.64
   1   7 -11    2.01    0.44
  -1   7  11    1.60    0.65
  -1   7  11    1.57    0.77
   1   7 -11    2.16    0.57
   0   7 -11    0.04    0.37
   0   7  11    0.74    0.57
   0   7 -11    0.17    0.60
   0   7 -11   -0.08    0.47
   0   7  11   -0.34    0.56
   1   7  11    2.85    0.63
   1   7  11    4.06    0.88
  -1   7 -11    2.79    0.56
  -1   7 -11    4.24    0.51
  -1   7 -11    4.04    0.76
   2   7  11    3.12    0.67
  -2   7 -11    4.29    0.58
  -2   7 -11    4.29    0.74
   2   7  11    3.37    0.49
   3   7  11   -0.26    0.50
   3   7  11   -0.18    0.40
  -3   7 -11    0.87    0.59
  -3   7 -11    0.81    0.55
   4   7  11    1.46    0.70
   4   7  11    1.39    0.34
  -4   7 -11    1.99    0.61
  -4   7 -11    0.89    0.51
   5   7  11   10.15    0.98
   6   7  11    1.41    0.42
  -6   7 -11    1.56    0.50
   6   7  11    1.95    0.42
  -7   8  11    6.10    0.64
   7   8 -11    7.70    0.69
  -6   8  11    1.86    0.49
   6   8 -11    2.62    0.37
   6   8 -11    2.74    0.46
  -5   8  11    0.78    0.45
  -5   8  11    0.77    0.41
   5   8 -11    2.34    0.48
  -4   8  11    1.30    0.63
   4   8 -11    1.52    0.47
  -4   8  11    3.23    0.52
  -3   8  11    3.07    0.52
   3   8 -11    1.57    0.67
  -3   8  11    3.49    0.53
  -2   8  11    0.90    0.42
   2   8 -11   -0.04    0.41
  -2   8  11   -0.06    0.39
  -1   8  11   12.41    1.23
   1   8 -11   12.05    1.05
   0   8 -11    4.39    0.57
   0   8  11    5.58    0.56
   0   8 -11    3.33    0.53
  -1   8 -11    5.19    0.59
   1   8  11    2.14    0.53
   1   8  11    3.17    0.44
  -1   8 -11    3.06    0.60
  -2   8 -11    2.01    0.52
   2   8  11    1.16    0.30
   2   8  11    1.82    0.51
  -2   8 -11    1.62    0.37
  -3   8 -11    8.54    0.77
   3   8  11   11.20    0.92
  -3   8 -11    9.01    0.89
 -17   0  12    0.04    0.18
  17   0 -12   -0.02    0.19
  16   0 -12   -0.13    0.35
 -16   0  12    0.66    0.42
  15   0 -12   -0.30    0.27
 -15   0  12    0.87    0.49
 -14   0  12    4.71    0.61
  14   0 -12    3.96    0.43
 -13   0  12    0.40    0.51
  13   0 -12    0.55    0.41
 -12   0  12    1.87    0.54
 -11   0  12   -0.19    0.34
 -10   0  12   11.78    1.06
  -9   0  12   -0.06    0.33
  -8   0  12    5.91    0.57
   3   0  12   -0.27    0.64
  -3   0 -12   -0.21    1.13
  -4   0 -12   72.64    5.51
  -5   0 -12    1.22    1.24
  -6   0 -12    5.66    0.55
  -7   0 -12    0.10    0.32
   8   0  12    0.84    0.40
  -8   0 -12    1.27    0.36
   9   0  12    0.10    0.37
  -9   0 -12   -0.98    0.45
 -10   0 -12   23.55    1.54
  10   0  12   24.38    1.48
  11   0  12    0.03    0.24
 -11   0 -12    0.40    0.31
  12   0  12    2.15    0.35
 -12   0 -12    2.10    0.32
  13   0  12   -0.17    0.16
 -13   0 -12   -0.16    0.32
  13   0  12    0.23    0.26
 -13   0 -12    0.12    0.18
 -17  -1  12   -0.26    0.24
  17   1 -12    0.37    0.18
 -16  -1  12    0.55    0.31
 -16   1  12    0.26    0.25
  16   1 -12    0.53    0.23
 -16   1  12    0.66    0.40
 -15  -1  12    0.92    0.36
 -15   1  12    0.85    0.39
  15   1 -12    0.76    0.28
 -15   1  12    0.16    0.45
 -14  -1  12    5.98    0.60
  14   1 -12    6.66    0.61
 -14   1  12    7.14    0.65
 -14   1  12    7.31    0.77
 -13  -1  12    1.75    0.42
 -13   1  12    1.67    0.73
 -13   1  12    1.91    0.52
  13   1 -12    1.67    0.34
 -12   1  12    0.49    0.36
  12   1 -12    0.76    0.31
 -11   1  12    1.79    0.53
  11   1 -12    3.01    0.39
 -10   1  12    0.60    0.35
  10   1 -12    0.50    0.40
   9   1 -12    6.13    0.52
  -9   1  12    6.19    0.66
   8   1 -12   -0.22    0.26
  -8   1  12   -0.06    0.45
   7   1 -12   17.32    1.19
  -7   1  12   19.93    1.29
  -6   1  12    0.88    0.44
   6   1 -12    0.34    0.26
  -5   1  12   -0.11    0.41
  -5   1  12    0.71    0.88
  -5   1  12    0.40    1.06
   5   1 -12    0.78    0.26
  -4   1  12    1.28    0.90
  -4   1  12    0.22    1.04
   4   1 -12    0.32    0.35
  -4   1  12    0.03    0.41
   3   1 -12    7.84    0.63
   3   1 -12    7.47    1.17
  -3   1  12    7.00    1.22
  -3   1  12    7.76    1.38
  -3   1  12    8.29    0.69
   2   1 -12   39.04    2.73
   2   1 -12   36.08    2.09
  -2   1  12   35.51    2.14
   2   1 -12   37.82    2.87
  -2   1  12   36.19    2.97
  -2   1  12   37.96    2.85
  -1   1  12    0.20    0.39
  -1   1  12    2.02    1.04
   1   1 -12    0.22    0.33
  -1   1  12    1.44    0.90
   1   1 -12   -0.31    0.65
   1   1 -12    0.55    0.69
   0   1 -12   57.09    3.15
   0   1  12   53.01    3.15
   0   1 -12   62.16    3.90
   0   1 -12   59.04    3.90
   0   1  12   56.98    4.03
  -1   1 -12    1.71    0.39
   1   1  12    1.25    0.33
  -2   1 -12   19.60    2.08
   2   1  12   14.99    1.07
   2   1  12   18.14    1.85
  -2   1 -12   17.06    1.12
   3   1  12    7.27    0.59
  -3   1 -12    6.69    1.63
  -3   1 -12    6.46    0.61
   3   1  12    7.23    1.37
  -4  -1 -12   11.25    1.74
   4   1  12   12.85    1.59
  -4   1 -12   12.53    2.04
   4   1  12   13.38    0.94
  -4   1 -12   14.77    0.93
  -5   1 -12   16.36    2.13
   5   1  12   16.84    1.95
  -5   1 -12   17.40    1.12
  -6   1 -12   -0.87    1.36
  -6   1 -12    1.15    0.44
   6   1  12    1.24    0.40
  -7   1 -12   30.91    1.83
   7   1  12   28.95    1.79
  -8   1 -12   -0.09    0.44
   8   1  12    0.53    0.37
  -9   1 -12   12.14    1.01
   9   1  12   13.08    0.96
 -10  -1 -12    3.77    0.57
 -10   1 -12    4.91    0.63
  10   1  12    4.35    0.40
 -10   1 -12    3.29    0.50
 -11  -1 -12   10.44    0.83
 -11   1 -12   11.39    0.94
  11   1  12   11.72    0.81
 -11   1 -12   11.39    0.85
 -12  -1 -12    3.14    0.45
  12  -1  12    2.00    0.29
  12   1  12    2.17    0.31
 -12   1 -12    3.16    0.55
 -12   1 -12    2.31    0.29
 -12   1 -12    1.84    0.53
  13   1  12   16.01    0.88
 -16  -2  12    0.87    0.33
  16   2 -12    0.96    0.14
 -16   2  12    1.22    0.35
  16   2 -12    0.90    0.36
 -16   2  12    0.43    0.35
  16   2 -12    1.08    0.31
  15   2 -12    0.32    0.28
 -15   2  12    0.16    0.43
  15   2 -12    0.74    0.49
 -15   2  12    0.73    0.46
 -14   2  12    0.18    0.47
 -14   2  12    0.27    0.32
  14   2 -12    0.25    0.34
  14   2 -12   -0.31    0.51
 -13   2  12    3.45    0.46
  13   2 -12    3.35    0.45
  13   2 -12    3.48    0.52
 -13   2  12    3.41    0.77
  12   2 -12   21.49    1.52
 -12   2  12   22.15    1.61
 -12   2  12   23.55    1.41
  12   2 -12   21.29    1.39
  11   2 -12    7.14    0.63
 -11   2  12    8.00    0.68
  11   2 -12    7.93    0.74
 -11   2  12    6.54    0.92
 -10   2  12    6.75    0.87
  10   2 -12    5.56    0.73
 -10   2  12    5.62    0.60
  10   2 -12    5.52    0.56
   9   2 -12    5.87    0.65
  -9   2  12    2.86    1.48
  -9   2  12    6.55    0.87
   9   2 -12    6.51    0.58
  -9   2  12    6.81    0.56
   8   2 -12   22.16    1.52
  -8   2  12   19.49    2.29
  -8   2  12   22.97    1.42
  -8   2  12   14.68    1.94
   8   2 -12   25.22    1.39
  -8   2  12   22.80    1.71
   7   2 -12   -0.04    0.77
   7   2 -12   -0.21    1.07
  -7   2  12    0.42    0.43
  -7   2  12    0.21    0.40
   7   2 -12    0.38    0.35
  -7   2  12   -0.47    1.10
  -7   2  12   -1.15    0.88
   7   2 -12   -0.31    0.47
   6   2 -12    6.59    1.11
   6   2 -12    6.07    1.09
  -6   2  12    5.17    1.16
   6   2 -12    6.85    0.58
  -6   2  12    7.52    0.63
   6   2 -12    5.97    0.63
  -6   2  12    8.29    0.85
  -6   2  12    4.88    1.39
   5   2 -12    1.01    0.59
  -5   2  12    1.76    0.91
   5   2 -12    1.10    0.37
  -5   2  12    1.38    0.58
   5   2 -12    1.33    0.77
  -5   2  12    0.36    1.17
   5   2 -12    1.62    0.37
  -5   2  12    1.42    0.42
  -4   2  12   65.34    4.45
   4   2 -12   68.09    3.62
  -4   2  12   65.72    4.37
   4   2 -12   66.16    4.00
   4   2 -12   61.91    4.44
  -4   2  12   64.93    3.65
   4   2 -12   67.57    4.36
  -4   2  12   67.79    4.05
   3   2 -12    1.33    0.34
   3   2 -12    1.95    0.49
  -3   2  12    2.44    0.56
  -3   2  12    1.15    0.48
   3   2 -12    0.67    0.78
   3   2 -12    1.53    1.04
  -3   2  12    1.03    0.91
   3   2 -12    1.59    0.52
  -3   2  12    2.58    1.12
  -3   2  12    1.55    0.40
   2   2 -12    0.74    0.76
  -2   2  12    1.23    0.39
   2   2 -12    1.16    0.26
  -2   2  12    1.06    0.43
   2   2 -12    1.30    0.48
   2   2 -12    0.86    0.45
  -2   2  12    3.23    1.09
   2   2 -12    2.21    1.01
  -2   2  12    1.58    0.95
  -2   2  12    1.04    0.40
  -1   2  12    0.68    1.07
  -1   2  12    0.38    0.48
   1   2 -12   -0.54    0.69
   1   2 -12    0.90    0.25
  -1   2  12    0.06    1.02
   1   2 -12    0.33    0.46
  -1   2  12    0.89    0.39
   1   2 -12    0.44    0.99
  -1   2  12   -0.25    0.87
   0   2  12    2.80    1.14
   0   2 -12    2.88    0.55
   0   2 -12    2.17    1.08
   0   2 -12    2.21    1.43
   0   2  12    2.97    0.57
   0   2  12    2.84    0.44
   0   2 -12    3.62    0.89
   0   2  12    3.53    1.24
   0   2  12    3.41    0.81
   0   2 -12    2.30    0.33
   1   2  12   29.09    2.50
  -1   2 -12   30.48    2.61
  -1   2 -12   29.34    1.96
  -1   2 -12   29.43    1.72
   1   2  12   30.92    2.81
  -1   2 -12   32.58    2.91
   1   2  12   26.42    2.59
   1   2  12   28.00    1.96
   1   2  12   29.89    1.70
  -1   2 -12   28.74    2.23
   2   2  12    7.98    0.64
   2   2  12    5.60    1.37
  -2   2 -12    8.68    0.80
  -2   2 -12    8.53    0.64
   2   2  12    4.73    1.18
  -2   2 -12    7.65    1.04
  -2   2 -12    8.46    1.57
   2   2  12    6.85    0.76
   2   2  12    7.67    1.30
  -2   2 -12    7.87    1.43
   3   2  12    2.17    1.03
   3   2  12    4.07    0.98
   3   2  12    2.09    1.16
  -3   2 -12    1.60    1.07
  -3   2 -12    1.08    1.22
  -3   2 -12    2.45    0.58
  -3   2 -12    2.08    0.81
  -3   2 -12    2.44    0.43
   3   2  12    2.54    0.44
   3   2  12    2.58    0.52
  -4   2 -12    4.05    0.70
  -4   2 -12    3.70    1.36
   4   2  12    3.89    0.65
   4   2  12    2.78    1.15
   4   2  12    3.42    1.27
  -4   2 -12    3.83    0.65
   4   2  12    5.19    1.35
   4   2  12    3.32    0.59
  -4   2 -12    4.89    1.70
  -4   2 -12    2.20    0.73
  -4   2 -12    4.04    0.49
   4   2  12    4.50    0.46
  -5   2 -12    0.05    0.53
   5   2  12    0.08    0.83
   5   2  12    0.13    0.50
  -5   2 -12    0.10    1.07
  -5   2 -12    0.12    0.39
  -5   2 -12   -0.57    1.26
   5   2  12   -0.27    0.32
   5   2  12    0.22    0.33
  -5   2 -12    0.70    0.57
  -6   2 -12   14.74    0.92
   6   2  12    8.35    1.71
  -6   2 -12   14.94    1.25
   6   2  12   12.32    1.06
   6   2  12   14.15    0.97
  -6   2 -12   13.48    1.15
  -7   2 -12   -0.04    0.56
   7   2  12    0.54    0.35
   7   2  12    0.38    0.34
  -7   2 -12    0.01    0.38
  -8   2 -12    7.62    0.64
  -8   2 -12    8.61    0.95
   8   2  12    7.69    0.71
   8   2  12    8.05    0.80
   9   2  12   17.54    1.42
   9   2  12   19.96    1.18
  -9   2 -12   18.76    1.20
  -9   2 -12   19.52    1.50
 -10   2 -12    1.27    0.33
 -10   2 -12    0.96    0.63
 -10   2 -12    0.85    0.54
  10   2  12    0.42    0.49
  10   2  12    0.34    0.21
  11   2  12    4.02    0.35
 -11   2 -12    5.34    0.69
  11   2  12    3.52    0.53
  11   2  12    3.80    0.48
 -11   2 -12    4.45    0.54
 -12  -2 -12    0.01    0.28
 -12   2 -12    0.19    0.30
  12   2  12    0.00    0.31
 -12   2 -12    0.07    0.42
  12   2  12   -0.12    0.26
 -16   3  12    7.76    0.54
  16   3 -12    6.26    0.54
 -15   3  12    3.66    0.53
  15   3 -12    3.45    0.48
 -15   3  12    3.99    0.50
 -15   3  12    4.42    0.53
 -14   3  12   19.61    1.38
 -14   3  12   20.38    1.36
  14   3 -12   19.97    1.37
  14   3 -12   22.03    1.53
 -14   3  12   20.79    1.59
 -13   3  12    1.79    0.48
  13   3 -12    1.58    0.55
 -13   3  12    1.54    0.61
  13   3 -12    1.30    0.27
 -13   3  12    1.33    0.72
  12   3 -12    4.29    0.55
  12   3 -12    4.62    0.41
 -12   3  12    4.74    0.84
 -12   3  12    5.96    0.78
 -12   3  12    3.81    0.58
  11   3 -12    2.16    0.59
 -11   3  12    2.43    0.29
 -11   3  12    2.62    0.63
 -11   3  12    3.73    0.72
  11   3 -12    2.50    0.38
 -11   3  12    3.48    0.66
  10   3 -12    0.77    0.55
  10   3 -12   -0.01    0.23
 -10   3  12    0.39    0.31
 -10   3  12    0.90    0.46
 -10   3  12    1.28    0.60
 -10   3  12   -0.27    0.68
  -9   3  12    3.01    0.65
  -9   3  12    3.40    0.83
   9   3 -12    4.36    0.44
   9   3 -12    2.88    0.63
  -9   3  12    5.09    0.75
  -9   3  12    3.36    0.44
   9   3 -12    3.70    0.49
  -8   3  12   -0.62    1.24
  -8   3  12   -0.37    0.67
  -8   3  12    0.00    0.60
   8   3 -12    1.03    0.52
  -8   3  12   -0.18    0.30
   8   3 -12    0.41    0.36
  -8   3  12    0.81    0.55
   8   3 -12    0.09    0.33
   7   3 -12    0.68    0.31
  -7   3  12    0.38    0.31
  -7   3  12   -0.39    0.42
   7   3 -12    0.39    0.79
  -7   3  12    0.22    0.54
  -7   3  12    0.41    1.19
  -7   3  12    0.31    0.56
   7   3 -12    0.38    1.09
   7   3 -12    0.58    1.18
   7   3 -12    1.08    0.51
  -7   3  12    0.16    1.19
  -6   3  12    1.40    1.20
   6   3 -12    2.09    0.52
   6   3 -12    2.39    0.56
   6   3 -12    1.71    0.83
  -6   3  12    2.91    0.56
   6   3 -12    2.29    0.36
  -6   3  12    2.27    1.23
  -6   3  12    2.94    0.57
  -6   3  12    1.96    0.42
  -6   3  12    1.67    0.93
   6   3 -12   -0.16    1.06
   6   3 -12    2.89    0.69
  -6   3  12    2.33    0.47
   6   3 -12    1.71    1.18
   5   3 -12    2.93    0.52
   5   3 -12    4.27    0.76
  -5   3  12    2.44    0.39
   5   3 -12    3.83    0.57
   5   3 -12    1.53    1.42
  -5   3  12    3.04    0.54
   5   3 -12    3.14    0.57
  -5   3  12    2.68    0.97
   5   3 -12    2.56    1.10
  -5   3  12    3.28    0.50
   5   3 -12    2.90    0.37
  -5   3  12    3.32    1.25
  -5   3  12    2.58    0.46
  -5   3  12    4.11    1.23
  -5   3  12    1.82    1.18
   5   3 -12    1.02    1.08
  -4   3  12   14.70    1.79
   4   3 -12   14.89    1.56
  -4   3  12   16.07    1.53
  -4   3  12   15.27    1.40
  -4   3  12   15.43    1.89
  -4   3  12   13.04    1.94
   4   3 -12   16.24    1.40
   4   3 -12   15.39    1.76
   4   3 -12   17.01    2.38
   4   3 -12   16.23    1.24
   4   3 -12   16.83    1.19
   4   3 -12   16.33    1.02
   4   3 -12   12.47    1.76
  -4   3  12   18.40    1.23
  -4   3  12   16.98    1.03
  -4   3  12   15.56    1.30
  -3   3  12    3.42    0.46
   3   3 -12    3.31    0.42
  -3   3  12    2.57    1.11
   3   3 -12    3.38    1.64
   3   3 -12    3.33    0.37
  -3   3  12    3.21    0.60
  -3   3  12    2.89    0.73
   3   3 -12    3.04    0.63
   3   3 -12    1.67    0.81
  -3   3  12    3.55    0.40
  -3   3  12    3.19    1.06
  -3   3  12    2.52    0.60
   3   3 -12    2.18    1.05
  -3   3  12    4.11    0.99
   3   3 -12    2.87    0.55
   3   3 -12    0.84    1.02
  -2   3  12    1.45    0.90
   2   3 -12    1.34    0.46
   2   3 -12    1.39    0.42
   2   3 -12    0.94    0.48
  -2   3  12    0.92    0.50
  -2   3  12    1.31    1.04
  -2   3  12    0.99    0.48
  -2   3  12   -0.93    1.13
   2   3 -12    0.58    1.51
  -2   3  12    1.50    0.33
   2   3 -12    1.30    0.37
  -2   3  12    0.38    1.05
   2   3 -12    0.82    0.76
  -2   3  12    1.58    0.52
   2   3 -12    1.79    1.04
   2   3 -12    3.52    1.09
   1   3 -12   22.80    2.16
  -1   3  12   23.11    2.26
  -1   3  12   20.81    2.05
  -1   3  12   24.65    2.47
   1   3 -12   24.93    2.81
  -1   3  12   21.41    1.49
   1   3 -12   21.91    1.80
  -1   3  12   19.18    1.65
   1   3 -12   24.04    1.49
   1   3 -12   23.19    1.32
   1   3 -12   20.76    1.66
  -1   3  12   20.03    1.47
   1   3 -12   22.39    1.46
   1   3 -12   20.67    1.99
  -1   3  12   24.20    1.33
   0   3  12   21.06    1.42
   0   3 -12   19.44    1.88
   0   3 -12   19.34    1.57
   0   3  12   20.97    2.09
   0   3  12   21.83    1.52
   0   3 -12   20.29    1.42
   0   3 -12   21.05    1.40
   0   3 -12   21.60    1.26
   0   3  12   22.87    2.38
   0   3  12   20.82    1.27
   0   3 -12   22.52    2.19
   0   3 -12   25.13    2.63
   0   3  12   18.54    1.99
  -1   3 -12    3.95    0.51
   1   3  12    5.77    1.21
   1   3  12    4.16    0.60
  -1   3 -12    4.55    0.43
  -1   3 -12    4.46    1.67
   1   3  12    4.28    1.08
  -1   3 -12    3.86    1.20
  -1   3 -12    4.04    0.56
  -1   3 -12    2.76    0.89
   1   3  12    3.97    0.58
   1   3  12    2.57    1.16
  -2   3 -12   14.00    2.03
   2   3  12   14.97    1.72
  -2   3 -12   13.09    1.12
  -2   3 -12   12.72    1.19
  -2   3 -12   14.56    1.76
   2   3  12   12.20    1.55
   2   3  12   14.31    1.35
  -2   3 -12   11.86    1.41
   2   3  12   12.35    0.84
   2   3  12   12.77    1.10
   2   3  12   12.93    1.91
  -2   3 -12   12.73    0.88
   2   3  12   12.82    1.08
  -2   3 -12   12.44    1.07
  -3   3 -12    1.15    0.33
  -3   3 -12    1.12    1.20
   3   3  12    1.19    0.28
   3   3  12    0.66    0.44
   3   3  12    1.26    1.08
  -3   3 -12    1.16    0.68
  -3   3 -12    0.76    0.36
   3   3  12    1.35    0.48
  -3   3 -12    0.53    1.14
   3   3  12   -1.15    1.16
  -3   3 -12    0.16    0.49
   4   3  12    6.52    0.70
   4   3  12    6.72    0.70
  -4   3 -12    9.08    1.72
  -4   3 -12    5.31    0.58
  -4   3 -12    5.17    0.49
   4   3  12    3.86    1.37
   4   3  12    5.43    0.48
  -4   3 -12    6.67    0.74
   4   3  12    6.78    0.73
  -4   3 -12    6.22    0.88
   5   3  12    0.27    0.44
  -5   3 -12    0.11    0.29
   5   3  12   -0.01    0.54
  -5   3 -12   -0.35    0.43
   5   3  12   -0.50    0.31
  -5   3 -12   -0.09    0.50
   5   3  12   -0.04    0.26
  -5   3 -12   -0.17    0.36
  -6   3 -12   14.23    1.23
   6   3  12   15.11    1.19
  -6   3 -12   13.96    1.21
   6   3  12   13.74    1.10
   6   3  12   12.33    1.19
  -6   3 -12   13.72    1.43
  -6   3 -12   14.45    0.90
   6   3  12   14.88    0.90
   7   3  12    8.76    0.78
  -7   3 -12    7.01    0.87
   7   3  12    7.38    0.57
  -7   3 -12    8.48    0.92
  -7   3 -12    7.41    0.58
  -7   3 -12    6.71    0.88
  -7   3 -12    6.00    0.76
  -8   3 -12    8.23    0.84
   8   3  12    6.37    0.52
  -8   3 -12    7.57    0.89
   8   3  12    7.26    0.74
  -8   3 -12    5.77    0.75
  -9   3 -12    0.57    0.76
   9   3  12    0.06    0.58
  -9   3 -12   -0.34    0.52
  -9   3 -12   -0.25    0.55
   9   3  12   -1.02    0.43
  10   3  12   -0.42    0.38
 -10   3 -12    0.34    0.53
 -10   3 -12   -0.08    0.33
  10   3  12    0.00    0.43
 -10   3 -12   -0.46    0.35
 -11   3 -12    0.30    0.28
 -11   3 -12    0.03    0.49
  11   3  12    0.11    0.26
  11   3  12   -0.25    0.36
 -11   3 -12   -0.45    0.33
 -12   3 -12    6.53    0.54
  12   3  12    8.30    0.68
 -12   3 -12    7.95    0.75
  12   3  12    7.85    0.55
  15   4 -12   -0.12    0.20
 -15   4  12    0.90    0.43
  14   4 -12    3.10    0.53
  14   4 -12    4.35    0.52
 -14   4  12    3.11    0.31
  14   4 -12    5.13    0.42
 -14   4  12    2.90    0.60
 -14   4  12    4.91    0.51
 -13   4  12   30.01    1.69
  13   4 -12   26.79    1.54
 -13   4  12   24.46    1.57
  13   4 -12   21.86    1.56
  12   4 -12    0.49    0.66
  12   4 -12   -0.20    0.45
  12   4 -12    0.79    0.52
 -12   4  12   -0.71    0.43
 -12   4  12   -0.05    0.42
 -12   4  12    0.86    0.72
  11   4 -12    5.56    0.72
  11   4 -12    5.39    0.64
  11   4 -12    4.68    0.53
 -11   4  12    4.03    0.70
 -11   4  12    5.16    0.64
 -11   4  12    4.95    0.58
  10   4 -12   14.99    1.48
  10   4 -12   12.92    1.18
 -10   4  12   12.84    1.14
 -10   4  12   14.94    1.54
  10   4 -12   13.70    1.12
 -10   4  12   14.84    1.26
   9   4 -12    0.37    0.71
  -9   4  12    0.02    0.41
   9   4 -12    0.00    0.36
  -9   4  12    0.51    0.71
  -9   4  12   -0.96    0.49
   9   4 -12    0.07    0.50
  -8   4  12   19.61    1.44
  -8   4  12   18.97    1.76
   8   4 -12   19.59    1.60
   8   4 -12   20.71    1.31
  -8   4  12   18.52    1.33
   8   4 -12   20.74    1.42
  -7   4  12   10.33    1.79
  -7   4  12   15.90    1.35
  -7   4  12   16.84    1.23
   7   4 -12   14.83    1.19
   7   4 -12   14.83    1.09
   7   4 -12   15.29    1.49
  -7   4  12   16.52    1.27
  -6   4  12   17.42    1.45
   6   4 -12   17.56    1.31
   6   4 -12   21.43    1.34
   6   4 -12   18.33    1.61
  -6   4  12   19.63    1.24
   6   4 -12   10.81    1.94
  -6   4  12   18.66    1.35
  -6   4  12   12.99    2.12
  -6   4  12   17.05    1.62
   5   4 -12   11.45    1.16
   5   4 -12   13.30    1.05
  -5   4  12   11.11    0.95
   5   4 -12    9.05    1.72
  -5   4  12   12.75    1.19
   5   4 -12   12.14    1.32
  -5   4  12   12.85    1.33
   5   4 -12   14.99    1.07
  -5   4  12   11.74    1.72
  -5   4  12   13.13    1.07
  -4   4  12    8.73    0.80
   4   4 -12    8.33    0.94
  -4   4  12    9.85    1.07
   4   4 -12    9.03    0.78
  -4   4  12    9.66    0.92
  -4   4  12    8.92    1.71
  -4   4  12    5.46    1.26
   4   4 -12    8.66    0.89
  -4   4  12    9.03    0.91
   4   4 -12   11.22    1.07
   4   4 -12    7.45    1.30
  -4   4  12    6.88    1.37
   4   4 -12    8.49    1.62
   3   4 -12    3.75    0.67
   3   4 -12    3.33    1.77
  -3   4  12    3.58    0.65
   3   4 -12    3.39    0.54
  -3   4  12    3.59    1.38
   3   4 -12    4.09    1.33
   3   4 -12    2.85    0.71
   3   4 -12    3.05    0.54
  -3   4  12    4.72    1.30
  -3   4  12    3.91    0.58
  -3   4  12    3.47    0.56
   3   4 -12    1.92    1.04
  -3   4  12    3.11    1.12
  -3   4  12    3.77    0.58
  -2   4  12    4.74    0.71
   2   4 -12    3.12    0.71
  -2   4  12    5.42    0.61
  -2   4  12    4.25    0.60
   2   4 -12    2.40    1.84
  -2   4  12    3.56    0.57
   2   4 -12    3.95    0.87
  -2   4  12    4.87    1.12
   2   4 -12    4.83    1.13
   2   4 -12    3.42    1.29
  -2   4  12    4.63    1.55
   2   4 -12    4.29    0.56
   2   4 -12    3.90    0.57
  -2   4  12    4.99    1.43
   1   4 -12   -0.11    0.73
   1   4 -12    0.77    1.01
   1   4 -12    0.56    0.44
  -1   4  12   -0.51    0.44
  -1   4  12   -0.20    0.42
  -1   4  12   -0.22    0.88
   1   4 -12   -0.21    0.40
  -1   4  12   -0.33    0.90
   1   4 -12    0.42    1.13
  -1   4  12    0.26    0.52
  -1   4  12    1.17    0.72
   1   4 -12   -1.31    1.19
   1   4 -12    0.99    0.47
   0   4 -12    0.83    0.75
   0   4  12    0.29    0.50
   0   4  12    0.78    0.35
   0   4 -12   -1.38    0.97
   0   4 -12    2.17    1.34
   0   4 -12    0.40    0.45
   0   4 -12    0.93    0.57
   0   4  12    0.84    0.44
   0   4 -12    1.34    0.47
   0   4  12    0.81    0.37
   0   4  12    0.47    1.00
   0   4  12    0.17    0.93
   1   4  12    3.64    1.09
   1   4  12    1.39    0.54
  -1   4 -12    1.28    0.77
  -1   4 -12    1.50    1.79
  -1   4 -12    1.44    0.55
   1   4  12    1.86    0.39
   1   4  12    1.05    0.36
  -1   4 -12    1.62    0.49
   1   4  12    1.98    0.47
  -1   4 -12    0.88    0.48
  -2   4 -12   31.77    2.08
   2   4  12   32.65    2.08
   2   4  12   31.45    2.38
  -2   4 -12   35.26    1.93
   2   4  12   30.92    1.93
  -2   4 -12   31.03    2.50
   2   4  12   32.52    2.92
  -3   4 -12   11.61    1.03
   3   4  12   11.21    1.22
   3   4  12   12.59    1.02
   3   4  12   12.21    1.39
  -3   4 -12   12.00    0.92
   3   4  12   12.99    0.93
  -3   4 -12   11.98    1.24
   4   4  12   41.53    2.50
  -4   4 -12   41.90    2.68
   4   4  12   47.18    3.03
   4   4  12   43.11    2.69
  -4   4 -12   41.04    3.12
  -4   4 -12   43.72    3.01
   4   4  12   41.06    3.11
  -4   4 -12   46.03    2.56
   5   4  12    3.42    0.47
  -5   4 -12    2.70    0.60
   5   4  12    2.95    0.72
  -5   4 -12    3.84    0.68
   5   4  12    4.15    0.56
   5   4  12    4.43    0.63
  -5   4 -12    4.57    0.70
   6   4  12    2.46    0.71
   6   4  12    3.69    0.55
  -6   4 -12    1.86    0.83
  -6   4 -12    2.17    0.58
   6   4  12    3.02    0.51
  -6   4 -12    2.96    0.61
   6   4  12    2.41    0.51
  -6   4 -12    2.71    0.57
  -7   4 -12    1.68    0.51
  -7   4 -12    1.51    0.61
  -7   4 -12    1.86    0.56
  -7   4 -12    2.02    0.54
   7   4  12    2.40    0.39
   7   4  12    1.87    0.56
   7   4  12    1.60    0.51
   7   4  12    2.17    0.49
  -8   4 -12   11.72    0.89
  -8   4 -12   14.59    1.13
  -8   4 -12   12.08    1.25
   8   4  12   12.73    1.13
   8   4  12   13.07    0.92
   8   4  12   13.66    1.04
  -8   4 -12   12.19    1.07
  -9   4 -12   -1.03    0.71
   9   4  12    1.17    0.56
  -9   4 -12   -0.20    0.35
   9   4  12    0.05    0.33
  -9   4 -12   -0.24    0.33
   9   4  12    0.03    0.33
 -10   4 -12    9.54    0.86
  10   4  12    7.18    0.66
  10   4  12    7.97    0.58
 -10   4 -12    7.83    0.56
  10   4  12    7.83    0.77
 -10   4 -12    7.52    0.86
  11   4  12    0.62    0.20
 -11   4 -12    0.31    0.30
 -11   4 -12    0.43    0.43
  11   4  12    0.08    0.30
 -14   5  12    1.28    0.25
  14   5 -12    0.98    0.38
 -13   5  12    2.24    0.43
  13   5 -12    4.22    0.50
  13   5 -12    2.72    0.56
 -13   5  12    5.23    0.52
  12   5 -12    4.56    0.39
 -12   5  12    4.56    0.60
  12   5 -12    6.05    0.67
 -12   5  12    6.08    0.70
  12   5 -12    5.52    0.61
  11   5 -12    1.70    0.50
 -11   5  12    0.24    0.49
  11   5 -12    0.38    0.24
 -11   5  12    0.44    0.51
 -11   5  12    0.39    0.44
  11   5 -12    0.94    0.51
 -10   5  12    0.53    0.52
  10   5 -12    0.78    0.39
  10   5 -12    0.37    0.51
  10   5 -12    0.37    0.50
 -10   5  12    0.04    0.44
 -10   5  12    0.01    0.72
   9   5 -12    3.86    0.46
  -9   5  12    4.56    0.62
   9   5 -12    4.37    0.61
   9   5 -12    5.30    0.88
  -9   5  12    2.25    0.85
  -9   5  12    4.09    0.77
   8   5 -12    1.11    0.38
   8   5 -12    0.95    0.58
  -8   5  12    0.66    0.74
  -8   5  12    1.73    0.54
  -8   5  12    1.21    0.28
   8   5 -12    0.67    0.36
  -8   5  12    1.70    0.67
  -7   5  12    2.35    0.70
  -7   5  12    2.46    0.37
   7   5 -12    2.27    0.49
   7   5 -12    2.46    0.54
  -7   5  12    2.69    0.62
   7   5 -12    3.24    0.84
  -7   5  12    3.02    0.56
  -6   5  12    2.40    0.53
  -6   5  12    2.40    0.35
   6   5 -12    1.76    0.41
   6   5 -12    1.88    0.59
   6   5 -12    1.61    0.40
  -6   5  12    2.38    0.77
   6   5 -12    2.04    0.40
  -6   5  12    1.82    0.52
  -5   5  12    7.71    0.91
  -5   5  12    7.46    0.64
   5   5 -12    7.82    0.63
  -5   5  12    6.73    0.69
   5   5 -12    7.27    0.85
   5   5 -12    7.48    0.67
   5   5 -12    5.16    0.74
  -5   5  12    5.93    0.93
  -5   5  12    7.09    0.85
  -4   5  12   32.48    1.90
  -4   5  12   29.68    1.89
  -4   5  12   29.71    2.24
  -4   5  12   31.86    2.42
   4   5 -12   31.20    1.87
   4   5 -12   29.42    2.34
  -4   5  12   28.87    2.33
   4   5 -12   31.21    1.92
   4   5 -12   30.88    2.34
  -3   5  12   11.06    0.83
  -3   5  12   10.28    1.13
  -3   5  12   10.19    1.03
   3   5 -12    9.67    0.91
   3   5 -12   12.92    1.13
  -3   5  12   10.27    0.75
   3   5 -12    9.53    1.06
   3   5 -12   11.08    0.82
   3   5 -12    8.62    0.97
  -3   5  12   10.20    1.16
   2   5 -12   72.23    3.87
   2   5 -12   67.92    4.61
  -2   5  12   67.47    4.80
   2   5 -12   68.43    4.08
  -2   5  12   63.94    4.59
  -2   5  12   68.81    4.08
  -2   5  12   74.03    3.88
  -2   5  12   66.08    4.52
   2   5 -12   70.56    4.62
   2   5 -12   71.62    4.35
  -1   5  12    7.53    0.71
   1   5 -12    7.25    0.93
  -1   5  12    8.40    0.74
  -1   5  12    7.97    0.94
  -1   5  12    8.25    0.84
   1   5 -12    6.88    0.78
   1   5 -12    8.36    0.68
  -1   5  12    6.49    0.88
   1   5 -12    8.77    0.98
   1   5 -12    8.02    0.70
   0   5 -12    5.96    0.62
   0   5 -12    8.83    1.11
   0   5 -12    6.63    0.65
   0   5 -12    4.74    0.64
   0   5 -12    5.83    0.72
   0   5  12    6.03    0.65
   0   5  12    4.53    0.74
   0   5  12    5.78    0.99
   0   5  12    7.26    0.74
   0   5  12    6.02    0.57
  -1   5 -12    0.41    0.36
  -1   5 -12    0.40    0.58
   1   5  12   -0.17    0.34
   1   5  12    0.21    0.37
   1   5  12    0.37    0.55
  -1   5 -12    0.18    0.84
  -1   5 -12   -0.45    0.45
  -1   5 -12   -0.11    0.43
   1   5  12   -0.09    0.45
   2   5  12   -0.05    0.31
  -2   5 -12   -0.24    0.45
  -2   5 -12    0.05    0.55
   2   5  12    0.25    0.32
  -2   5 -12    0.11    0.84
   2   5  12   -0.66    0.51
   2   5  12   -0.30    0.29
  -3   5 -12    0.62    0.47
   3   5  12    0.29    0.30
  -3   5 -12    0.65    0.51
   3   5  12   -0.04    0.31
  -3   5 -12    0.80    0.61
  -3   5 -12    0.34    0.36
   3   5  12    0.46    0.58
   3   5  12    0.44    0.71
   4   5  12    2.62    0.62
   4   5  12    3.55    0.54
  -4   5 -12    4.34    0.90
  -4   5 -12    3.25    0.56
  -4   5 -12    3.48    0.40
   4   5  12    3.53    0.45
   4   5  12    3.93    0.56
  -5   5 -12    4.45    0.40
  -5   5 -12    4.42    0.50
   5   5  12    5.09    0.58
   5   5  12    4.62    0.44
  -5   5 -12    3.99    0.80
  -5   5 -12    5.29    0.75
   5   5  12    5.21    0.66
   5   5  12    4.12    0.81
  -6   5 -12    6.78    0.80
  -6   5 -12    5.17    0.91
  -6   5 -12    6.78    0.67
   6   5  12    5.96    0.54
   6   5  12    6.14    0.72
   6   5  12    7.95    0.75
   6   5  12    6.44    0.63
   7   5  12   -0.11    0.33
   7   5  12    0.03    0.18
  -7   5 -12    0.61    0.48
  -7   5 -12   -0.39    0.45
  -7   5 -12   -0.13    0.48
   7   5  12    0.11    0.41
  -8   5 -12   13.39    1.15
  -8   5 -12   10.56    1.02
  -8   5 -12   13.04    0.89
   8   5  12   12.84    1.17
   8   5  12   13.03    0.99
  -9   5 -12    5.82    0.66
  -9   5 -12    4.39    0.55
   9   5  12    5.36    0.58
   9   5  12    5.65    0.51
 -10   5 -12    0.56    0.22
  10   5  12    0.06    0.26
  12   6 -12    6.15    0.47
  11   6 -12    5.59    0.51
  11   6 -12    5.56    0.64
 -11   6  12    3.99    0.60
 -11   6  12    7.57    0.70
 -11   6  12    6.29    0.48
 -10   6  12    0.76    0.46
  10   6 -12    0.95    0.39
 -10   6  12    0.59    0.52
 -10   6  12    1.44    0.34
  10   6 -12    0.07    0.66
   9   6 -12    1.20    0.54
  -9   6  12    1.01    0.65
  -9   6  12    0.96    0.37
   9   6 -12    1.00    0.41
   9   6 -12    0.69    0.47
  -9   6  12    0.78    0.54
  -8   6  12    0.91    0.51
   8   6 -12    2.13    0.61
   8   6 -12    1.66    0.44
  -8   6  12    1.98    0.39
   8   6 -12    2.74    0.43
  -8   6  12    1.67    0.59
   7   6 -12    6.40    0.57
   7   6 -12    4.99    0.58
  -7   6  12    5.46    0.73
  -7   6  12    5.92    0.55
   7   6 -12    7.15    0.97
  -7   6  12    7.58    0.83
   6   6 -12   10.46    1.11
  -6   6  12    8.69    0.92
  -6   6  12    8.07    1.08
   6   6 -12   10.26    0.84
  -6   6  12   11.74    0.83
   6   6 -12    9.17    0.85
   5   6 -12   22.67    1.42
  -5   6  12   20.95    1.79
  -5   6  12   24.91    1.42
   5   6 -12   22.61    1.63
  -5   6  12   21.98    1.78
   5   6 -12   21.82    1.78
  -4   6  12    3.04    0.59
   4   6 -12    3.73    0.48
   4   6 -12    2.77    0.45
   4   6 -12    3.06    0.64
  -4   6  12    2.37    0.43
  -4   6  12    3.38    0.76
  -4   6  12    2.87    0.74
  -3   6  12    9.26    1.10
   3   6 -12    9.34    0.95
  -3   6  12   10.02    0.89
  -3   6  12    8.67    0.92
   3   6 -12    9.80    0.77
  -3   6  12    6.95    0.98
   3   6 -12    7.77    0.82
   3   6 -12    8.62    1.06
  -2   6  12    0.26    0.37
  -2   6  12   -0.82    0.46
  -2   6  12    0.17    0.44
   2   6 -12    0.41    0.35
  -2   6  12   -0.20    0.78
   2   6 -12   -0.25    0.47
   2   6 -12   -0.10    0.50
   2   6 -12    0.01    0.60
  -1   6  12    4.22    0.94
   1   6 -12    3.87    0.80
  -1   6  12    4.79    0.64
   1   6 -12    3.06    0.59
   1   6 -12    3.74    0.48
  -1   6  12    4.98    0.66
   1   6 -12    3.40    0.78
  -1   6  12    4.89    0.50
   0   6  12    0.06    0.83
   0   6  12    0.17    0.40
   0   6 -12    0.20    0.34
   0   6 -12   -0.18    0.35
   0   6  12    0.19    0.37
   0   6  12   -0.38    0.69
   0   6 -12   -0.05    0.63
   0   6 -12   -0.10    0.65
  -1   6 -12    1.86    0.52
  -1   6 -12    2.38    0.42
   1   6  12    1.38    0.55
   1   6  12    2.62    0.41
   1   6  12    1.81    0.63
  -1   6 -12    1.39    0.68
   2   6  12    1.15    0.37
   2   6  12    0.76    0.47
  -2   6 -12    1.63    0.90
  -2   6 -12    1.74    0.61
   2   6  12    1.45    0.59
  -2   6 -12    1.23    0.39
  -3   6 -12    0.03    0.25
   3   6  12    0.35    0.53
   3   6  12    0.45    0.26
  -3   6 -12   -0.01    0.50
  -3   6 -12    0.43    0.84
  -4   6 -12   43.46    2.51
   4   6  12   41.49    3.18
   4   6  12   46.71    2.52
  -4   6 -12   46.00    3.08
   5   6  12   -0.26    0.62
   5   6  12    0.09    0.49
  -5   6 -12    0.40    0.35
  -5   6 -12    0.33    0.52
   6   6  12    6.05    0.73
  -6   6 -12    7.73    0.64
  -6   6 -12    6.17    0.75
   6   6  12    8.14    0.66
   7   6  12    0.25    0.42
   7   6  12    0.95    0.35
   7   6  12    1.03    0.22
  -7   6 -12    0.79    0.27
  -7   6 -12    1.07    0.44
   8   6  12    2.83    0.38
   9   7 -12    9.29    0.72
  -9   7  12    9.63    0.81
   8   7 -12    3.56    0.55
   8   7 -12    2.27    0.37
  -8   7  12    1.93    0.62
  -8   7  12    1.96    0.68
  -7   7  12    3.26    0.56
   7   7 -12    4.95    0.66
  -7   7  12    3.20    0.76
   7   7 -12    2.53    0.40
   6   7 -12    0.43    0.32
   6   7 -12    1.31    0.55
  -6   7  12    1.93    0.54
  -6   7  12    2.20    0.50
   5   7 -12   -0.30    0.50
  -5   7  12    0.02    0.66
  -4   7  12    0.71    0.51
   4   7 -12   -0.92    0.48
  -3   7  12    0.36    0.63
  -3   7  12    0.58    0.46
   3   7 -12   -0.06    0.48
   2   7 -12   13.92    1.05
   2   7 -12    7.86    1.07
  -2   7  12   11.77    1.06
  -2   7  12   12.60    1.38
   2   7 -12   13.09    1.32
   1   7 -12    3.19    0.58
   1   7 -12    3.29    0.46
  -1   7  12    3.12    0.66
  -1   7  12    2.66    0.64
   1   7 -12    3.44    0.66
   0   7  12   12.79    1.29
   0   7 -12   12.81    1.27
   0   7 -12   13.00    1.12
   0   7  12   13.26    1.19
   1   7  12    6.37    0.81
  -1   7 -12    4.80    0.98
  -1   7 -12    9.06    0.81
   2   7  12    0.77    0.75
  -2   7 -12    0.57    0.52
  -2   7 -12    1.77    0.61
   2   7  12    0.93    0.41
  -3   7 -12    8.25    0.81
   3   7  12   10.14    1.02
  -3   7 -12   10.13    0.96
  -4   7 -12   -0.59    0.50
   4   7  12    0.03    0.44
  -5   7 -12    0.26    0.44
   5   7  12   -0.26    0.35
  -6   7 -12    6.17    0.68
   5   8 -12    6.73    0.71
   4   8 -12    3.98    0.50
   3   8 -12    2.61    0.43
   2   8 -12    1.84    0.43
  -2   8  12    2.57    0.43
  -1   8  12    0.60    0.30
   1   8 -12    0.41    0.38
  -1   8  12    0.36    0.39
   0   8  12    0.47    0.26
   0   8 -12    0.05    0.33
   0   8  12    0.58    0.40
   1   8  12    3.82    0.55
  -1   8 -12    3.97    0.46
  16   0 -13   -0.30    0.23
 -16   0  13    0.08    0.24
 -15   0  13    1.03    0.47
  15   0 -13    0.62    0.39
 -14   0  13   -0.51    0.34
  14   0 -13   -0.07    0.39
  13   0 -13   13.94    0.94
 -13   0  13   13.93    1.12
  12   0 -13    0.42    0.41
 -12   0  13    0.06    0.37
 -11   0  13   48.56    2.82
 -10   0  13   -0.03    0.36
  -9   0  13   41.47    2.46
  -8   0  13   -0.80    0.47
  -7   0  13   -0.68    0.47
  -6   0  13    0.04    0.34
  -3   0 -13   18.55    2.31
   3   0  13   20.37    2.01
  -4   0 -13   -0.39    1.25
   4   0  13   -0.65    0.63
  -4   0 -13    0.18    0.30
  -5   0 -13    0.57    0.33
   6   0  13   -0.42    0.38
  -6   0 -13   -0.23    0.31
  -7   0 -13   16.06    1.08
   7   0  13   15.65    1.04
   8   0  13   -0.38    0.25
  -8   0 -13   -0.31    0.32
   9   0  13    3.63    0.48
  -9   0 -13    4.06    0.55
 -10   0 -13    0.02    0.43
  10   0  13   -0.29    0.34
 -11   0 -13   17.67    1.15
  11   0  13   17.42    1.05
 -12   0 -13    0.40    0.38
 -12   0 -13   -0.36    0.19
  12   0  13   -0.12    0.17
 -16  -1  13    4.93    0.55
  16  -1 -13    5.87    0.50
  16   1 -13    6.20    0.45
  15   1 -13   23.39    1.32
 -15   1  13   24.16    1.36
 -15   1  13   19.13    1.64
 -14  -1  13    7.58    0.73
 -14   1  13    7.84    0.90
  14   1 -13    9.33    0.77
 -14   1  13    7.20    0.67
 -13  -1  13   14.51    1.07
  13   1 -13   15.02    1.01
 -13   1  13   18.52    1.18
 -13   1  13   15.00    1.25
 -12   1  13    3.00    0.79
  12   1 -13    2.45    0.48
 -12   1  13    2.16    0.55
 -11   1  13    5.20    0.64
  11   1 -13    5.15    0.56
  10   1 -13    0.83    0.31
 -10   1  13    0.89    0.50
  -9   1  13    1.08    0.50
   9   1 -13    0.94    0.42
   8   1 -13   18.07    1.25
  -8   1  13   20.70    1.35
   7   1 -13    0.77    0.30
  -7   1  13    0.95    0.47
   6   1 -13   38.91    2.29
  -6   1  13   41.26    2.35
   5   1 -13    0.18    0.37
  -5   1  13   -0.16    0.43
  -4   1  13    0.87    0.47
   4   1 -13    1.48    0.41
   3   1 -13    2.61    0.34
  -3   1  13    2.57    0.39
   2   1 -13   15.02    1.00
  -2   1  13   13.65    1.09
   1   1 -13    0.74    0.36
  -1   1  13   -0.09    0.30
   0   1  13   37.26    2.21
   0   1 -13   38.13    2.14
  -1   1 -13   19.32    1.26
  -1   1 -13   27.54    2.47
   1   1  13   23.05    2.14
   1   1  13   20.31    1.37
   2   1  13   17.68    1.88
  -2   1 -13   16.68    1.07
   2   1  13   16.02    1.09
  -2   1 -13   18.74    2.37
   3   1  13   46.47    3.78
   3   1  13   49.40    2.67
  -3   1 -13   47.44    4.19
  -3   1 -13   45.32    2.64
  -4   1 -13   -0.10    1.40
  -4   1 -13    0.94    0.33
   4   1  13    0.92    0.45
   4   1  13    0.98    0.78
   5   1  13    0.26    1.13
  -5   1 -13   -0.07    0.51
   5   1  13    0.25    0.37
  -5   1 -13   -0.21    0.30
  -5   1 -13    0.99    1.12
  -6   1 -13    6.75    0.59
   6   1  13    6.82    0.62
   7   1  13    0.96    0.40
  -7   1 -13    0.44    0.44
   8   1  13    9.76    0.84
  -8   1 -13   10.02    0.79
  -9  -1 -13   16.67    1.14
   9   1  13   19.29    1.16
  -9   1 -13   17.37    1.31
  -9   1 -13   17.19    1.12
 -10  -1 -13    0.42    0.45
  10   1  13    0.29    0.23
 -10   1 -13   -0.15    0.37
 -10   1 -13    0.25    0.42
  11  -1  13    1.87    0.28
 -11  -1 -13    2.99    0.36
 -11   1 -13    1.91    0.52
 -11   1 -13    2.06    0.31
  11   1  13    2.26    0.26
 -11   1 -13    1.39    0.43
 -12  -1 -13    1.54    0.26
  12   1  13    1.07    0.15
 -12   1 -13    1.16    0.40
  12   1  13    1.11    0.31
 -16   2  13    9.49    0.80
 -16   2  13    9.18    0.81
  15   2 -13    2.85    0.26
 -15   2  13    2.47    0.45
 -15   2  13    1.66    0.50
  15   2 -13    2.79    0.42
  14   2 -13    2.06    0.41
 -14   2  13    1.88    0.24
  14   2 -13    2.19    0.36
 -14   2  13    1.81    0.69
 -14   2  13    2.15    0.66
  13   2 -13    0.02    0.36
  13   2 -13    0.78    0.53
 -13   2  13    0.12    0.30
 -13   2  13    0.62    0.49
  12   2 -13    0.23    0.28
 -12   2  13   -0.14    0.70
 -12   2  13    0.07    0.39
  12   2 -13    0.03    0.54
 -11   2  13    1.15    0.53
 -11   2  13    1.43    0.44
  11   2 -13    1.56    0.32
  11   2 -13    1.29    0.58
 -10   2  13    2.46    0.49
 -10   2  13    1.85    0.73
  10   2 -13    2.20    0.45
  10   2 -13    2.22    0.47
   9   2 -13    6.89    0.79
  -9   2  13    6.77    0.78
   9   2 -13    7.06    0.63
  -9   2  13    7.35    0.67
   8   2 -13    0.43    0.39
  -8   2  13    0.05    0.43
  -8   2  13    0.14    0.46
   8   2 -13    0.71    0.54
  -7   2  13   14.38    1.07
   7   2 -13   14.20    1.02
  -7   2  13   12.74    1.32
  -7   2  13   12.45    1.95
   7   2 -13   15.39    1.12
   6   2 -13    0.54    0.62
   6   2 -13    1.50    0.40
  -6   2  13    1.43    0.44
  -6   2  13    1.05    1.30
  -6   2  13    0.41    0.97
   6   2 -13    0.80    0.54
   6   2 -13   -1.25    1.15
  -6   2  13    0.72    0.46
  -5   2  13   -0.22    0.40
   5   2 -13   -0.53    0.75
  -5   2  13    0.62    0.59
  -5   2  13    0.37    0.94
  -5   2  13    0.55    0.38
   5   2 -13    0.29    1.13
   5   2 -13    0.31    0.50
  -5   2  13    0.63    1.21
   5   2 -13    0.50    0.36
   4   2 -13    1.87    0.55
   4   2 -13    2.53    0.87
   4   2 -13    1.55    0.56
   4   2 -13    1.53    0.37
  -4   2  13    1.92    0.43
  -4   2  13    3.45    1.29
   4   2 -13    1.40    1.16
  -4   2  13    2.04    0.60
  -4   2  13    1.50    0.97
  -4   2  13    1.98    0.45
   3   2 -13    9.78    0.74
   3   2 -13    7.39    1.43
  -3   2  13    9.73    1.54
   3   2 -13    8.41    0.85
   3   2 -13    7.33    1.21
  -3   2  13    7.46    0.80
  -3   2  13    8.95    0.80
  -3   2  13    8.14    0.69
   3   2 -13    9.40    0.84
  -3   2  13    7.27    1.13
   2   2 -13    8.22    1.22
   2   2 -13    6.46    1.39
  -2   2  13   10.15    0.90
   2   2 -13    8.97    0.84
  -2   2  13    9.49    0.73
  -2   2  13    5.06    1.27
  -2   2  13    8.48    1.52
  -2   2  13   10.60    1.48
   2   2 -13    7.86    0.64
  -1   2  13    2.00    0.35
   1   2 -13    0.99    0.83
  -1   2  13    2.44    1.03
   1   2 -13    3.18    1.19
   1   2 -13    2.34    1.53
  -1   2  13    2.74    1.26
   1   2 -13    1.58    0.39
  -1   2  13    2.93    0.58
   1   2 -13    2.34    0.43
  -1   2  13    2.52    1.23
   0   2  13   14.52    1.19
   0   2  13   16.63    1.78
   0   2 -13   14.38    1.27
   0   2  13   13.40    1.73
   0   2 -13   16.03    1.65
   0   2 -13   15.56    1.85
   0   2 -13   17.40    1.09
   0   2  13   19.72    2.12
   0   2  13   16.57    1.11
   0   2 -13   17.65    2.19
   1   2  13    6.39    1.43
   1   2  13    5.54    0.72
  -1   2 -13    3.82    1.34
  -1   2 -13    6.60    0.58
  -1   2 -13    7.44    1.81
   1   2  13    5.05    1.22
  -1   2 -13    5.70    0.72
   1   2  13    6.23    1.24
   1   2  13    7.19    0.61
  -1   2 -13    5.45    1.08
  -2   2 -13    3.09    0.45
   2   2  13    3.73    1.33
   2   2  13    2.45    0.58
   2   2  13    3.58    1.05
  -2   2 -13    1.93    1.36
  -2   2 -13    2.26    0.90
   2   2  13    2.48    1.10
   2   2  13    2.99    0.39
  -2   2 -13    2.89    1.56
  -2   2 -13    2.69    0.62
   3   2  13    6.81    1.26
  -3   2 -13    2.95    1.30
  -3   2 -13    5.77    0.57
  -3   2 -13    3.20    1.41
  -3   2 -13    5.41    0.72
  -4   2 -13    1.20    0.42
   4   2  13    1.53    0.57
  -4   2 -13    1.64    1.61
  -4   2 -13    1.08    0.63
   4   2  13    1.27    0.37
   4   2  13    0.99    0.39
   4   2  13   -0.37    0.80
  -4   2 -13    1.12    0.58
  -5   2 -13    3.72    0.57
  -5   2 -13    2.88    0.47
   5   2  13    2.15    0.49
   5   2  13    3.35    0.44
  -5   2 -13    3.19    0.64
   5   2  13    3.42    0.49
   6   2  13   19.22    1.58
  -6   2 -13   22.66    1.64
  -6   2 -13   21.91    1.64
  -6   2 -13   21.93    1.32
   6   2  13   23.02    1.36
   7   2  13    0.67    0.34
  -7   2 -13   -0.04    0.37
   7   2  13    0.15    0.47
   8   2  13    2.92    0.39
  -8   2 -13    4.16    0.74
   8   2  13    3.18    0.59
  -8   2 -13    3.53    0.41
   9   2  13   20.87    1.47
  -9   2 -13   19.44    1.19
  -9   2 -13   20.59    1.53
   9   2  13   20.54    1.17
  10   2  13   10.35    0.93
 -10   2 -13   12.49    1.08
 -10   2 -13    8.71    0.84
 -11   2 -13   28.30    2.15
 -11   2 -13   28.70    1.82
  11   2  13   28.04    1.76
 -15   3  13    0.85    0.38
 -15   3  13   -0.07    0.33
  15   3 -13    0.82    0.29
 -15   3  13    0.29    0.37
  15   3 -13    0.79    0.34
  14   3 -13    2.26    0.49
  14   3 -13    1.31    0.36
 -14   3  13    1.57    0.53
 -14   3  13    1.21    0.41
 -14   3  13    2.01    0.51
 -13   3  13   11.60    0.96
 -13   3  13    9.23    0.85
  13   3 -13    8.47    0.51
 -13   3  13    6.78    0.83
  13   3 -13    8.04    0.75
  13   3 -13    9.64    0.91
  12   3 -13    4.50    0.63
  12   3 -13    2.99    0.34
  12   3 -13    3.43    0.62
 -12   3  13    3.52    0.78
 -12   3  13    2.65    0.50
 -12   3  13    3.26    0.70
 -11   3  13   15.19    1.22
 -11   3  13   17.38    1.28
 -11   3  13   16.43    1.47
  11   3 -13   16.97    1.23
  11   3 -13   17.71    1.08
 -10   3  13    0.53    0.64
 -10   3  13   -0.33    0.23
  10   3 -13    0.04    0.32
 -10   3  13    1.48    0.60
  10   3 -13    0.14    0.54
 -10   3  13    0.28    0.72
   9   3 -13    0.41    0.32
  -9   3  13    0.67    0.44
   9   3 -13    0.33    0.40
  -9   3  13    0.02    0.68
  -9   3  13    0.96    0.65
  -9   3  13    0.75    0.33
  -8   3  13   45.04    2.43
   8   3 -13   38.10    2.59
  -8   3  13   44.11    2.82
   8   3 -13   45.09    2.73
   8   3 -13   44.23    2.45
  -8   3  13   46.05    3.07
  -8   3  13   40.07    2.57
   8   3 -13   46.88    3.09
  -7   3  13    6.22    0.67
   7   3 -13    7.92    0.93
  -7   3  13    6.28    0.59
   7   3 -13    6.80    0.77
   7   3 -13    6.86    0.55
  -7   3  13    7.09    0.84
   7   3 -13    6.75    0.64
  -7   3  13    6.40    0.90
   6   3 -13   11.93    1.02
  -6   3  13   14.42    1.22
   6   3 -13   12.96    1.14
   6   3 -13   13.84    0.90
   6   3 -13   12.43    1.30
  -6   3  13   12.62    0.91
  -6   3  13   14.35    1.17
  -6   3  13   12.80    1.34
  -5   3  13    6.09    0.57
   5   3 -13    6.53    0.73
  -5   3  13    6.21    0.74
   5   3 -13    6.15    0.84
  -5   3  13    5.65    0.81
   5   3 -13    6.75    0.61
  -5   3  13    6.54    1.45
  -5   3  13    6.03    0.67
   5   3 -13    6.83    1.84
   5   3 -13    6.55    1.42
  -5   3  13    5.25    1.47
   4   3 -13   22.95    1.77
  -4   3  13   22.53    2.27
  -4   3  13   21.39    2.12
  -4   3  13   23.99    1.36
   4   3 -13   22.17    1.44
   4   3 -13   21.42    2.02
   4   3 -13   24.44    1.54
  -4   3  13   22.89    1.56
  -4   3  13   20.68    2.42
   4   3 -13   23.36    1.36
   4   3 -13   23.26    2.81
  -4   3  13   20.30    1.54
   4   3 -13   19.19    2.00
  -4   3  13   23.18    1.71
  -3   3  13    3.62    0.55
  -3   3  13    1.39    1.16
  -3   3  13    4.21    0.64
   3   3 -13    2.44    1.65
   3   3 -13    2.87    0.59
   3   3 -13    4.21    0.68
  -3   3  13    2.13    1.35
  -3   3  13    3.59    0.48
  -3   3  13    2.29    0.97
  -3   3  13    3.90    0.50
   3   3 -13    3.74    0.58
   3   3 -13    2.13    0.89
   3   3 -13    4.16    0.42
   3   3 -13    3.67    1.21
  -2   3  13   11.20    0.92
  -2   3  13    9.60    1.00
  -2   3  13   10.00    1.78
  -2   3  13   11.10    0.94
   2   3 -13   12.24    0.80
  -2   3  13   11.50    0.80
   2   3 -13   11.49    1.37
   2   3 -13    9.74    2.05
   2   3 -13   11.86    0.92
   2   3 -13    9.95    1.33
   2   3 -13   10.53    1.08
  -2   3  13   10.93    1.29
   2   3 -13    9.41    0.85
  -2   3  13    9.58    1.60
   1   3 -13    7.78    0.85
   1   3 -13    8.93    0.71
  -1   3  13    8.63    1.46
  -1   3  13    9.28    0.87
   1   3 -13    7.47    1.40
   1   3 -13    9.46    0.80
   1   3 -13    9.54    0.85
  -1   3  13    7.51    0.79
   1   3 -13    5.96    1.95
  -1   3  13    9.79    1.51
  -1   3  13    8.96    0.71
  -1   3  13    7.71    1.32
   1   3 -13    8.39    1.10
   0   3 -13   22.68    2.99
   0   3 -13   26.11    2.28
   0   3  13   29.27    1.61
   0   3  13   25.72    1.68
   0   3  13   26.00    2.62
   0   3 -13   28.18    1.60
   0   3 -13   23.37    2.41
   0   3 -13   29.56    1.87
   0   3 -13   27.66    1.74
   0   3  13   27.40    2.76
   0   3  13   27.31    1.81
  -1   3 -13   21.76    2.61
  -1   3 -13   22.33    1.59
   1   3  13   22.72    1.59
  -1   3 -13   22.65    1.33
   1   3  13   22.32    1.87
   1   3  13   19.16    2.37
  -1   3 -13   21.08    1.50
  -1   3 -13   20.39    2.21
   1   3  13   22.28    1.43
  -2   3 -13    1.95    0.55
   2   3  13    0.94    0.51
  -2   3 -13    1.12    0.34
  -2   3 -13    1.91    1.70
  -2   3 -13    0.96    0.38
   2   3  13    3.03    1.06
   2   3  13    1.27    0.29
   2   3  13    0.91    0.51
   2   3  13    0.66    0.48
  -2   3 -13    1.81    0.72
   3   3  13   -0.86    0.85
  -3   3 -13    0.68    0.67
   3   3  13    0.54    0.27
  -3   3 -13    0.53    0.52
  -3   3 -13    2.99    1.72
   3   3  13    1.12    0.50
   3   3  13    0.77    0.62
  -3   3 -13    0.56    0.37
  -3   3 -13    0.60    0.30
   3   3  13    0.37    0.48
   4   3  13    5.46    0.67
  -4   3 -13    5.81    0.59
  -4   3 -13    4.38    0.84
  -4   3 -13    4.96    0.45
   4   3  13    6.09    0.81
   4   3  13    6.16    0.60
  -4   3 -13    4.92    0.69
   4   3  13    4.74    0.44
  -5   3 -13   33.83    2.19
   5   3  13   35.79    2.60
  -5   3 -13   36.40    2.68
  -5   3 -13   39.96    2.05
  -5   3 -13   38.60    2.34
   5   3  13   34.74    2.38
   5   3  13   35.38    2.22
   5   3  13   38.17    2.05
  -6   3 -13    0.03    0.22
  -6   3 -13    0.03    0.36
   6   3  13   -0.31    0.52
   6   3  13    0.06    0.21
   6   3  13    0.41    0.49
  -6   3 -13    0.51    0.53
  -6   3 -13   -0.18    0.44
   7   3  13   38.11    2.06
  -7   3 -13   34.78    2.62
  -7   3 -13   38.19    2.43
   7   3  13   40.76    2.42
  -7   3 -13   39.51    2.80
  -7   3 -13   34.25    2.22
  -8   3 -13    4.29    0.70
   8   3  13    5.20    0.62
  -8   3 -13    5.12    0.68
  -8   3 -13    3.47    0.63
   8   3  13    3.03    0.54
   9   3  13   -0.23    0.43
  -9   3 -13   -0.10    0.50
  -9   3 -13    0.07    0.50
  -9   3 -13   -0.34    0.48
   9   3  13    0.19    0.38
 -10   3 -13    3.61    0.44
  10   3  13    3.28    0.59
 -10   3 -13    3.63    0.49
 -10   3 -13    3.25    0.75
  10   3  13    3.55    0.48
  11   3  13    7.29    0.64
  11   3  13    6.45    0.58
 -11   3 -13    6.50    0.53
 -11   3 -13    6.28    0.70
  14   4 -13    5.75    0.50
 -14   4  13    5.81    0.52
  14   4 -13    6.38    0.65
 -14   4  13    4.84    0.60
 -13   4  13    0.32    0.25
 -13   4  13   -0.16    0.42
  13   4 -13   -0.68    0.38
  13   4 -13    0.28    0.40
  13   4 -13    0.28    0.47
 -13   4  13    0.09    0.39
 -12   4  13   -0.43    0.37
 -12   4  13    1.04    0.70
  12   4 -13    0.43    0.31
 -12   4  13   -0.61    0.55
  12   4 -13   -0.08    0.36
  12   4 -13    0.00    0.43
 -11   4  13    2.59    0.50
 -11   4  13    2.67    0.64
  11   4 -13    2.69    0.46
 -11   4  13    3.11    0.62
  11   4 -13    2.87    0.42
  11   4 -13    3.63    0.60
  10   4 -13   10.02    0.91
 -10   4  13    9.59    0.89
 -10   4  13    9.31    1.07
 -10   4  13    8.51    0.77
  10   4 -13    8.59    0.91
  10   4 -13    8.38    0.81
  -9   4  13    1.92    0.61
   9   4 -13    0.85    0.51
   9   4 -13    1.05    0.38
  -9   4  13    0.85    0.71
  -9   4  13    1.25    0.52
   9   4 -13    0.83    0.55
   8   4 -13   -0.59    0.51
  -8   4  13   -0.36    0.50
   8   4 -13    0.28    0.36
  -8   4  13    0.23    0.67
  -8   4  13    0.39    0.57
   8   4 -13   -0.42    0.48
   7   4 -13    8.91    0.85
  -7   4  13   10.51    0.91
  -7   4  13   10.13    1.05
   7   4 -13    9.91    0.94
   7   4 -13    8.77    1.07
  -7   4  13   10.72    0.98
   6   4 -13   10.40    0.85
  -6   4  13   11.47    1.00
  -6   4  13    9.24    1.04
   6   4 -13   10.18    0.87
  -6   4  13   11.17    1.07
  -6   4  13   10.21    0.92
   6   4 -13    9.36    1.08
  -5   4  13   27.04    1.76
   5   4 -13   25.18    1.73
  -5   4  13   25.28    1.98
   5   4 -13   25.27    2.05
  -5   4  13   29.00    1.82
   5   4 -13   26.94    1.66
   5   4 -13   26.17    1.96
  -5   4  13   29.56    2.06
   4   4 -13    1.36    1.28
  -4   4  13    3.68    0.58
  -4   4  13    1.55    1.37
   4   4 -13    3.17    0.45
  -4   4  13    2.11    0.77
   4   4 -13    2.81    0.55
   4   4 -13    2.38    0.71
  -4   4  13    2.41    0.68
   4   4 -13    3.10    0.78
  -4   4  13    3.96    0.61
   3   4 -13    0.57    0.48
  -3   4  13    0.22    0.50
   3   4 -13    0.08    0.45
   3   4 -13   -0.06    0.46
   3   4 -13   -0.58    1.26
   3   4 -13   -0.47    1.82
  -3   4  13    0.84    0.47
   3   4 -13   -0.70    0.71
  -3   4  13    0.28    0.40
  -3   4  13    0.57    1.33
  -3   4  13   -2.26    1.32
  -3   4  13    0.79    0.73
   2   4 -13   14.76    1.94
  -2   4  13   23.36    1.91
   2   4 -13   21.16    1.56
   2   4 -13   22.16    1.90
   2   4 -13   20.55    1.46
  -2   4  13   23.11    1.47
   2   4 -13   19.61    2.94
  -2   4  13   19.68    2.27
   2   4 -13   20.99    1.33
  -2   4  13   18.90    1.55
  -2   4  13   18.35    1.42
  -1   4  13    7.55    0.89
   1   4 -13    7.22    0.70
   1   4 -13    5.56    0.82
  -1   4  13    6.77    0.73
  -1   4  13    8.21    0.73
   1   4 -13    8.67    0.93
  -1   4  13    5.77    0.78
   1   4 -13    3.64    1.98
  -1   4  13    6.27    1.70
   1   4 -13    7.43    0.69
   0   4  13    0.64    0.46
   0   4 -13    0.77    0.54
   0   4  13    1.13    0.51
   0   4 -13    0.72    0.55
   0   4 -13    0.65    0.48
   0   4  13    0.41    0.33
   0   4  13    1.23    1.42
   0   4 -13    0.06    1.81
   0   4 -13    0.44    0.48
   0   4  13    0.62    0.73
  -1   4 -13    1.09    0.51
   1   4  13    0.80    0.48
  -1   4 -13    1.76    0.50
   1   4  13    1.42    0.72
  -1   4 -13    1.94    0.61
   1   4  13    0.95    0.51
   2   4  13   10.87    0.96
   2   4  13   10.66    1.15
  -2   4 -13   10.34    0.98
   2   4  13    9.71    0.87
  -2   4 -13   10.30    0.89
  -2   4 -13   13.56    1.22
   3   4  13   11.56    0.94
   3   4  13   12.07    1.18
   3   4  13   12.06    1.20
  -3   4 -13   12.71    1.27
  -3   4 -13   12.10    1.09
  -3   4 -13   12.51    1.02
   3   4  13   12.06    0.94
  -4   4 -13   -0.10    0.44
   4   4  13   -0.26    0.32
   4   4  13   -0.01    0.45
  -4   4 -13    0.77    0.52
  -4   4 -13   -0.07    0.75
   4   4  13   -0.11    0.39
   4   4  13   -0.15    0.43
  -5   4 -13   28.99    1.83
   5   4  13   29.11    1.85
  -5   4 -13   30.31    2.24
   5   4  13   26.95    2.05
   5   4  13   28.96    1.79
  -5   4 -13   25.94    2.24
   5   4  13   28.20    2.09
  -5   4 -13   27.35    1.84
   6   4  13    2.52    0.62
   6   4  13    1.83    0.63
  -6   4 -13    1.98    0.55
  -6   4 -13    1.98    0.57
   6   4  13    2.18    0.52
  -6   4 -13    1.84    0.77
   6   4  13    2.22    0.47
  -6   4 -13    2.14    0.51
  -7   4 -13    0.62    0.65
   7   4  13    1.23    0.45
  -7   4 -13   -0.14    0.71
  -7   4 -13    0.76    0.43
   7   4  13    0.61    0.42
   7   4  13    1.18    0.32
  -7   4 -13    0.73    0.54
  -8   4 -13    3.36    0.58
   8   4  13    2.92    0.44
  -8   4 -13    3.24    0.41
   8   4  13    2.20    0.48
  -8   4 -13    3.21    0.76
   9   4  13   10.52    0.74
   9   4  13   11.47    0.93
  -9   4 -13   10.51    1.00
  -9   4 -13   12.46    0.85
   9   4  13   10.51    0.80
 -10   4 -13    0.65    0.29
  10   4  13    0.26    0.29
 -10   4 -13    0.52    0.38
 -13   5  13    2.84    0.42
  13   5 -13    3.55    0.37
 -12   5  13    4.30    0.53
  12   5 -13    4.22    0.56
  12   5 -13    3.32    0.52
 -12   5  13    4.19    0.58
  11   5 -13    0.87    0.35
 -11   5  13    1.38    0.38
 -11   5  13    1.21    0.52
  11   5 -13    0.75    0.23
  11   5 -13    0.87    0.48
 -10   5  13    0.35    0.71
  10   5 -13   -0.62    0.47
  10   5 -13   -0.06    0.47
 -10   5  13    0.14    0.49
  10   5 -13    0.23    0.24
   9   5 -13   35.09    1.89
   9   5 -13   29.61    1.93
  -9   5  13   31.41    1.97
   9   5 -13   33.40    2.40
  -9   5  13   30.43    2.33
   8   5 -13   10.68    0.82
  -8   5  13    9.66    1.13
   8   5 -13   11.32    1.02
  -8   5  13   10.96    1.02
   8   5 -13   11.50    1.12
   7   5 -13   -0.36    0.33
  -7   5  13    0.13    0.22
   7   5 -13    0.11    0.70
  -7   5  13   -0.22    0.35
   7   5 -13   -0.10    0.34
  -7   5  13   -0.38    0.48
   6   5 -13    7.59    0.66
  -6   5  13    4.97    0.91
  -6   5  13    6.81    0.57
   6   5 -13    8.30    0.87
  -6   5  13    6.64    0.71
   6   5 -13    6.35    0.70
  -5   5  13    3.59    0.77
   5   5 -13    2.21    0.60
   5   5 -13    2.50    0.42
  -5   5  13    2.87    0.37
  -5   5  13    2.57    0.55
  -5   5  13    2.64    0.71
   5   5 -13    2.44    0.52
  -4   5  13    0.66    0.47
   4   5 -13   -0.04    0.35
  -4   5  13    0.05    0.31
  -4   5  13    0.55    0.47
  -4   5  13   -0.24    0.70
   4   5 -13    0.34    0.45
   4   5 -13   -0.88    0.67
   4   5 -13   -0.78    0.68
   3   5 -13    4.74    0.90
   3   5 -13    2.90    0.53
  -3   5  13    2.78    0.55
   3   5 -13    3.17    0.62
  -3   5  13    3.92    0.70
  -3   5  13    3.04    0.42
  -3   5  13    3.55    0.73
   3   5 -13    3.21    0.44
   2   5 -13    4.13    0.57
  -2   5  13    4.70    0.78
  -2   5  13    4.74    0.49
   2   5 -13    3.83    0.65
   2   5 -13    4.42    0.97
  -2   5  13    5.06    0.66
  -2   5  13    4.34    0.59
   2   5 -13    4.52    0.53
   1   5 -13   14.82    1.27
  -1   5  13   15.88    1.47
  -1   5  13   15.02    1.36
   1   5 -13   14.09    1.04
   1   5 -13   17.25    1.72
  -1   5  13   15.74    1.03
  -1   5  13   15.37    1.06
   1   5 -13   14.81    1.07
   0   5  13    0.09    0.81
   0   5 -13    0.50    0.62
   0   5 -13    0.54    0.45
   0   5  13   -0.23    0.51
   0   5 -13    0.11    0.58
   0   5  13    0.56    0.48
   0   5  13   -0.23    0.28
   0   5 -13   -0.28    0.36
   1   5  13   -0.08    0.35
   1   5  13   -0.03    0.47
   1   5  13    0.29    0.44
  -1   5 -13    0.10    0.27
   1   5  13    0.99    0.80
  -1   5 -13    0.41    0.40
  -1   5 -13    0.05    0.46
  -1   5 -13    0.25    0.62
   2   5  13    0.75    0.73
  -2   5 -13    0.17    0.36
   2   5  13    0.36    0.29
  -2   5 -13    0.42    0.60
   2   5  13    0.30    0.33
  -2   5 -13    0.61    0.48
  -3   5 -13    6.72    0.55
  -3   5 -13    6.40    0.83
   3   5  13    5.89    0.65
  -3   5 -13    6.39    0.67
   3   5  13    5.77    0.56
   3   5  13    6.10    0.78
   4   5  13    0.80    0.69
   4   5  13    0.89    0.33
   4   5  13    1.05    0.53
   4   5  13    0.57    0.45
  -4   5 -13    1.59    0.61
  -4   5 -13    0.82    0.24
  -4   5 -13    0.44    0.34
   5   5  13   20.03    1.66
   5   5  13   23.92    1.39
   5   5  13   24.49    1.87
  -5   5 -13   23.08    1.42
   5   5  13   25.57    1.49
  -5   5 -13   19.34    1.73
   6   5  13   -0.09    0.51
   6   5  13   -0.07    0.20
   6   5  13    1.18    0.42
  -6   5 -13    0.68    0.51
  -6   5 -13   -0.01    0.47
   6   5  13    0.60    0.40
  -6   5 -13   -0.09    0.44
   7   5  13   14.02    1.07
  -7   5 -13    9.62    1.05
   7   5  13   14.07    1.04
  -7   5 -13   14.48    1.02
   8   5  13    1.94    0.38
  -8   5 -13    0.68    0.36
  -8   5 -13    2.59    0.35
  -8   5 -13    2.17    0.39
   8   5  13    1.72    0.41
  -9   5 -13   26.30    1.50
  11   6 -13    1.06    0.31
  11   6 -13    1.41    0.40
 -11   6  13    1.20    0.40
  10   6 -13    0.30    0.25
 -10   6  13    0.30    0.46
 -10   6  13    0.36    0.23
  10   6 -13    0.29    0.60
   9   6 -13    9.35    0.80
  -9   6  13    9.72    0.73
   9   6 -13    9.96    0.98
   8   6 -13    1.38    0.55
  -8   6  13    1.26    0.34
  -8   6  13    0.98    0.73
   8   6 -13    1.37    0.39
  -7   6  13    2.91    0.41
  -7   6  13    2.12    0.48
   7   6 -13    2.43    0.79
  -7   6  13    4.12    0.63
   7   6 -13    2.07    0.43
  -6   6  13   16.86    1.55
  -6   6  13   17.93    1.09
  -6   6  13   14.35    1.23
   6   6 -13   17.86    1.39
   6   6 -13   14.62    1.02
  -5   6  13    0.21    0.36
  -5   6  13    0.17    0.48
   5   6 -13   -0.27    0.38
   5   6 -13    0.31    0.50
  -5   6  13   -0.10    0.56
  -4   6  13    1.02    0.66
  -4   6  13    0.37    0.36
  -4   6  13    0.54    0.66
  -4   6  13    0.16    0.42
   4   6 -13   -0.12    0.26
   4   6 -13    0.33    0.53
  -3   6  13   21.33    1.78
  -3   6  13   21.81    1.69
   3   6 -13   22.87    1.88
  -3   6  13   23.91    1.40
   3   6 -13   23.29    1.39
   3   6 -13   24.13    1.85
  -3   6  13   17.84    1.66
  -2   6  13    1.28    0.62
   2   6 -13    0.78    0.61
  -2   6  13    1.98    0.82
   2   6 -13    1.60    0.53
  -2   6  13    0.00    0.65
  -2   6  13    0.91    0.29
   2   6 -13    1.27    0.38
  -1   6  13   22.82    1.38
  -1   6  13   23.25    2.01
   1   6 -13   21.33    1.80
   1   6 -13   19.71    1.65
  -1   6  13   22.83    1.75
   1   6 -13   21.51    1.38
   0   6  13    1.72    0.61
   0   6  13    0.66    0.52
   0   6  13    1.15    0.29
   0   6 -13    1.04    0.39
   0   6 -13    0.51    0.89
   0   6 -13    1.24    0.49
  -1   6 -13    6.59    0.61
  -1   6 -13    5.57    0.79
   1   6  13    7.24    0.60
   1   6  13    8.01    1.03
  -1   6 -13    9.03    0.94
   1   6  13    7.17    0.72
   2   6  13    0.86    0.73
  -2   6 -13    0.12    0.25
   2   6  13    0.45    0.35
  -2   6 -13    0.23    0.58
  -2   6 -13    0.03    0.35
   3   6  13    1.41    0.55
  -3   6 -13    1.29    0.37
   3   6  13    2.00    0.30
  -3   6 -13    0.88    0.59
   4   6  13    5.40    0.71
  -4   6 -13    5.39    0.90
   4   6  13    6.63    0.52
  -4   6 -13    5.62    0.52
   5   6  13    0.32    0.43
  -5   6 -13    0.77    0.69
  -5   6 -13    0.26    0.30
  -6   6 -13    0.82    0.25
   6   6  13    1.04    0.22
   6   6  13    0.30    0.31
  -6   6 -13    0.92    0.42
   7   6  13   -0.12    0.13
  -9   7  13    0.67    0.35
  -8   7  13    0.77    0.38
   8   7 -13    3.31    0.48
   7   7 -13    3.00    0.52
  -7   7  13    1.37    0.44
  -7   7  13    1.13    0.37
   6   7 -13    2.03    0.54
  -6   7  13    2.11    0.42
  -6   7  13    2.18    0.50
   5   7 -13   12.22    1.10
  -5   7  13   11.64    1.23
   4   7 -13   -0.37    0.47
  -4   7  13    0.27    0.62
  -3   7  13    0.81    0.42
   3   7 -13    1.08    0.51
  -3   7  13    1.13    0.60
   2   7 -13    4.30    0.59
   2   7 -13    4.01    0.75
  -2   7  13    5.06    0.65
  -2   7  13    4.54    0.58
   1   7 -13    3.11    0.79
  -1   7  13    5.90    0.86
   1   7 -13    3.79    0.58
  -1   7  13    5.18    0.56
   0   7 -13    4.94    0.89
   0   7  13    6.17    0.73
   0   7 -13    5.46    0.64
   0   7  13    6.40    0.61
  -1   7 -13    3.30    0.62
  -1   7 -13    2.95    0.57
   1   7  13    3.36    0.62
   1   7  13    2.65    0.47
   2   7  13    2.19    0.52
  -2   7 -13    1.20    0.52
  -2   7 -13    0.73    0.33
  -3   7 -13   17.06    1.35
   3   7  13   17.00    1.36
  -4   7 -13    0.38    0.44
   4   7  13    1.00    0.38
  16   0 -14   10.97    0.74
 -16   0  14   12.98    0.77
 -15   0  14    0.43    0.40
  15   0 -14   -0.35    0.35
 -14   0  14    1.08    0.35
  14   0 -14    1.26    0.30
 -13   0  14   -0.14    0.36
  13   0 -14   -0.59    0.40
  12   0 -14   35.48    2.07
 -12   0  14   34.93    2.13
  11   0 -14    0.74    0.44
 -11   0  14   -0.20    0.52
 -10   0  14  134.56    7.31
  -9   0  14   -0.13    0.51
  -8   0  14   32.55    1.95
  -7   0  14    0.10    0.49
  -6   0  14    5.54    0.66
  -5   0  14    0.68    0.50
   2   0  14   70.21    5.07
  -2   0 -14   75.56    5.73
  -2   0 -14   72.98    4.03
  -3   0 -14   -0.37    0.99
   3   0  14   -0.22    1.06
  -3   0 -14   -0.36    0.30
   4   0  14    7.75    0.74
  -4   0 -14    5.06    1.32
  -4   0 -14    7.32    0.62
  -5   0 -14    0.68    0.34
   6   0  14    0.82    0.40
  -6   0 -14    0.37    0.34
  -7   0 -14   -0.08    0.32
   7   0  14    0.04    0.38
   8   0  14    4.41    0.51
  -8   0 -14    4.09    0.56
  -9   0 -14    0.62    0.43
   9   0  14    0.15    0.34
 -10   0 -14    8.13    0.64
  10   0  14    7.54    0.58
 -16   1  14    8.99    0.75
  16   1 -14    7.31    0.48
  15  -1 -14    9.46    0.75
 -15  -1  14   10.40    0.84
 -15   1  14    8.52    0.89
  15   1 -14    8.75    0.63
 -15   1  14    9.60    0.81
 -15   1  14    9.03    0.62
 -14  -1  14    9.40    0.81
 -14   1  14   11.23    0.83
  14   1 -14   11.25    0.84
 -14   1  14    9.82    0.92
 -13  -1  14   21.49    1.56
 -13   1  14   22.95    1.80
  13   1 -14   26.23    1.52
 -13   1  14   25.89    1.53
 -12  -1  14    0.18    0.36
 -12   1  14    1.04    0.68
  12   1 -14    0.51    0.42
 -12   1  14   -0.53    0.47
 -11   1  14    0.16    0.49
  11   1 -14    0.23    0.43
  10   1 -14   23.38    1.48
 -10   1  14   22.68    1.55
   9   1 -14   -0.47    0.41
  -9   1  14    0.06    0.34
   8   1 -14   27.95    1.71
  -8   1  14   30.63    1.83
  -7   1  14   66.36    3.82
   7   1 -14   71.77    3.83
  -6   1  14   37.63    2.23
   6   1 -14   37.18    2.14
   5   1 -14    9.57    0.83
  -5   1  14    7.98    0.76
   4   1 -14   39.59    2.28
  -4   1  14   42.58    2.35
  -4   1  14   37.63    2.70
   3   1 -14    2.06    0.34
  -3   1  14    2.13    0.40
  -2   1  14   10.29    0.83
   2   1 -14    9.63    0.83
  -1   1  14    4.32    0.57
   1   1 -14    3.51    0.41
   0   1  14    4.38    1.35
   0   1  14    4.68    0.59
   0   1 -14    4.17    0.53
  -1   1 -14    1.43    0.44
   1   1  14    0.24    1.15
   1   1  14    0.95    0.47
  -1   1 -14    1.61    1.50
   2   1  14    4.75    0.60
  -2   1 -14    4.98    1.74
   2   1  14    6.13    1.44
  -2   1 -14    3.78    0.54
  -3   1 -14    7.98    0.71
   3   1  14    8.95    0.75
  -3   1 -14    6.03    1.80
   3   1  14    5.43    1.47
  -4   1 -14    1.08    0.45
   5   1  14    0.85    0.49
   5   1  14    1.32    0.41
  -5   1 -14    0.86    0.41
  -5   1 -14    1.18    0.45
  -6   1 -14    0.86    0.47
   6   1  14    1.74    0.42
   7   1  14   14.28    1.02
  -7   1 -14   14.20    1.07
  -8  -1 -14    0.17    0.32
  -8   1 -14   -0.67    0.68
   8   1  14    0.76    0.37
  -8   1 -14    0.22    0.29
  -9  -1 -14   -0.48    0.43
  -9   1 -14   -0.28    0.36
   9   1  14    0.41    0.23
  -9   1 -14    0.46    0.43
  10  -1  14    1.33    0.27
 -10  -1 -14    1.52    0.32
 -10   1 -14    1.34    0.43
 -11  -1 -14    2.18    0.28
  11   1  14    1.61    0.35
 -11   1 -14    1.26    0.42
 -15  -2  14    8.96    0.70
  15   2 -14    8.78    0.79
 -15   2  14   10.22    0.86
  15   2 -14    7.97    0.69
 -14   2  14   11.26    1.06
  14   2 -14   11.50    0.73
  14   2 -14   10.41    0.96
 -14   2  14   11.54    1.08
  13   2 -14    0.41    0.38
  13   2 -14    0.85    0.34
 -13   2  14    0.62    0.64
 -13   2  14    0.56    0.67
 -13   2  14    0.51    0.21
 -12   2  14    7.07    0.94
 -12   2  14    7.71    0.92
  12   2 -14    6.70    0.69
 -12   2  14    7.44    0.66
  12   2 -14    7.45    0.61
 -11   2  14    6.28    0.56
  11   2 -14    5.18    0.56
 -11   2  14    5.88    0.86
  11   2 -14    4.55    0.61
 -10   2  14    2.81    0.77
 -10   2  14    2.75    0.48
  10   2 -14    2.81    0.63
  10   2 -14    1.93    0.35
   9   2 -14    2.42    0.47
   9   2 -14    2.38    0.48
  -9   2  14    2.16    0.75
  -9   2  14    1.60    0.48
  -8   2  14   12.27    1.12
   8   2 -14   10.89    0.91
   8   2 -14   10.11    0.94
  -8   2  14   10.39    0.96
   7   2 -14    8.49    0.88
  -7   2  14    9.82    0.76
   7   2 -14    9.28    0.84
  -7   2  14    8.70    0.99
  -7   2  14    7.95    0.97
  -6   2  14    8.53    0.71
   6   2 -14    8.58    0.78
  -6   2  14    8.26    0.94
   6   2 -14    7.06    0.74
  -6   2  14    7.81    0.91
  -5   2  14    6.22    0.62
  -5   2  14    5.07    1.22
   5   2 -14    5.32    0.78
  -5   2  14    6.46    0.71
   5   2 -14    6.01    0.51
  -5   2  14    5.79    1.50
  -5   2  14    6.33    0.70
   4   2 -14   36.27    3.12
  -4   2  14   31.46    3.19
  -4   2  14   41.53    2.97
  -4   2  14   43.98    2.74
   4   2 -14   40.48    2.92
  -4   2  14   47.05    2.44
   4   2 -14   47.72    2.76
   4   2 -14   46.16    2.41
  -4   2  14   43.50    3.32
  -3   2  14   82.53    4.48
   3   2 -14   77.62    5.32
   3   2 -14   84.23    4.91
   3   2 -14   73.90    5.44
  -3   2  14   79.30    5.36
  -3   2  14   82.67    5.61
  -3   2  14   98.26    5.96
  -3   2  14   66.07    5.39
   3   2 -14   90.81    4.48
  -3   2  14   84.35    4.94
  -2   2  14   48.18    2.95
   2   2 -14   47.25    2.92
  -2   2  14   34.89    3.38
   2   2 -14   50.38    2.60
   2   2 -14   38.69    3.31
   2   2 -14   40.50    3.55
  -2   2  14   49.63    2.63
  -2   2  14   39.58    3.61
   2   2 -14   48.79    4.26
  -2   2  14   48.50    3.87
  -1   2  14   27.95    2.99
  -1   2  14   30.02    2.02
  -1   2  14   29.78    1.84
   1   2 -14   25.72    2.34
   1   2 -14   27.29    2.83
   1   2 -14   32.80    3.45
   1   2 -14   34.88    1.82
   1   2 -14   34.52    2.09
  -1   2  14   23.69    2.62
  -1   2  14   30.19    2.94
   0   2 -14   -1.50    1.43
   0   2  14    0.08    0.53
   0   2 -14    0.66    0.55
   0   2  14   -1.07    1.14
   0   2  14   -0.18    0.39
   0   2 -14   -0.01    0.37
   0   2 -14   -0.46    1.22
   0   2  14    1.35    1.26
  -1   2 -14    8.17    1.65
   1   2  14   10.10    0.86
  -1   2 -14    8.87    0.71
  -1   2 -14    9.50    0.87
   1   2  14    9.01    0.88
   1   2  14    8.20    1.44
  -2   2 -14    1.90    0.34
  -2   2 -14    1.58    0.45
  -2   2 -14    1.01    1.58
   2   2  14    1.79    0.46
   2   2  14   -0.18    0.86
   2   2  14    1.89    0.57
  -3   2 -14   11.14    1.13
   3   2  14   10.94    1.00
  -3   2 -14   11.34    0.81
   4   2  14   52.46    2.82
   4   2  14   49.26    3.51
  -4   2 -14   51.30    3.45
   4   2  14   49.18    3.12
  -4   2 -14   49.00    2.80
  -4   2 -14   51.40    3.18
  -5   2 -14   29.79    2.22
   5   2  14   29.21    2.25
   5   2  14   32.93    1.84
  -5   2 -14   34.21    2.15
  -5   2 -14   31.96    1.86
   5   2  14   32.19    2.06
   6   2  14    4.52    0.66
  -6   2 -14    4.54    0.50
   6   2  14    4.85    0.48
  -6   2 -14    5.66    0.64
  -6   2 -14    4.44    0.73
   7   2  14    0.90    0.32
  -7   2 -14    1.24    0.34
   7   2  14    1.11    0.52
  -8   2 -14    0.04    0.61
   8   2  14   -0.22    0.47
  -8   2 -14    0.70    0.26
   8   2  14    0.37    0.26
  -9   2 -14   -0.16    0.47
  -9   2 -14    0.41    0.14
   9   2  14    0.30    0.45
  -9   2 -14   -0.60    0.56
  10   2  14    0.43    0.29
 -10   2 -14    1.01    0.45
 -10   2 -14    0.57    0.35
  10   2  14    0.65    0.35
 -15   3  14    1.43    0.25
  15   3 -14    0.76    0.33
  15   3 -14    1.31    0.26
  14   3 -14    1.22    0.44
 -14   3  14    1.14    0.30
 -14   3  14    0.71    0.45
  14   3 -14    0.36    0.53
 -14   3  14    1.21    0.51
  13   3 -14    0.86    0.36
 -13   3  14    0.81    0.51
 -13   3  14    1.01    0.41
 -13   3  14    1.55    0.55
  13   3 -14    0.84    0.45
 -12   3  14    0.23    0.58
  12   3 -14   -0.04    0.13
 -12   3  14    0.12    0.49
  12   3 -14    0.04    0.52
 -12   3  14   -0.30    0.39
  12   3 -14    0.00    0.46
 -11   3  14   -0.61    0.42
 -11   3  14    0.29    0.67
  11   3 -14    0.01    0.46
  11   3 -14    0.48    0.22
 -11   3  14    1.79    0.60
  11   3 -14    0.56    0.54
  10   3 -14    1.21    0.28
 -10   3  14    1.16    0.52
  10   3 -14    1.70    0.70
 -10   3  14    1.86    0.50
 -10   3  14    1.33    0.47
  10   3 -14    1.08    0.43
  -9   3  14    9.67    0.99
   9   3 -14   10.07    0.73
  -9   3  14    8.66    0.90
  -9   3  14   10.72    1.07
   9   3 -14    8.53    0.90
   9   3 -14    9.18    1.05
  -9   3  14   10.12    0.66
  -8   3  14   31.29    2.09
  -8   3  14   30.76    1.98
   8   3 -14   30.80    1.72
  -8   3  14   28.53    1.69
  -8   3  14   30.00    2.30
   8   3 -14   29.36    2.02
   8   3 -14   29.89    2.17
   7   3 -14   11.98    1.07
  -7   3  14   10.79    0.84
   7   3 -14    9.77    0.91
   7   3 -14   12.20    0.80
  -7   3  14   12.79    1.14
   7   3 -14   10.69    1.05
  -7   3  14   10.79    0.98
  -7   3  14    9.94    1.06
  -7   3  14    8.80    1.01
  -6   3  14    5.64    0.69
   6   3 -14    4.93    0.48
   6   3 -14    4.88    0.58
   6   3 -14    4.35    0.69
  -6   3  14    5.39    0.76
  -6   3  14    5.63    0.53
  -6   3  14    5.91    0.74
   6   3 -14    5.28    0.69
   5   3 -14   -0.24    0.37
  -5   3  14    0.69    0.43
   5   3 -14    0.48    0.33
  -5   3  14    1.03    0.57
  -5   3  14    0.43    1.51
  -5   3  14    0.47    0.40
  -5   3  14    0.28    0.31
   5   3 -14    0.39    0.61
   5   3 -14    0.86    0.53
  -4   3  14   -0.61    1.30
   4   3 -14    0.99    0.44
   4   3 -14    0.37    1.71
  -4   3  14    0.86    0.41
  -4   3  14    0.69    0.55
   4   3 -14    1.36    0.54
   4   3 -14    1.16    0.34
  -4   3  14    1.39    0.42
   4   3 -14    1.33    0.40
  -4   3  14    1.48    0.45
  -3   3  14    3.94    0.48
   3   3 -14    4.13    0.64
   3   3 -14    3.23    0.40
   3   3 -14    3.04    0.59
  -3   3  14    2.95    1.43
  -3   3  14    2.65    0.48
  -3   3  14    2.68    0.60
  -3   3  14    2.83    0.63
   3   3 -14    2.60    1.73
   3   3 -14    3.61    0.53
  -2   3  14    2.09    0.57
   2   3 -14    1.41    0.56
   2   3 -14    1.89    0.55
  -2   3  14    1.70    0.58
  -2   3  14    1.75    0.52
   2   3 -14    1.95    0.37
  -2   3  14    1.39    1.02
   2   3 -14    2.07    1.75
   2   3 -14    1.31    0.40
  -2   3  14    1.47    0.36
  -1   3  14    5.02    0.58
   1   3 -14    6.05    0.50
   1   3 -14    5.03    0.66
   1   3 -14    4.84    0.70
  -1   3  14    5.93    0.62
   1   3 -14    4.15    1.85
  -1   3  14    6.23    1.31
  -1   3  14    5.20    0.50
   0   3 -14   -0.04    0.35
   0   3  14   -0.62    0.50
   0   3 -14    0.68    0.31
   0   3 -14    0.44    0.39
   0   3  14   -0.60    0.89
   0   3  14    0.18    0.50
   0   3 -14    1.38    1.75
   1   3  14    8.20    0.73
   1   3  14    6.51    0.76
   1   3  14    5.90    0.91
  -1   3 -14    7.97    0.89
  -1   3 -14    7.32    0.76
  -1   3 -14    6.64    0.81
  -1   3 -14    8.57    0.66
   1   3  14    7.53    0.59
   2   3  14   48.49    3.05
   2   3  14   49.43    2.67
   2   3  14   49.77    3.39
  -2   3 -14   49.80    2.69
   2   3  14   43.01    2.80
  -2   3 -14   49.78    3.42
  -2   3 -14   46.78    2.85
  -2   3 -14   52.01    3.06
   3   3  14   -0.03    0.62
   3   3  14    0.70    0.36
   3   3  14    0.19    0.25
  -3   3 -14    0.40    0.52
  -3   3 -14    0.31    0.33
  -3   3 -14    0.75    0.51
   3   3  14    0.02    0.48
  -3   3 -14   -0.13    0.54
  -4   3 -14    0.56    0.61
   4   3  14    0.78    0.38
  -4   3 -14    0.66    0.54
  -4   3 -14    0.68    0.26
   4   3  14    0.63    0.62
  -4   3 -14    0.41    0.50
   4   3  14    1.70    0.53
   4   3  14    0.52    0.24
  -4   3 -14    1.56    0.56
   5   3  14    0.36    0.49
   5   3  14    0.77    0.22
  -5   3 -14   -0.01    0.54
   5   3  14    0.87    0.44
  -5   3 -14    1.03    0.70
  -5   3 -14    0.67    0.22
  -5   3 -14    0.54    0.53
  -5   3 -14    1.01    0.69
   6   3  14    1.60    0.52
  -6   3 -14    1.69    0.51
  -6   3 -14    1.78    0.57
   6   3  14    1.56    0.20
   6   3  14    1.40    0.53
  -6   3 -14    0.04    0.69
  -7   3 -14   -0.50    0.53
  -7   3 -14   -0.26    0.55
  -7   3 -14   -0.53    0.51
   7   3  14    0.26    0.47
   7   3  14   -0.02    0.11
  -7   3 -14   -0.35    0.68
   7   3  14   -0.76    0.51
  -8   3 -14   12.80    1.16
   8   3  14   15.67    1.12
   8   3  14   14.58    1.16
  -8   3 -14   14.74    1.12
  -9   3 -14   10.36    0.77
  -9   3 -14    9.51    0.74
  -9   3 -14    8.41    0.90
   9   3  14    6.76    0.79
 -14   4  14    1.33    0.33
  14   4 -14    0.88    0.19
 -13   4  14   -0.38    0.32
 -13   4  14   -0.37    0.39
  13   4 -14    0.18    0.39
  13   4 -14    0.20    0.22
  13   4 -14   -0.06    0.30
 -12   4  14    4.10    0.65
  12   4 -14    6.00    0.54
 -12   4  14    5.48    0.51
  12   4 -14    6.18    0.65
 -12   4  14    6.34    0.70
  12   4 -14    7.59    0.73
  11   4 -14    2.34    0.71
  11   4 -14    3.10    0.59
 -11   4  14    2.99    0.46
  11   4 -14    4.92    0.55
 -11   4  14    3.42    0.52
 -11   4  14    4.97    0.67
 -10   4  14    0.00    0.30
 -10   4  14   -0.11    0.56
  10   4 -14   -0.18    0.32
  10   4 -14   -0.93    0.44
  10   4 -14   -0.89    0.51
 -10   4  14   -0.39    0.68
   9   4 -14    0.95    0.50
  -9   4  14   -0.27    0.65
   9   4 -14    0.47    0.49
  -9   4  14   -0.06    0.45
   9   4 -14    0.48    0.53
  -9   4  14    1.14    0.44
   8   4 -14    1.35    0.42
  -8   4  14    1.78    0.46
  -8   4  14    1.95    0.54
   8   4 -14    1.81    0.73
  -8   4  14    0.98    0.50
   8   4 -14    1.83    0.53
   7   4 -14    3.24    0.62
   7   4 -14    2.34    0.59
  -7   4  14    3.23    0.57
  -7   4  14    2.22    0.74
   7   4 -14    2.81    0.59
  -7   4  14    3.49    0.64
   6   4 -14   -0.54    0.50
  -6   4  14    0.31    0.49
  -6   4  14    0.44    0.61
   6   4 -14    0.70    0.50
  -6   4  14    0.03    0.44
   6   4 -14    0.09    0.49
  -6   4  14    0.20    0.54
  -5   4  14    0.16    0.60
   5   4 -14    0.25    0.65
  -5   4  14    0.30    0.54
  -5   4  14    0.10    0.47
   5   4 -14   -0.27    0.47
   5   4 -14    0.26    0.67
   5   4 -14   -0.10    0.50
  -5   4  14    0.42    0.69
   4   4 -14    3.49    0.68
   4   4 -14    3.25    0.59
  -4   4  14    3.32    0.57
  -4   4  14    4.42    0.69
   4   4 -14    3.64    0.59
  -4   4  14    2.72    0.58
   4   4 -14    2.30    0.72
  -4   4  14    3.42    0.61
   3   4 -14    3.29    0.67
   3   4 -14    3.84    0.59
   3   4 -14    1.79    0.68
  -3   4  14    2.72    0.60
  -3   4  14    3.24    0.67
  -3   4  14    3.12    0.58
   3   4 -14    2.73    0.58
  -3   4  14    1.94    0.63
  -2   4  14   19.16    1.61
   2   4 -14   20.45    1.78
   2   4 -14   20.14    1.24
   2   4 -14   17.58    1.52
  -2   4  14   16.41    1.49
  -2   4  14   16.85    1.34
   2   4 -14   17.79    1.26
  -2   4  14   18.12    1.25
  -1   4  14    0.65    0.52
  -1   4  14    1.06    0.76
   1   4 -14    1.10    0.51
   1   4 -14    1.37    0.82
   1   4 -14    0.29    0.55
  -1   4  14    1.14    0.50
  -1   4  14    0.24    0.47
   1   4 -14    0.74    0.50
   0   4  14    5.34    0.56
   0   4  14    4.74    0.73
   0   4 -14    3.21    0.88
   0   4 -14    3.50    0.60
   0   4  14    3.63    0.58
   0   4 -14    4.34    0.52
   1   4  14    3.62    0.57
  -1   4 -14    3.86    0.91
   1   4  14    3.64    0.69
   1   4  14    4.24    0.63
  -1   4 -14    3.86    0.59
  -1   4 -14    3.20    0.62
  -2   4 -14    0.36    0.53
   2   4  14    0.07    0.44
   2   4  14   -0.76    0.67
  -2   4 -14    0.77    0.52
  -2   4 -14    0.50    0.34
   2   4  14   -0.02    0.51
  -3   4 -14    0.40    0.33
   3   4  14    0.28    0.48
   3   4  14    0.55    0.33
  -3   4 -14    0.83    0.53
   3   4  14    0.82    0.50
  -3   4 -14    0.34    0.74
  -4   4 -14    1.21    0.56
   4   4  14    1.41    0.53
   4   4  14    0.95    0.45
  -4   4 -14    1.44    0.57
   4   4  14    0.85    0.67
   4   4  14    1.39    0.38
  -5   4 -14   31.85    2.02
   5   4  14   30.75    2.28
   5   4  14   32.88    2.03
   5   4  14   31.50    1.91
  -5   4 -14   34.41    2.41
   5   4  14   32.45    2.29
  -5   4 -14   29.92    1.99
  -6   4 -14    0.93    0.48
   6   4  14   -0.05    0.36
  -6   4 -14    0.13    0.44
  -6   4 -14    0.89    0.42
   6   4  14   -0.20    0.52
   6   4  14   -0.76    0.37
  -6   4 -14    0.78    0.53
   6   4  14    0.73    0.32
  -7   4 -14   10.73    0.93
   7   4  14    8.80    0.80
  -7   4 -14    8.29    0.86
  -7   4 -14    7.66    0.83
   7   4  14    9.06    0.72
   7   4  14    8.98    0.73
  -7   4 -14    7.60    0.68
   8   4  14    3.20    0.45
  -8   4 -14    3.67    0.44
  -8   4 -14    3.41    0.54
   8   4  14    3.60    0.34
  -9   4 -14    0.14    0.35
  -9   4 -14    0.21    0.28
   9   4  14    0.12    0.26
 -12   5  14    6.78    0.73
  12   5 -14    5.14    0.56
  11   5 -14    1.84    0.37
 -11   5  14    1.73    0.36
  11   5 -14    2.35    0.65
 -11   5  14    1.87    0.52
  10   5 -14    0.58    0.49
 -10   5  14    0.84    0.49
  10   5 -14    0.51    0.17
 -10   5  14    0.50    0.35
  10   5 -14    0.96    0.36
   9   5 -14    1.26    0.51
  -9   5  14    0.33    0.49
   9   5 -14    0.51    0.50
  -9   5  14    0.32    0.70
   9   5 -14    0.21    0.28
   8   5 -14    2.58    0.58
  -8   5  14    2.34    0.54
   8   5 -14    3.32    0.57
   8   5 -14    2.17    0.33
  -8   5  14    1.72    0.73
  -7   5  14   30.83    1.79
   7   5 -14   25.50    1.71
   7   5 -14   29.47    1.77
   7   5 -14   26.25    2.15
  -7   5  14   29.01    2.08
   6   5 -14   10.79    0.87
   6   5 -14    8.24    1.08
   6   5 -14   11.31    0.85
  -6   5  14   11.13    0.88
  -6   5  14   10.97    0.69
  -6   5  14   11.05    1.10
   5   5 -14    0.27    0.69
   5   5 -14    1.10    0.45
   5   5 -14   -0.04    0.48
  -5   5  14    0.63    0.50
  -5   5  14    0.07    0.23
  -5   5  14    0.24    0.64
   5   5 -14   -0.43    0.32
  -5   5  14    0.64    0.49
   4   5 -14    3.02    0.61
  -4   5  14    3.72    0.68
  -4   5  14    4.26    0.62
  -4   5  14    2.75    0.55
   4   5 -14    3.42    0.56
   4   5 -14    4.54    0.68
  -4   5  14    3.17    0.37
   4   5 -14    2.90    0.47
   3   5 -14    0.27    0.33
   3   5 -14    0.47    0.31
  -3   5  14   -0.15    0.29
   3   5 -14   -0.25    0.64
  -3   5  14   -0.30    0.60
   3   5 -14   -1.81    0.77
  -3   5  14    0.53    0.77
  -3   5  14    0.19    0.47
  -2   5  14    6.90    0.85
   2   5 -14    6.42    0.88
   2   5 -14    9.28    1.13
  -2   5  14    8.28    1.07
   2   5 -14    6.66    0.70
  -2   5  14    8.27    0.67
  -2   5  14    7.78    0.64
   2   5 -14    7.57    0.69
   1   5 -14    2.08    0.67
  -1   5  14    0.63    0.82
   1   5 -14    1.68    0.39
   1   5 -14    1.31    0.63
  -1   5  14    1.82    0.43
   1   5 -14    1.68    0.51
  -1   5  14    1.82    0.52
  -1   5  14    1.67    0.36
   0   5 -14    2.10    0.90
   0   5  14    2.36    0.41
   0   5 -14    2.31    0.47
   0   5 -14    2.27    0.52
   0   5  14    0.67    0.48
   0   5  14    1.68    0.62
   0   5  14    1.95    0.30
   0   5 -14    2.38    0.37
  -1   5 -14    4.62    0.96
   1   5  14    3.70    0.42
   1   5  14    5.06    0.73
   1   5  14    4.01    0.59
  -1   5 -14    3.64    0.57
   2   5  14    0.63    0.24
   2   5  14    0.20    0.52
  -2   5 -14    0.95    0.48
   2   5  14    0.39    0.47
  -2   5 -14    0.16    0.77
  -2   5 -14    0.48    0.25
   3   5  14   -0.03    0.67
   3   5  14   -0.17    0.20
  -3   5 -14    0.33    0.35
  -3   5 -14   -0.08    0.52
   3   5  14    0.88    0.34
  -4   5 -14    0.15    0.74
   4   5  14    0.63    0.47
   4   5  14   -0.06    0.19
  -4   5 -14    0.01    0.46
   4   5  14    0.45    0.31
  -5   5 -14    7.00    0.94
   5   5  14    8.99    0.80
  -5   5 -14    7.12    0.69
   5   5  14    7.98    0.87
   6   5  14    0.77    0.37
  -6   5 -14    1.31    0.47
  -6   5 -14    1.01    0.45
   6   5  14    0.59    0.33
   6   5  14    0.72    0.29
  -7   5 -14   -0.34    0.33
   7   5  14   -0.34    0.25
  -7   5 -14   -0.05    0.28
   7   5  14   -0.26    0.26
  -8   5 -14    0.94    0.25
  10   6 -14    9.08    0.60
 -10   6  14    7.31    0.74
  10   6 -14    5.81    0.71
  -9   6  14    3.16    0.31
   9   6 -14    2.19    0.52
   9   6 -14    2.95    0.40
  -9   6  14    2.83    0.53
   8   6 -14    2.04    0.39
  -8   6  14    2.24    0.35
   8   6 -14    2.04    0.52
  -8   6  14    2.07    0.51
   7   6 -14    1.51    0.71
   7   6 -14    1.83    0.41
  -7   6  14    2.51    0.37
  -7   6  14    2.82    0.58
   6   6 -14    0.15    0.37
  -6   6  14    0.99    0.34
  -6   6  14    0.41    0.46
   6   6 -14    0.45    0.51
   5   6 -14    0.10    0.36
  -5   6  14   -0.13    0.36
  -5   6  14    0.30    0.65
   5   6 -14   -0.19    0.48
  -4   6  14    0.33    0.43
   4   6 -14   -0.13    0.37
   4   6 -14    0.12    0.49
  -4   6  14    0.24    0.37
  -4   6  14   -0.27    0.41
  -3   6  14    0.00    0.66
   3   6 -14    0.69    0.48
   3   6 -14    0.25    0.38
   3   6 -14    0.80    0.50
  -3   6  14    0.29    0.42
  -3   6  14    0.58    0.38
   2   6 -14    0.58    0.53
  -2   6  14    0.41    0.40
  -2   6  14    0.77    0.38
  -2   6  14    0.06    0.51
   2   6 -14    0.40    0.36
   2   6 -14    0.13    0.63
  -1   6  14    0.52    0.54
   1   6 -14    0.47    0.62
   1   6 -14    0.56    0.57
   1   6 -14    0.04    0.37
  -1   6  14    0.05    0.33
  -1   6  14    0.45    0.35
   0   6 -14    1.66    0.59
   0   6 -14    1.83    0.65
   0   6  14    2.12    0.48
   0   6  14    1.44    0.38
   0   6  14    1.82    0.79
   0   6 -14    2.13    0.41
   1   6  14    5.97    0.49
   1   6  14    5.67    0.72
  -1   6 -14    3.92    0.47
  -1   6 -14    4.54    0.72
  -1   6 -14    2.78    0.59
   2   6  14    7.23    0.79
  -2   6 -14    5.74    0.54
  -2   6 -14    6.24    0.79
   2   6  14    6.42    0.55
  -3   6 -14    5.89    0.72
  -3   6 -14    4.51    0.40
   3   6  14    4.91    0.46
   3   6  14    3.69    0.78
   4   6  14   12.22    1.01
  -4   6 -14   10.96    0.74
  -4   6 -14    8.72    0.98
  -5   6 -14    3.61    0.30
  -5   6 -14    1.24    0.44
   5   6  14    1.94    0.53
   5   6  14    2.56    0.25
   6   6  14    1.90    0.22
   7   7 -14   -0.23    0.40
  -7   7  14    0.25    0.33
  -6   7  14   11.59    0.92
   6   7 -14    8.83    0.89
  -5   7  14    1.15    0.38
   5   7 -14    0.16    0.44
   4   7 -14    3.06    0.53
  -4   7  14    3.94    0.49
   3   7 -14    0.07    0.37
  -3   7  14    0.28    0.34
  -3   7  14    0.11    0.36
  -2   7  14    8.87    0.75
   2   7 -14    7.45    0.76
  -2   7  14    7.58    0.87
   2   7 -14    9.62    0.82
  -1   7  14    0.87    0.48
   1   7 -14    1.10    0.57
   1   7 -14    1.42    0.39
  -1   7  14    1.31    0.30
   0   7  14    8.30    0.72
   0   7 -14    9.77    0.78
   1   7  14    4.33    0.60
  -1   7 -14    4.09    0.58
  -2   7 -14    1.37    0.43
   2   7  14    1.61    0.44
 -15   0  15   -0.01    0.23
  15   0 -15   -0.54    0.31
  14   0 -15   -0.02    0.27
 -14   0  15   -0.22    0.29
  13   0 -15    0.95    0.43
 -13   0  15    1.48    0.37
 -12   0  15   -0.42    0.49
  12   0 -15   -0.08    0.29
 -11   0  15   16.06    1.24
  11   0 -15   16.81    1.08
  10   0 -15    0.87    0.45
 -10   0  15    0.71    0.52
  -9   0  15    1.16    0.40
   9   0 -15    1.26    0.34
  -8   0  15   -0.57    0.50
   8   0 -15   -0.73    0.29
  -7   0  15   21.97    1.41
  -6   0  15   -0.20    0.36
  -5   0  15   22.88    1.56
  -4   0  15   -0.28    0.49
  -3   0  15    0.93    0.52
  -2   0  15    0.44    0.50
   1   0 -15   10.32    0.85
  -1   0  15    9.57    0.84
   0   0 -15   -0.69    0.42
   0   0  15   -0.06    0.48
  -1   0 -15    0.89    1.52
  -1   0 -15    2.86    0.41
   1   0  15    3.16    0.46
   2   0  15   -0.25    0.47
  -2   0 -15   -0.07    0.31
  -3   0 -15   14.42    1.15
   3   0  15   15.80    1.20
  -4   0 -15    0.80    0.46
   4   0  15   -0.24    0.33
   5   0  15    5.60    0.49
  -5   0 -15    4.34    0.60
  -6   0 -15    0.11    0.45
   6   0  15   -0.16    0.38
  -7   0 -15    7.46    0.69
   7   0  15    8.16    0.75
  -8   0 -15    0.16    0.30
   8   0  15   -0.06    0.24
   9   0  15    1.63    0.27
  -9   0 -15    1.28    0.40
 -15  -1  15   -0.39    0.24
 -15   1  15   -0.24    0.33
  15   1 -15   -0.05    0.24
 -15   1  15    0.00    0.32
 -14  -1  15   10.61    0.82
  14  -1 -15    9.53    0.81
 -14   1  15   11.90    0.76
  14   1 -15   12.72    0.82
 -13  -1  15    2.28    0.40
 -13   1  15    2.48    0.50
 -13   1  15    1.66    0.43
  13   1 -15    2.03    0.43
 -12  -1  15    2.55    0.43
 -12   1  15    2.45    0.55
  12   1 -15    2.46    0.37
 -12   1  15    3.25    0.51
 -11  -1  15   13.18    1.14
 -11   1  15   14.35    1.00
  11   1 -15   14.53    0.97
 -11   1  15   14.57    1.19
 -10   1  15    0.26    0.51
  10   1 -15    0.43    0.45
   9   1 -15    0.34    0.32
  -9   1  15   -0.24    0.51
   8   1 -15    0.10    0.44
  -8   1  15    0.24    0.50
   7   1 -15   27.80    1.65
  -7   1  15   27.55    1.76
  -6   1  15    9.25    0.84
   6   1 -15   11.04    0.93
  -5   1  15   11.03    1.04
  -5   1  15   10.35    1.11
   5   1 -15   12.89    0.86
  -4   1  15    0.04    0.35
   4   1 -15   -0.10    0.28
  -3   1  15   11.77    0.90
   3   1 -15   11.17    0.94
   2   1 -15   17.52    1.20
  -2   1  15   17.03    1.27
  -1   1  15   24.30    1.56
  -1   1  15   21.28    2.45
   1   1 -15   23.58    1.43
   0   1  15    3.29    0.46
   0   1 -15    3.55    0.52
   0   1  15    3.38    1.10
   0   1 -15    3.21    1.70
  -1   1 -15    1.74    0.37
  -1   1 -15    1.48    1.64
   1   1  15    2.69    1.33
   1   1  15    2.46    0.52
   2   1  15    3.44    0.45
  -2   1 -15    3.17    0.42
   3   1  15    9.30    0.80
  -3   1 -15    9.25    0.77
  -4   1 -15   10.51    0.94
   5   1  15    2.54    0.45
  -5   1 -15    3.22    0.62
  -5   1 -15    2.99    0.51
  -6   1 -15    3.04    0.49
   6   1  15    2.51    0.35
  -7  -1 -15   -0.17    0.44
   7   1  15    1.15    0.28
  -7   1 -15    1.54    0.32
  -8  -1 -15    0.43    0.44
  -8   1 -15    0.31    0.25
  -8   1 -15    0.07    0.41
   8   1  15    0.29    0.30
   9  -1  15    0.40    0.23
  -9  -1 -15    0.33    0.28
  -9   1 -15   -0.11    0.38
 -10  -1 -15    1.65    0.27
 -10   1 -15    1.85    0.44
 -15   2  15    0.51    0.28
  15   2 -15    0.37    0.30
 -14   2  15    6.45    0.73
  14   2 -15    8.44    0.79
  14   2 -15    8.99    0.52
  14   2 -15    8.41    0.80
  13   2 -15   -0.10    0.35
  13   2 -15    0.43    0.26
 -13   2  15    0.73    0.48
 -13   2  15    1.10    0.60
 -12   2  15   -0.09    0.30
 -12   2  15    0.33    0.45
 -12   2  15   -0.39    0.45
  12   2 -15   -0.24    0.52
  12   2 -15    0.54    0.24
  11   2 -15    0.30    0.38
  11   2 -15    0.19    0.54
 -11   2  15   -0.36    0.46
 -11   2  15   -0.07    0.35
 -11   2  15    0.34    0.48
  10   2 -15    5.55    0.62
  10   2 -15    4.50    0.53
 -10   2  15    5.08    0.53
 -10   2  15    6.05    0.85
 -10   2  15    4.93    0.84
   9   2 -15   29.14    1.69
  -9   2  15   27.92    1.68
   9   2 -15   27.65    1.92
  -9   2  15   27.15    2.17
  -9   2  15   26.93    1.91
  -8   2  15   20.19    1.56
  -8   2  15   20.96    1.67
   8   2 -15   22.11    1.36
  -8   2  15   23.08    1.39
   8   2 -15   19.41    1.58
   7   2 -15   29.97    1.73
   7   2 -15   26.11    1.89
  -7   2  15   30.97    1.98
  -7   2  15   30.37    2.19
  -7   2  15   28.85    1.76
   7   2 -15   27.30    2.05
   6   2 -15    2.15    0.43
   6   2 -15    1.40    0.59
  -6   2  15    1.09    0.59
   6   2 -15    1.21    0.47
  -6   2  15    0.73    0.67
  -6   2  15    0.96    0.34
  -5   2  15    3.33    0.72
  -5   2  15    2.50    0.51
   5   2 -15    3.42    0.47
  -5   2  15    2.35    0.49
  -5   2  15    1.77    1.02
   5   2 -15    2.65    0.50
   5   2 -15    3.32    0.64
   4   2 -15   -0.48    1.11
   4   2 -15    0.45    0.40
   4   2 -15   -0.37    0.49
  -4   2  15    0.14    0.43
  -4   2  15    0.05    0.83
   4   2 -15   -0.29    0.38
  -4   2  15    0.56    0.45
  -4   2  15    0.49    0.35
   3   2 -15    7.41    0.61
   3   2 -15    1.37    1.73
  -3   2  15    6.37    0.72
  -3   2  15    6.48    0.65
  -3   2  15    5.02    1.53
   3   2 -15    6.39    0.69
   2   2 -15   11.69    0.80
   2   2 -15    5.76    1.95
  -2   2  15    7.79    1.69
   2   2 -15   10.83    0.97
  -2   2  15   11.56    1.05
  -2   2  15   11.35    0.95
   1   2 -15   11.73    0.98
  -1   2  15   14.23    1.03
   1   2 -15   15.10    1.22
  -1   2  15   12.55    1.23
  -1   2  15    8.18    1.75
   1   2 -15   13.04    2.00
   0   2  15    8.94    0.82
   0   2 -15    7.42    0.68
   0   2  15    8.51    0.71
   0   2 -15    8.93    0.85
   1   2  15    1.09    0.45
  -1   2 -15    1.93    0.61
   1   2  15    0.52    0.55
  -1   2 -15    1.84    0.44
   2   2  15    5.99    0.67
  -2   2 -15    6.25    0.60
  -2   2 -15    5.89    0.77
  -3   2 -15    0.56    0.40
   3   2  15    0.68    0.52
  -3   2 -15    0.74    0.41
  -3   2 -15    0.56    0.66
   3   2  15    0.30    0.60
   3   2  15    0.62    0.34
   4   2  15    1.25    0.58
  -4   2 -15    1.15    0.67
   4   2  15    0.35    0.51
  -4   2 -15    1.59    0.40
   4   2  15    0.96    0.35
  -4   2 -15    1.26    0.44
   5   2  15    1.20    0.34
  -5   2 -15    0.69    0.26
  -5   2 -15    1.32    0.62
   5   2  15    1.04    0.40
  -5   2 -15    0.36    0.58
   5   2  15    0.00    0.49
  -6   2 -15    0.28    0.32
   6   2  15    0.44    0.36
   6   2  15    0.38    0.28
  -6   2 -15   -0.08    0.50
   7   2  15   12.18    0.79
   7   2  15   11.28    0.94
  -7   2 -15   12.18    1.10
  -7   2 -15   12.24    0.78
   8   2  15    0.01    0.32
  -8   2 -15   -0.28    0.44
  -8   2 -15    0.18    0.38
  -9   2 -15    8.80    0.99
  -9   2 -15   11.93    0.88
   9   2  15   14.46    0.96
  10   2  15    0.72    0.28
 -14   3  15    2.00    0.33
  14   3 -15    1.80    0.29
 -14   3  15    2.29    0.42
  14   3 -15    2.07    0.40
  13   3 -15   -0.17    0.38
 -13   3  15    0.04    0.60
 -13   3  15    0.51    0.51
 -13   3  15    0.14    0.43
  13   3 -15    0.08    0.43
 -12   3  15    0.58    0.66
  12   3 -15   -0.47    0.34
  12   3 -15    1.32    0.46
 -12   3  15    1.50    0.42
 -12   3  15    0.47    0.37
 -11   3  15    2.83    0.50
  11   3 -15    3.39    0.30
  11   3 -15    3.21    0.72
  11   3 -15    3.12    0.47
 -11   3  15    2.87    0.58
 -11   3  15    2.47    0.64
  10   3 -15   -0.35    0.53
 -10   3  15    0.54    0.65
  10   3 -15    0.42    0.25
 -10   3  15    0.68    0.61
 -10   3  15    0.88    0.59
  10   3 -15    0.26    0.46
  -9   3  15    0.74    0.44
  -9   3  15    1.41    0.70
   9   3 -15    0.78    0.31
   9   3 -15    0.57    0.65
   9   3 -15    1.05    0.42
  -9   3  15    1.31    0.63
   8   3 -15    6.62    0.60
  -8   3  15    7.40    0.86
   8   3 -15    7.99    0.82
  -8   3  15    6.86    0.50
  -8   3  15    7.41    0.71
  -8   3  15    7.10    0.80
   8   3 -15    6.80    0.70
  -7   3  15    3.97    0.68
   7   3 -15    3.65    0.40
   7   3 -15    3.71    0.76
   7   3 -15    4.08    0.66
  -7   3  15    3.76    0.35
  -7   3  15    3.66    0.66
  -7   3  15    3.38    0.71
  -7   3  15    3.76    0.74
   6   3 -15    6.49    0.89
   6   3 -15    7.58    0.82
  -6   3  15    7.15    0.66
   6   3 -15    8.04    0.65
  -6   3  15    7.39    0.89
  -6   3  15    6.84    0.80
  -6   3  15    7.74    0.86
   6   3 -15    7.53    0.79
  -5   3  15   14.32    0.93
   5   3 -15   15.77    0.95
  -5   3  15   12.97    1.21
  -5   3  15   15.58    1.29
   5   3 -15   13.77    1.20
   5   3 -15   14.70    1.08
  -5   3  15   13.48    1.24
   5   3 -15   13.25    1.23
   4   3 -15   -0.37    0.37
   4   3 -15    0.81    0.56
  -4   3  15    0.02    0.30
  -4   3  15    0.30    0.55
  -4   3  15    0.41    0.53
   4   3 -15    0.40    0.41
   4   3 -15    0.45    0.30
  -4   3  15    1.00    0.57
  -3   3  15    0.26    0.49
   3   3 -15    0.30    0.37
   3   3 -15    1.04    0.56
  -3   3  15   -0.21    0.53
   3   3 -15    1.11    0.41
  -3   3  15    0.77    0.32
   3   3 -15    0.76    0.32
  -3   3  15   -0.01    0.55
  -2   3  15    1.12    0.32
  -2   3  15    1.33    0.60
   2   3 -15    0.44    0.39
  -2   3  15    0.96    0.56
   2   3 -15    0.65    0.38
   2   3 -15    0.21    0.56
   1   3 -15   16.23    1.00
  -1   3  15   15.16    1.14
  -1   3  15   14.81    1.30
   1   3 -15   14.10    1.24
   1   3 -15   16.11    1.18
   0   3  15    7.44    0.70
   0   3  15    6.91    0.76
   0   3  15    6.03    0.54
   0   3 -15    5.94    0.78
   0   3 -15    6.84    0.61
   0   3 -15    7.89    0.99
   0   3  15    6.31    0.93
   0   3 -15    6.84    0.65
  -1   3 -15   64.34    3.85
   1   3  15   64.12    3.84
  -1   3 -15   62.12    3.60
  -1   3 -15   64.65    4.20
   1   3  15   63.86    3.40
  -1   3 -15   62.32    3.41
   1   3  15   58.66    3.56
   1   3  15   61.99    4.35
  -2   3 -15   29.58    1.84
   2   3  15   27.95    1.58
  -2   3 -15   24.66    1.72
   2   3  15   26.12    1.81
   2   3  15   25.96    1.82
   2   3  15   28.63    2.10
  -2   3 -15   29.08    2.20
  -2   3 -15   29.46    1.59
   3   3  15   63.52    4.25
  -3   3 -15   59.97    4.08
  -3   3 -15   59.84    3.47
  -3   3 -15   60.09    3.32
   3   3  15   62.38    3.33
  -3   3 -15   62.76    3.76
   3   3  15   61.83    3.76
  -4   3 -15    2.28    0.22
   4   3  15    2.70    0.25
  -4   3 -15    2.49    0.61
  -4   3 -15    3.38    0.49
  -4   3 -15    3.14    0.76
   4   3  15    2.97    0.68
   4   3  15    2.41    0.44
   4   3  15    3.04    0.58
   5   3  15   10.20    0.78
   5   3  15    8.19    0.52
  -5   3 -15    9.48    0.82
   5   3  15    7.61    0.82
  -5   3 -15    7.24    0.92
  -5   3 -15    7.65    0.95
   5   3  15    8.19    0.89
   6   3  15    1.53    0.40
  -6   3 -15    2.43    0.56
  -6   3 -15    2.13    0.51
  -6   3 -15    1.97    0.63
  -6   3 -15    2.22    0.60
   6   3  15    1.29    0.38
  -7   3 -15    0.37    0.35
  -7   3 -15    0.78    0.37
   7   3  15    0.28    0.34
  -7   3 -15    0.51    0.43
   7   3  15    0.55    0.32
  -8   3 -15    0.91    0.39
   8   3  15    0.62    0.31
   8   3  15    0.78    0.29
  -8   3 -15    1.21    0.35
  -8   3 -15    0.99    0.42
   9   3  15    1.65    0.24
   9   3  15   -0.18    0.27
 -13   4  15   11.44    1.03
  13   4 -15   11.91    0.79
 -13   4  15   15.02    0.86
  12   4 -15    2.62    0.38
  12   4 -15    1.74    0.49
 -12   4  15    3.17    0.44
 -12   4  15    3.45    0.55
  12   4 -15    3.28    0.67
 -11   4  15   34.11    2.34
  11   4 -15   28.72    1.90
 -11   4  15   33.40    1.88
 -11   4  15   28.18    1.89
  11   4 -15   35.08    2.20
 -10   4  15   -0.43    0.53
  10   4 -15   -0.51    0.51
  10   4 -15   -0.49    0.64
 -10   4  15   -0.76    0.45
 -10   4  15   -0.50    0.34
  10   4 -15    0.09    0.29
  -9   4  15   -0.57    0.40
   9   4 -15    1.13    0.46
  -9   4  15    0.30    0.39
  -9   4  15    0.35    0.48
   9   4 -15   -0.61    0.46
   9   4 -15    0.95    0.39
   8   4 -15   13.10    1.21
  -8   4  15   15.03    1.22
   8   4 -15   14.25    1.03
  -8   4  15   12.03    1.39
  -8   4  15   13.34    1.06
   8   4 -15   13.45    1.08
   7   4 -15   -0.19    0.47
  -7   4  15   -0.04    0.39
  -7   4  15   -0.65    0.45
   7   4 -15    0.49    0.50
  -7   4  15   -0.17    0.45
   7   4 -15   -0.47    0.37
  -6   4  15    2.10    0.53
   6   4 -15    2.74    0.53
  -6   4  15    4.04    0.64
  -6   4  15    3.20    0.68
   6   4 -15    2.88    0.58
  -6   4  15    2.30    0.42
   6   4 -15    2.05    0.72
   6   4 -15    2.29    0.59
  -5   4  15   10.91    1.06
  -5   4  15   13.88    1.01
   5   4 -15   13.31    1.01
   5   4 -15   13.62    1.09
   5   4 -15   12.39    1.22
  -5   4  15   12.32    1.14
   5   4 -15   12.06    1.14
  -5   4  15   14.54    1.44
  -4   4  15    0.99    0.59
  -4   4  15    0.91    0.49
  -4   4  15    0.36    0.55
   4   4 -15    0.92    0.55
   4   4 -15    0.14    0.54
  -4   4  15    0.94    0.55
   4   4 -15    0.87    0.51
   4   4 -15    1.30    0.67
  -3   4  15    7.52    0.76
   3   4 -15    8.09    0.88
   3   4 -15    5.64    0.81
  -3   4  15    7.73    0.72
   3   4 -15    7.82    0.75
   3   4 -15    6.17    0.72
  -3   4  15    7.19    1.01
  -3   4  15    4.81    0.77
  -2   4  15    4.18    0.69
  -2   4  15    3.33    0.50
  -2   4  15    3.72    0.57
   2   4 -15    1.98    0.62
  -2   4  15    2.66    0.59
   2   4 -15    3.57    0.49
   2   4 -15    3.22    0.47
   2   4 -15    3.53    0.70
   1   4 -15   -0.06    0.78
   1   4 -15   -0.16    0.51
  -1   4  15    0.03    0.46
  -1   4  15   -0.09    0.52
  -1   4  15    0.30    0.51
   1   4 -15    0.00    0.47
   0   4  15    0.34    0.52
   0   4 -15    0.38    0.38
   0   4 -15    0.43    0.78
   0   4  15   -0.28    0.52
   0   4 -15    0.02    0.34
   0   4  15    0.97    0.34
   1   4  15    0.38    0.51
  -1   4 -15    0.82    0.79
   1   4  15    0.07    0.49
   1   4  15   -0.22    0.44
  -1   4 -15    0.24    0.47
  -1   4 -15   -0.60    0.53
   2   4  15    2.23    0.57
   2   4  15    3.08    0.52
  -2   4 -15    2.75    0.60
   2   4  15    3.51    0.48
  -2   4 -15    3.09    0.65
  -2   4 -15    2.29    0.51
  -3   4 -15   -0.17    0.42
   3   4  15    0.00    0.47
   3   4  15   -0.08    0.41
  -3   4 -15    0.70    0.75
   3   4  15    0.44    0.49
  -3   4 -15   -0.28    0.36
  -4   4 -15    7.63    0.63
  -4   4 -15    5.87    0.76
   4   4  15    6.01    0.71
   4   4  15    6.51    0.68
   4   4  15    5.67    0.61
   5   4  15   37.10    2.80
   5   4  15   42.75    2.83
   5   4  15   40.82    2.37
   5   4  15   41.04    2.48
  -5   4 -15   42.04    2.37
  -5   4 -15   45.33    2.89
  -5   4 -15   40.24    2.47
  -6   4 -15   16.08    1.17
   6   4  15   19.62    1.40
   6   4  15   19.68    1.24
   6   4  15   19.82    1.38
  -6   4 -15   20.38    1.24
  -6   4 -15   18.80    1.43
   6   4  15   19.92    1.21
  -7   4 -15   36.38    2.23
   7   4  15   40.72    2.27
   7   4  15   39.77    2.57
   7   4  15   35.76    2.17
   8   4  15    1.78    0.19
   8   4  15    0.34    0.30
  -8   4 -15    1.92    0.32
  11   5 -15    5.97    0.53
 -11   5  15    4.44    0.45
  11   5 -15    6.52    0.63
  10   5 -15    0.14    0.60
  10   5 -15    0.63    0.33
 -10   5  15    0.38    0.31
 -10   5  15    0.60    0.45
  -9   5  15    1.56    0.50
  -9   5  15    0.91    0.48
   9   5 -15    0.69    0.66
   9   5 -15    1.68    0.51
   8   5 -15    3.59    0.35
   8   5 -15    4.26    0.48
  -8   5  15    4.75    0.64
   8   5 -15    4.42    0.78
  -8   5  15    3.96    0.46
  -7   5  15    6.90    0.92
   7   5 -15    7.56    0.83
   7   5 -15    8.12    0.73
   7   5 -15    8.26    0.59
  -7   5  15    7.19    0.63
   6   5 -15    1.07    0.51
  -6   5  15    0.93    0.63
  -6   5  15    0.24    0.47
   6   5 -15    0.06    0.49
   6   5 -15    0.20    0.24
   5   5 -15    0.12    0.47
   5   5 -15   -0.07    0.31
  -5   5  15    0.13    0.33
   5   5 -15   -0.12    0.47
  -5   5  15    0.37    0.61
   5   5 -15   -0.69    0.59
  -5   5  15    1.11    0.60
  -4   5  15    1.60    0.48
   4   5 -15    2.63    0.56
   4   5 -15    2.82    0.42
   4   5 -15    1.70    0.36
  -4   5  15    2.46    0.25
  -4   5  15    2.43    0.41
  -4   5  15    1.19    0.73
   4   5 -15    1.97    0.70
   3   5 -15    7.27    0.61
   3   5 -15    6.84    0.76
  -3   5  15    7.15    0.62
   3   5 -15    6.70    0.61
  -3   5  15    8.13    0.87
   3   5 -15    7.08    0.98
  -3   5  15    5.95    0.80
  -3   5  15    6.85    0.51
   2   5 -15   -0.15    0.80
  -2   5  15    1.25    0.58
  -2   5  15    0.97    0.50
  -2   5  15    1.11    0.37
   2   5 -15    0.81    0.45
   2   5 -15    0.37    0.29
   2   5 -15    0.81    0.50
  -2   5  15    0.95    0.22
  -1   5  15    2.90    0.81
  -1   5  15    1.88    0.53
   1   5 -15    1.97    0.30
   1   5 -15    1.77    0.58
   1   5 -15    1.89    0.63
   1   5 -15    2.51    0.41
   0   5 -15    6.00    1.01
   0   5  15    8.92    0.73
   0   5  15    8.59    0.89
   0   5 -15    6.93    0.70
   0   5  15    6.93    0.54
   1   5  15    9.24    0.64
   1   5  15    9.68    1.08
  -1   5 -15   10.80    1.13
   1   5  15   10.20    0.95
  -1   5 -15   10.89    0.81
  -2   5 -15    0.40    0.76
   2   5  15    0.99    0.33
   2   5  15    0.74    0.20
  -2   5 -15    0.44    0.33
   2   5  15    0.92    0.51
   3   5  15    2.04    0.48
  -3   5 -15    2.30    0.39
   3   5  15    2.39    0.69
  -3   5 -15    1.65    0.56
   4   5  15    6.46    0.61
   4   5  15    6.30    0.80
  -4   5 -15    6.87    0.56
  -4   5 -15    4.61    0.70
   5   5  15    3.90    0.47
  -5   5 -15    4.13    0.57
   5   5  15    2.60    0.45
  -5   5 -15    3.57    0.41
  -6   5 -15    0.29    0.32
  -6   5 -15   -0.08    0.38
  -9   6  15    4.16    0.61
   9   6 -15    7.35    0.51
   9   6 -15    6.40    0.66
  -8   6  15    0.70    0.21
   8   6 -15    0.78    0.33
   8   6 -15    1.58    0.44
  -8   6  15    0.15    0.42
   7   6 -15    8.25    0.68
  -7   6  15    8.30    0.62
   7   6 -15    8.53    0.86
   6   6 -15    0.98    0.45
  -6   6  15    0.23    0.30
  -6   6  15    1.94    0.48
   6   6 -15    0.96    0.37
  -5   6  15    0.16    0.42
   5   6 -15    0.14    0.26
   5   6 -15    0.87    0.46
  -4   6  15    0.99    0.40
   4   6 -15    1.61    0.50
  -4   6  15    1.67    0.57
   4   6 -15    0.84    0.28
   3   6 -15    2.04    0.47
  -3   6  15    1.01    0.47
  -3   6  15    0.97    0.40
   3   6 -15    0.92    0.28
   3   6 -15    0.64    0.60
  -2   6  15    1.06    0.33
   2   6 -15    1.15    0.68
  -2   6  15    2.60    0.53
   2   6 -15    1.21    0.45
   2   6 -15    1.37    0.38
  -1   6  15   17.24    1.39
  -1   6  15   22.01    1.60
   1   6 -15   21.04    1.72
  -1   6  15   21.29    1.23
   1   6 -15   18.91    1.17
   0   6  15    3.09    0.40
   0   6  15    3.07    0.75
   0   6 -15    2.06    0.40
   0   6 -15    2.86    0.42
   0   6 -15    2.78    0.62
  -1   6 -15   -0.03    0.33
   1   6  15   -0.11    0.22
   1   6  15   -0.21    0.47
  -1   6 -15    1.33    0.52
  -2   6 -15    0.47    0.22
   2   6  15   -0.12    0.20
  -2   6 -15    0.92    0.48
   2   6  15    0.05    0.46
   3   6  15    3.62    0.52
  -3   6 -15    3.39    0.57
   3   6  15    4.04    0.33
  -3   6 -15    4.11    0.37
  -4   6 -15    9.10    0.58
   4   6  15    9.25    0.58
  -4   6 -15    8.46    0.83
  -3   7  15    5.54    0.57
  14   0 -16    2.71    0.33
 -14   0  16    3.45    0.43
  13   0 -16   -0.87    0.38
 -13   0  16    0.22    0.32
 -12   0  16    4.26    0.58
  12   0 -16    4.68    0.45
 -11   0  16    0.12    0.36
  11   0 -16   -0.25    0.30
  10   0 -16   12.01    0.88
 -10   0  16   11.89    0.93
  -9   0  16   -0.10    0.53
   9   0 -16   -0.18    0.45
  -8   0  16    1.90    0.56
   8   0 -16    1.33    0.48
   7   0 -16   -0.48    0.45
  -7   0  16   -0.52    0.50
   6   0 -16    2.06    0.38
  -6   0  16    2.01    0.56
   5   0 -16   -0.57    0.43
  -5   0  16    0.00    0.35
   4   0 -16    2.83    0.51
  -4   0  16    2.13    0.44
  -3   0  16   -0.64    0.48
   3   0 -16    0.01    0.44
   2   0 -16   25.74    1.59
  -2   0  16   23.86    1.55
   1   0 -16   -0.09    0.30
  -1   0  16    0.02    0.35
   0   0  16    4.49    0.64
   0   0 -16    4.53    0.58
  -1   0 -16    0.19    0.32
   1   0  16   -0.22    0.48
  -2   0 -16    1.15    0.50
   2   0  16    1.92    0.53
  -3   0 -16    0.00    0.45
   3   0  16    0.42    0.35
  -4   0 -16   18.75    1.21
   5   0  16   -0.58    0.36
  -5   0 -16    0.00    0.31
  -6   0 -16    1.24    0.34
   6   0  16    0.80    0.38
   7   0  16    0.05    0.34
  -7   0 -16   -0.40    0.40
   8   0  16    1.95    0.28
  -8   0 -16    2.48    0.32
  -9   0 -16    0.20    0.20
 -14  -1  16    1.83    0.33
  14  -1 -16    1.61    0.29
 -14   1  16    1.61    0.42
  14   1 -16    1.92    0.23
 -14   1  16    0.97    0.37
 -13  -1  16   -0.39    0.32
 -13   1  16    0.01    0.63
 -13   1  16   -0.07    0.30
 -13   1  16    0.62    0.43
  13   1 -16    0.13    0.23
 -12  -1  16    5.50    0.63
 -12   1  16    6.04    0.79
 -12   1  16    3.44    0.63
  12   1 -16    5.88    0.46
 -12   1  16    5.02    0.54
 -11  -1  16    7.35    0.73
 -11   1  16    7.77    0.67
 -11   1  16    6.63    0.89
  11   1 -16    7.84    0.66
 -10  -1  16    3.73    0.63
  10   1 -16    5.50    0.49
 -10   1  16    4.61    0.51
 -10   1  16    5.44    0.69
   9   1 -16    3.24    0.52
  -9   1  16    3.29    0.58
   8   1 -16    9.02    0.75
  -8   1  16    8.91    0.80
  -7   1  16    3.41    0.46
  -7   1  16    2.82    0.65
   7   1 -16    3.67    0.53
   6   1 -16    3.73    0.61
  -6   1  16    2.47    0.56
  -6   1  16    1.78    0.57
   6   1 -16    2.79    0.40
   5   1 -16    8.68    0.74
  -5   1  16    8.87    0.79
  -4   1  16    0.56    0.50
   4   1 -16   -0.07    0.42
   3   1 -16   -0.65    0.42
  -3   1  16   -0.19    0.49
  -2   1  16    2.40    0.54
   2   1 -16    1.56    0.47
   1   1 -16    8.04    0.73
  -1   1  16    9.45    0.79
   0   1  16    0.91    0.49
   0   1 -16    1.70    0.47
   1   1  16   24.38    1.60
  -1   1 -16   24.85    1.50
  -2   1 -16    6.91    0.66
   2   1  16    6.45    0.68
  -3   1 -16    0.68    0.46
  -4   1 -16    0.59    0.44
   4   1  16    0.75    0.38
   4   1  16    1.14    0.29
  -4   1 -16    0.93    0.44
  -5  -1 -16    0.66    0.35
  -5   1 -16    1.67    0.44
  -5   1 -16    1.74    0.41
   5   1  16    1.43    0.29
  -6  -1 -16    1.02    0.34
   6   1  16    1.11    0.27
  -6   1 -16    1.03    0.41
   7  -1  16    1.48    0.29
  -7  -1 -16    0.46    0.32
  -7   1 -16    1.74    0.62
   7   1  16    1.43    0.25
  -7   1 -16    1.32    0.36
   8  -1  16    1.38    0.34
  -8  -1 -16    1.16    0.40
   8   1  16    1.36    0.21
  -8   1 -16    1.01    0.53
  -8   1 -16    1.11    0.20
  -9  -1 -16    1.41    0.27
  -9   1 -16    2.03    0.42
 -14   2  16   -0.08    0.31
  14   2 -16    0.87    0.35
 -14   2  16    1.18    0.42
 -13   2  16    0.05    0.37
 -13   2  16   -0.07    0.42
  13   2 -16    0.30    0.18
  13   2 -16    0.11    0.37
  13   2 -16    0.43    0.45
  12   2 -16    1.65    0.30
 -12   2  16    2.23    0.52
  12   2 -16    1.08    0.47
 -12   2  16    2.16    0.47
  12   2 -16    1.41    0.40
  11   2 -16   -0.41    0.52
 -11   2  16   -0.11    0.64
  11   2 -16    0.05    0.22
 -11   2  16    0.24    0.28
 -11   2  16    0.57    0.64
  11   2 -16    0.21    0.62
 -10   2  16    1.95    0.68
  10   2 -16    0.82    0.57
  10   2 -16    1.16    0.28
  10   2 -16    1.11    0.65
 -10   2  16    1.53    0.36
 -10   2  16    1.79    0.50
   9   2 -16    2.03    0.41
  -9   2  16    2.28    0.71
   9   2 -16    0.65    0.59
  -9   2  16    1.60    0.41
  -9   2  16    2.05    0.66
   9   2 -16    2.41    0.69
  -8   2  16   16.27    1.12
   8   2 -16   15.70    1.31
  -8   2  16   17.90    1.45
  -8   2  16   16.03    1.34
   8   2 -16   15.26    1.21
   8   2 -16   16.35    1.03
   7   2 -16    9.96    1.01
   7   2 -16   12.01    0.79
  -7   2  16   10.89    0.93
  -7   2  16   11.08    1.08
   7   2 -16   11.18    1.11
  -7   2  16   10.82    1.03
  -6   2  16    7.92    0.83
  -6   2  16    8.30    0.70
   6   2 -16    6.85    0.86
   6   2 -16    9.74    0.81
  -6   2  16    7.21    0.79
   6   2 -16    9.50    0.89
  -5   2  16    0.80    0.44
   5   2 -16    1.24    0.31
  -5   2  16    0.38    0.64
   5   2 -16    2.27    0.62
   5   2 -16    0.66    0.40
  -5   2  16    1.15    0.53
   4   2 -16    9.23    0.72
   4   2 -16    9.10    0.90
  -4   2  16    9.30    0.76
  -4   2  16    9.52    1.00
  -3   2  16   22.65    1.64
   3   2 -16   23.73    1.39
   3   2 -16   22.80    1.61
  -3   2  16   23.13    1.49
  -2   2  16   -0.48    0.43
   2   2 -16    0.10    0.40
   2   2 -16    0.32    0.41
  -2   2  16    0.16    0.59
  -1   2  16   20.06    1.61
   1   2 -16   20.11    1.58
   1   2 -16   20.44    1.34
  -1   2  16   21.12    1.36
   0   2 -16    3.39    0.40
   0   2 -16    3.65    0.55
   0   2  16    2.88    0.65
   0   2  16    2.92    0.40
   1   2  16    4.32    0.53
  -1   2 -16    4.33    0.51
   1   2  16    4.18    0.57
  -1   2 -16    3.04    0.70
  -2   2 -16   12.97    1.06
  -2   2 -16   14.21    0.97
  -2   2 -16   12.28    1.19
   2   2  16   12.62    0.83
   2   2  16   11.86    1.18
   2   2  16   12.90    1.18
   3   2  16    3.50    0.42
   3   2  16    3.32    0.52
   3   2  16    4.42    0.60
  -3   2 -16    3.65    0.70
  -3   2 -16    3.46    0.45
  -3   2 -16    4.19    0.61
   4   2  16   27.60    2.04
  -4   2 -16   29.47    1.94
  -4   2 -16   27.53    2.01
   4   2  16   26.69    1.84
   4   2  16   29.48    1.63
  -4   2 -16   27.66    1.64
   5   2  16    0.22    0.26
  -5   2 -16    0.19    0.40
   5   2  16   -0.25    0.49
   5   2  16    0.18    0.32
  -5   2 -16    0.32    0.40
  -5   2 -16   -0.10    0.29
  -6   2 -16    0.48    0.23
   6   2  16   -0.49    0.45
   6   2  16    0.02    0.15
  -6   2 -16    0.29    0.41
   7   2  16    0.12    0.45
  -7   2 -16    0.82    0.40
   7   2  16    0.02    0.15
  -7   2 -16   -0.12    0.56
  -8   2 -16   -0.11    0.36
   8   2  16    0.21    0.29
  -8   2 -16    0.74    0.32
 -13   3  16    1.83    0.45
  13   3 -16    1.76    0.30
 -13   3  16    1.83    0.34
  13   3 -16    1.54    0.39
 -12   3  16   18.87    1.39
 -12   3  16   18.26    1.18
 -12   3  16   15.23    1.15
  12   3 -16   19.13    1.34
 -11   3  16    3.74    0.59
 -11   3  16    4.91    0.55
  11   3 -16    5.04    0.51
 -11   3  16    4.12    0.62
  11   3 -16    2.96    0.55
 -10   3  16    0.56    0.64
  10   3 -16    0.29    0.45
 -10   3  16    0.19    0.56
  10   3 -16    0.48    0.38
 -10   3  16   -0.29    0.55
  -9   3  16   -0.04    0.40
   9   3 -16   -0.40    0.53
   9   3 -16   -0.03    0.17
  -9   3  16   -0.12    0.39
  -9   3  16   -0.48    0.63
   9   3 -16   -0.37    0.62
  -8   3  16    8.93    0.95
  -8   3  16    8.36    0.85
   8   3 -16    8.28    0.84
  -8   3  16    7.85    0.87
   8   3 -16    8.80    0.87
   8   3 -16    8.76    0.58
  -7   3  16    5.84    0.66
  -7   3  16    5.59    0.80
   7   3 -16    6.51    0.67
   7   3 -16    5.62    0.47
   7   3 -16    5.40    0.82
  -7   3  16    6.55    0.64
  -7   3  16    5.70    0.76
   7   3 -16    4.79    0.73
   6   3 -16    8.22    0.83
  -6   3  16    8.06    0.96
  -6   3  16    9.39    0.78
   6   3 -16    8.04    0.91
  -6   3  16    8.42    0.60
  -6   3  16    7.58    0.91
  -6   3  16    9.21    0.87
   6   3 -16   10.01    0.70
  -5   3  16    0.87    0.59
   5   3 -16    0.29    0.28
  -5   3  16    0.18    0.25
  -5   3  16   -0.28    0.60
  -5   3  16    0.02    0.46
   5   3 -16   -0.54    0.57
  -5   3  16    0.24    0.37
   5   3 -16    0.53    0.58
  -4   3  16    9.84    0.95
   4   3 -16    8.54    0.90
  -4   3  16    8.56    0.87
  -4   3  16   10.05    0.90
   4   3 -16    9.07    0.89
   4   3 -16    9.83    0.70
   3   3 -16   -0.40    0.37
   3   3 -16    0.60    0.28
  -3   3  16   -0.13    0.57
   3   3 -16    0.15    0.57
  -3   3  16    0.16    0.55
  -3   3  16    0.75    0.69
  -2   3  16    4.79    0.71
   2   3 -16    5.05    0.74
   2   3 -16    5.24    0.70
   2   3 -16    6.71    0.59
  -2   3  16    6.17    0.78
  -2   3  16    4.87    0.73
  -1   3  16    1.49    0.71
   1   3 -16    1.07    0.43
   1   3 -16    0.91    0.56
   1   3 -16    0.98    0.27
   1   3 -16    0.95    0.55
  -1   3  16    1.50    0.58
  -1   3  16    1.10    0.41
  -1   3  16    0.84    0.21
   0   3  16   -0.14    0.64
   0   3  16    0.27    0.20
   0   3 -16    0.30    0.56
   0   3 -16    0.43    0.52
   0   3 -16    0.32    0.40
   0   3  16    0.19    0.53
   0   3  16    0.30    0.39
   0   3 -16    0.53    0.24
  -1   3 -16    5.93    0.50
   1   3  16    5.43    0.43
  -1   3 -16    5.77    0.63
  -1   3 -16    4.73    0.69
   1   3  16    5.67    0.85
  -1   3 -16    6.51    0.78
   1   3  16    5.98    0.62
   1   3  16    5.22    0.68
  -2   3 -16    0.37    0.71
  -2   3 -16    0.38    0.16
  -2   3 -16    1.02    0.42
   2   3  16    0.62    0.46
   2   3  16    0.51    0.20
  -2   3 -16    0.01    0.54
   2   3  16    0.40    0.51
   3   3  16   24.70    1.63
   3   3  16   23.83    1.86
  -3   3 -16   23.70    1.65
   3   3  16   23.18    1.34
  -3   3 -16   29.05    1.73
  -3   3 -16   26.45    1.99
   4   3  16    3.05    0.52
  -4   3 -16    0.58    0.56
  -4   3 -16    2.65    0.73
   4   3  16    2.99    0.44
  -4   3 -16    2.80    0.59
   5   3  16    0.90    0.47
   5   3  16   -0.08    0.32
  -5   3 -16   -0.02    0.44
  -5   3 -16   -0.27    0.51
   5   3  16   -0.29    0.39
   6   3  16    7.26    0.83
  -6   3 -16    9.11    0.80
  -6   3 -16    8.68    0.94
   6   3  16    9.47    0.81
  -6   3 -16    9.14    0.81
  -7   3 -16    5.22    0.50
   7   3  16    5.91    0.50
   7   3  16    5.78    0.64
  -7   3 -16    4.31    0.60
  -7   3 -16    5.14    0.59
  -8   3 -16    0.97    0.27
   8   3  16    1.16    0.29
  12   4 -16    0.61    0.39
 -12   4  16    0.89    0.37
 -12   4  16    0.60    0.40
  11   4 -16    2.88    0.42
  11   4 -16    3.19    0.40
 -11   4  16    4.43    0.58
  11   4 -16    3.32    0.51
 -11   4  16    4.92    0.47
 -10   4  16    0.09    0.23
  10   4 -16    0.74    0.51
  10   4 -16    1.23    0.65
  10   4 -16    0.87    0.28
 -10   4  16   -0.11    0.43
 -10   4  16    0.02    0.37
  -9   4  16    5.40    0.67
   9   4 -16    4.46    0.56
  -9   4  16    5.97    0.56
   9   4 -16    5.31    0.78
  -9   4  16    5.09    0.66
   9   4 -16    5.23    0.54
   8   4 -16    0.31    0.32
  -8   4  16   -0.33    0.42
   8   4 -16   -0.50    0.44
  -8   4  16    0.84    0.41
   8   4 -16   -0.81    0.51
  -8   4  16   -0.04    0.54
  -7   4  16    0.90    0.43
  -7   4  16    0.60    0.46
  -7   4  16    1.07    0.57
   7   4 -16    1.17    0.55
   7   4 -16    0.63    0.68
   7   4 -16    0.75    0.34
  -6   4  16    2.18    0.48
  -6   4  16    2.36    0.61
   6   4 -16    2.90    0.72
   6   4 -16    1.81    0.51
  -6   4  16    1.76    0.49
  -6   4  16    2.49    0.50
   6   4 -16    2.52    0.45
   6   4 -16    1.71    0.48
   5   4 -16    0.75    0.63
  -5   4  16    0.13    0.53
  -5   4  16    0.39    0.32
   5   4 -16    0.64    0.46
  -5   4  16    0.23    0.48
   5   4 -16    0.21    0.35
  -5   4  16    0.53    0.41
   5   4 -16    0.93    0.55
  -4   4  16    7.42    0.67
   4   4 -16    7.77    0.82
   4   4 -16    7.33    0.73
  -4   4  16    5.46    0.76
   4   4 -16    5.01    0.81
  -4   4  16    7.30    0.69
   4   4 -16    7.10    0.65
  -4   4  16    8.40    0.85
  -3   4  16   -1.40    0.69
   3   4 -16   -0.17    0.53
  -3   4  16   -0.07    0.43
   3   4 -16    0.38    0.49
   3   4 -16   -0.05    0.37
  -3   4  16   -0.50    0.36
  -3   4  16   -0.03    0.47
   3   4 -16   -0.90    0.52
  -2   4  16   37.95    2.26
  -2   4  16   39.05    2.63
   2   4 -16   34.63    2.12
   2   4 -16   31.43    2.21
   2   4 -16   39.02    2.57
  -2   4  16   34.97    2.13
   1   4 -16    5.98    0.96
  -1   4  16    7.25    0.73
   1   4 -16    6.99    0.72
  -1   4  16    6.08    0.65
  -1   4  16    5.46    0.78
   1   4 -16    6.20    0.67
   0   4  16   15.99    1.10
   0   4 -16   13.31    1.02
   0   4 -16   15.33    1.54
   0   4  16   14.36    1.33
   0   4 -16   15.74    1.08
   0   4  16   13.12    1.18
  -1   4 -16    0.88    0.54
   1   4  16   -0.20    0.35
  -1   4 -16   -0.82    0.71
   1   4  16    0.48    0.48
   1   4  16    0.28    0.40
  -1   4 -16   -0.55    0.42
  -2   4 -16    4.34    0.53
   2   4  16    3.83    0.61
  -2   4 -16    5.24    0.55
   2   4  16    4.24    0.77
  -2   4 -16    5.42    0.72
   2   4  16    4.00    0.52
   3   4  16    2.62    0.52
   3   4  16    1.67    0.41
  -3   4 -16    2.45    0.44
  -3   4 -16    1.95    0.74
   3   4  16    1.52    0.51
   4   4  16    9.12    0.86
  -4   4 -16    6.73    0.77
  -4   4 -16    6.72    0.58
   4   4  16    7.55    0.68
   4   4  16    8.31    0.72
  -4   4 -16    8.99    0.75
   5   4  16    1.19    0.31
  -5   4 -16    1.18    0.26
   5   4  16    1.24    0.35
  -5   4 -16    1.22    0.36
  -5   4 -16    1.73    0.46
   5   4  16    0.56    0.31
  -6   4 -16    8.60    0.78
   6   4  16    8.43    0.61
  -6   4 -16    9.71    0.71
   6   4  16    9.64    0.69
 -10   5  16    0.80    0.36
  10   5 -16    0.29    0.29
 -10   5  16    0.09    0.34
  10   5 -16    0.08    0.38
  -9   5  16    0.25    0.40
   9   5 -16    0.36    0.43
   9   5 -16    0.09    0.42
  -9   5  16   -0.36    0.37
   8   5 -16   27.20    1.64
  -8   5  16   29.41    1.64
  -8   5  16   26.94    1.96
   7   5 -16    1.83    0.39
  -7   5  16    1.65    0.63
  -7   5  16    1.78    0.37
   7   5 -16    1.48    0.50
   6   5 -16    4.64    0.60
  -6   5  16    5.62    0.66
   6   5 -16    5.74    0.66
  -6   5  16    4.92    0.51
   5   5 -16    3.95    0.33
  -5   5  16    4.59    0.69
   5   5 -16    5.28    0.63
  -5   5  16    4.54    0.57
   5   5 -16    4.18    0.47
   4   5 -16    1.88    0.64
   4   5 -16    2.28    0.52
  -4   5  16    2.37    0.44
   4   5 -16    2.70    0.53
  -4   5  16    2.17    0.67
  -4   5  16    2.09    0.52
   3   5 -16   10.09    0.91
   3   5 -16    7.47    1.00
  -3   5  16    9.81    1.03
  -3   5  16   10.09    0.78
   2   5 -16   -0.14    0.48
   2   5 -16    0.68    0.75
  -2   5  16   -0.18    0.33
  -2   5  16   -0.17    0.49
   2   5 -16   -0.07    0.51
   1   5 -16    8.70    0.87
   1   5 -16    6.97    0.61
  -1   5  16    6.88    0.94
  -1   5  16    6.84    0.69
   0   5 -16    0.21    0.73
   0   5 -16    0.80    0.48
   0   5  16    0.10    0.48
   0   5  16    0.15    0.46
  -1   5 -16    3.71    0.46
   1   5  16    5.61    0.68
  -1   5 -16    3.00    0.82
   1   5  16    4.45    0.47
  -2   5 -16    3.54    0.61
  -2   5 -16    4.10    0.45
   2   5  16    3.82    0.42
   2   5  16    3.44    0.60
   3   5  16    8.63    0.79
   3   5  16    8.68    0.88
  -3   5 -16    8.46    0.93
  -3   5 -16    8.79    0.69
  -4   5 -16    2.04    0.34
   4   5  16    2.14    0.39
  -4   5 -16    0.88    0.46
   4   5  16    1.51    0.40
  -5   5 -16   -0.54    0.33
   7   6 -16    1.91    0.24
  -7   6  16    1.37    0.35
  -7   6  16    2.37    0.22
   7   6 -16    3.12    0.44
  -6   6  16    0.25    0.26
  -6   6  16    0.93    0.36
   6   6 -16    0.21    0.21
   6   6 -16    0.70    0.37
   5   6 -16    1.18    0.40
   5   6 -16    0.22    0.31
  -5   6  16    0.17    0.35
   4   6 -16   31.67    2.16
  -4   6  16   32.07    2.20
  -3   6  16    4.57    0.56
  -3   6  16    4.44    0.54
   3   6 -16    5.17    0.53
   3   6 -16    4.92    0.55
   2   6 -16   11.44    0.97
   2   6 -16   12.43    0.79
   2   6 -16   10.24    0.88
  -2   6  16   11.51    1.03
  -1   6  16    1.01    0.22
   1   6 -16    1.27    0.25
  -1   6  16    1.41    0.46
   1   6 -16    1.64    0.46
   0   6 -16    0.41    0.30
   0   6  16    0.47    0.26
   0   6 -16   -0.19    0.45
   0   6  16    0.69    0.42
  -1   6 -16    3.34    0.29
  -1   6 -16    4.72    0.56
   1   6  16    4.20    0.32
   1   6  16    1.92    0.46
   2   6  16    2.95    0.44
  -2   6 -16    3.29    0.27
  -2   6 -16    1.00    0.44
 -13   0  17    4.19    0.52
 -13   0  17    2.90    0.42
  13   0 -17    2.15    0.40
  12   0 -17   -0.25    0.27
 -12   0  17   -0.23    0.43
  11   0 -17    4.99    0.46
 -11   0  17    4.94    0.50
 -10   0  17   -0.36    0.35
  10   0 -17   -0.13    0.30
  -9   0  17    8.89    0.80
   9   0 -17    9.20    0.75
  -8   0  17   -0.21    0.36
   8   0 -17    0.58    0.45
   7   0 -17    0.73    0.45
  -7   0  17    0.06    0.37
   6   0 -17   -0.19    0.44
  -6   0  17    0.23    0.52
  -5   0  17    0.14    0.51
   5   0 -17   -0.41    0.30
   4   0 -17    0.10    0.32
  -4   0  17   -0.35    0.52
  -3   0  17   -0.03    0.37
   3   0 -17    0.39    0.33
  -2   0  17    0.20    0.36
   2   0 -17    0.11    0.33
  -1   0  17    2.63    0.45
   1   0 -17    2.22    0.40
   0   0 -17    0.73    0.47
   0   0  17   -0.65    0.49
   1   0  17    7.37    0.74
  -1   0 -17    7.69    0.64
   2   0  17    0.50    0.49
  -2   0 -17   -0.55    0.46
  -3   0 -17   29.54    1.74
   4   0  17   -0.28    0.35
  -4   0 -17    0.07    0.31
   5   0  17   12.54    0.91
  -5   0 -17   12.23    0.86
   6   0  17    0.11    0.33
  -6   0 -17    0.17    0.29
   7   0  17    4.57    0.42
  -8   0 -17   -0.05    0.18
   8   0  17   -0.07    0.22
 -13  -1  17    1.14    0.41
  13  -1 -17    0.20    0.35
  13   1 -17    1.29    0.37
 -13   1  17    1.19    0.37
 -13   1  17    1.17    0.40
  13   1 -17    0.90    0.27
 -12  -1  17   -0.21    0.30
  12  -1 -17    0.22    0.28
  12   1 -17    0.66    0.33
 -12   1  17    0.89    0.57
 -12   1  17   -0.57    0.39
 -12   1  17   -0.25    0.32
  12   1 -17    0.14    0.38
 -11  -1  17    3.38    0.55
 -11   1  17    2.29    0.67
 -11   1  17    2.31    0.43
 -11   1  17    3.26    0.69
  11   1 -17    2.37    0.34
 -10  -1  17    0.59    0.51
 -10   1  17   -0.26    0.64
 -10   1  17   -0.23    0.59
 -10   1  17    0.42    0.42
  10   1 -17   -0.10    0.29
  -9  -1  17   13.98    1.09
   9   1 -17   16.69    1.13
  -9   1  17   17.70    1.16
  -9   1  17   15.13    1.37
  -9   1  17   15.53    1.41
   9   1 -17   16.46    1.25
  -8   1  17    0.66    0.40
  -8   1  17    1.22    0.36
   8   1 -17    0.37    0.44
   8   1 -17   -0.27    0.53
   7   1 -17    3.06    0.62
  -7   1  17    4.74    0.50
  -7   1  17    4.10    0.55
   7   1 -17    4.57    0.55
   6   1 -17    1.94    0.48
  -6   1  17    1.99    0.41
   5   1 -17    9.87    0.80
  -5   1  17   10.61    0.86
   4   1 -17    3.96    0.45
  -4   1  17    3.46    0.47
  -3   1  17    0.28    0.50
   3   1 -17   -0.50    0.43
  -2   1  17   -0.07    0.48
   2   1 -17    0.21    0.31
  -1   1  17    5.17    0.61
   1   1 -17    3.59    0.45
   0   1 -17    7.83    0.71
   0   1  17    7.41    0.71
   1   1  17    9.92    0.92
  -1   1 -17    9.10    0.76
  -2   1 -17    2.55    0.49
  -3   1 -17   13.16    1.26
   3   1  17   12.47    1.11
  -3   1 -17   12.27    0.98
   3   1  17   11.76    0.91
  -4  -1 -17    1.97    0.38
  -4   1 -17    2.43    0.44
   4   1  17    2.80    0.32
  -4   1 -17    1.68    0.45
   4   1  17    1.60    0.40
  -5  -1 -17    0.69    0.31
   5  -1  17    0.13    0.29
   5   1  17    0.42    0.22
  -5   1 -17   -0.51    0.54
  -5   1 -17    0.13    0.25
  -6  -1 -17   -0.10    0.29
   6  -1  17   -0.27    0.23
   6   1  17    0.28    0.28
  -6   1 -17    0.16    0.31
   7  -1  17    2.46    0.31
  -7  -1 -17    2.79    0.35
   7   1  17    2.79    0.25
  -7   1 -17    2.92    0.25
  -7   1 -17    2.46    0.55
  -8  -1 -17    4.83    0.41
   8   1  17    4.93    0.32
 -13   2  17    6.60    0.76
  13   2 -17    9.54    0.74
  12   2 -17   -0.25    0.37
  12   2 -17    0.25    0.16
 -12   2  17    0.28    0.56
 -12   2  17   -0.44    0.34
  12   2 -17   -0.28    0.32
  11   2 -17    4.29    0.57
  11   2 -17    3.88    0.35
 -11   2  17    4.93    0.70
  11   2 -17    3.87    0.50
 -11   2  17    4.14    0.59
  10   2 -17   10.69    0.97
  10   2 -17    8.55    0.91
 -10   2  17    8.96    0.89
 -10   2  17   10.70    0.63
  10   2 -17   11.78    0.73
 -10   2  17    8.08    0.94
  -9   2  17    4.25    0.41
   9   2 -17    5.08    0.62
   9   2 -17    3.79    0.44
  -9   2  17    4.00    0.74
  -9   2  17    3.69    0.58
   9   2 -17    4.09    0.55
  -8   2  17    0.45    0.57
  -8   2  17    1.10    0.49
   8   2 -17    0.60    0.59
   8   2 -17    0.80    0.36
  -8   2  17    0.35    0.35
   8   2 -17    1.13    0.60
  -7   2  17    6.75    0.80
   7   2 -17    6.51    0.69
  -7   2  17    6.99    0.59
   7   2 -17    5.43    0.78
  -7   2  17    8.39    0.77
   7   2 -17    6.35    0.59
  -6   2  17    3.85    0.50
   6   2 -17    3.29    0.55
   6   2 -17    4.32    0.54
  -6   2  17    5.50    0.77
   6   2 -17    3.72    0.48
  -6   2  17    2.91    0.60
  -5   2  17    0.98    0.48
   5   2 -17    0.53    0.60
   5   2 -17    1.07    0.41
  -5   2  17    0.83    0.31
   4   2 -17    2.96    0.69
  -4   2  17    3.53    0.74
  -4   2  17    2.94    0.49
   4   2 -17    3.53    0.48
  -3   2  17    1.97    0.44
  -3   2  17    1.45    0.63
   3   2 -17    2.01    0.43
   3   2 -17    1.08    0.62
  -2   2  17    0.65    0.60
  -2   2  17    0.43    0.30
   2   2 -17    0.65    0.62
   2   2 -17    0.78    0.41
   1   2 -17    0.96    0.62
   1   2 -17    0.78    0.29
  -1   2  17    1.61    0.62
  -1   2  17    0.55    0.30
   0   2  17    2.45    0.44
   0   2 -17    2.44    0.66
   0   2 -17    2.05    0.42
   0   2  17    2.46    0.64
  -1   2 -17    5.68    0.86
   1   2  17    4.96    0.46
   1   2  17    5.82    0.70
  -1   2 -17    5.14    0.51
  -1   2 -17    5.32    0.64
   1   2  17    5.96    0.64
   2   2  17    0.90    0.29
  -2   2 -17    0.76    0.33
  -2   2 -17    1.05    0.59
   2   2  17    1.84    0.63
  -2   2 -17    0.56    0.68
   2   2  17    0.83    0.54
  -3   2 -17    4.47    0.43
   3   2  17    5.51    0.58
  -3   2 -17    4.98    0.70
   3   2  17    4.76    0.41
   3   2  17    3.66    0.69
  -3   2 -17    4.30    0.78
   4   2  17    0.14    0.22
  -4   2 -17    0.56    0.42
   4   2  17    0.89    0.37
  -4   2 -17    0.66    0.24
   4   2  17    0.93    0.51
  -4   2 -17    0.56    0.40
   5   2  17    2.08    0.25
  -5   2 -17    1.72    0.41
  -5   2 -17    2.43    0.23
   5   2  17    1.90    0.41
   6   2  17    0.09    0.31
   6   2  17    0.01    0.10
  -6   2 -17    0.44    0.37
   6   2  17    0.40    0.25
  -7   2 -17   12.41    0.97
   7   2  17   14.03    0.98
  12   3 -17    0.78    0.37
 -12   3  17    0.63    0.22
  12   3 -17    0.55    0.37
 -12   3  17   -0.24    0.31
  11   3 -17    4.68    0.48
 -11   3  17    4.50    0.46
 -11   3  17    4.80    0.58
 -11   3  17    4.99    0.51
 -10   3  17    2.65    0.46
 -10   3  17    3.19    0.68
  10   3 -17    1.95    0.42
 -10   3  17    2.74    0.54
  10   3 -17    2.56    0.65
  -9   3  17   -0.29    0.40
  -9   3  17    0.37    0.37
   9   3 -17   -0.29    0.60
   9   3 -17    1.04    0.52
  -9   3  17   -0.76    0.54
  -8   3  17    0.42    0.54
  -8   3  17    0.07    0.41
   8   3 -17   -0.38    0.43
  -8   3  17    0.12    0.55
   8   3 -17   -0.22    0.52
   7   3 -17   -0.32    0.54
  -7   3  17    0.13    0.38
  -7   3  17    0.40    0.40
   7   3 -17    0.03    0.42
  -7   3  17    0.80    0.57
   7   3 -17    0.40    0.53
  -7   3  17   -0.53    0.54
   7   3 -17    0.37    0.16
   6   3 -17   -0.75    0.57
   6   3 -17    0.54    0.56
  -6   3  17    0.08    0.56
   6   3 -17   -0.06    0.18
  -6   3  17    0.64    0.43
  -6   3  17   -0.71    0.55
   6   3 -17   -0.03    0.39
  -6   3  17    0.03    0.36
   5   3 -17    1.98    0.27
  -5   3  17    2.44    0.47
  -5   3  17    1.94    0.53
  -5   3  17    2.64    0.49
  -5   3  17    2.68    0.57
   5   3 -17    2.70    0.57
   5   3 -17    2.44    0.46
   5   3 -17    2.81    0.48
  -4   3  17   -0.68    0.43
   4   3 -17    0.44    0.50
  -4   3  17   -0.85    0.57
  -4   3  17    0.16    0.39
   4   3 -17    0.36    0.40
   3   3 -17   46.39    2.84
  -3   3  17   45.33    2.89
   3   3 -17   48.64    3.16
  -3   3  17   43.09    2.72
  -3   3  17   46.49    3.23
  -2   3  17    0.28    0.48
   2   3 -17   -0.13    0.40
  -2   3  17   -0.72    0.52
   2   3 -17    0.15    0.71
   2   3 -17    0.47    0.21
  -2   3  17    0.33    0.39
  -1   3  17   15.26    1.38
   1   3 -17   16.40    1.57
   1   3 -17   16.12    0.90
  -1   3  17   16.66    1.25
  -1   3  17   15.75    1.13
   1   3 -17   14.53    1.15
   0   3  17    1.47    0.55
   0   3  17    1.20    0.50
   0   3 -17    1.86    0.59
   0   3 -17    1.31    0.75
  -1   3 -17    0.23    0.68
  -1   3 -17    1.02    0.39
   1   3  17    0.11    0.44
   1   3  17    0.12    0.36
  -2   3 -17   -0.83    0.50
   2   3  17   -0.54    0.60
   2   3  17    0.85    0.50
  -2   3 -17   -0.03    0.49
  -3   3 -17    1.22    0.53
   3   3  17    2.44    0.40
  -3   3 -17    1.99    0.53
   3   3  17    1.46    0.60
  -4   3 -17    2.38    0.65
   4   3  17    2.21    0.38
   4   3  17    1.64    0.40
  -5   3 -17    3.59    0.52
  -5   3 -17    4.48    0.53
   5   3  17    3.39    0.40
   6   3  17    0.88    0.26
  -6   3 -17    1.05    0.28
  11   4 -17    1.98    0.23
  11   4 -17    3.49    0.43
 -10   4  17   -0.48    0.32
  10   4 -17   -0.27    0.36
  10   4 -17    0.04    0.19
  10   4 -17    0.75    0.43
 -10   4  17   -0.65    0.36
  -9   4  17    2.11    0.45
   9   4 -17    1.07    0.43
   9   4 -17    0.95    0.35
  -9   4  17    0.84    0.50
   9   4 -17    1.04    0.26
  -9   4  17    1.61    0.26
  -8   4  17    0.15    0.29
   8   4 -17    0.94    0.46
  -8   4  17   -0.03    0.37
  -8   4  17   -0.48    0.40
   8   4 -17   -1.04    0.49
   8   4 -17   -0.05    0.38
   7   4 -17   18.79    1.35
   7   4 -17   21.77    1.57
  -7   4  17   22.22    1.58
  -7   4  17   22.60    1.38
   7   4 -17   23.10    1.46
  -7   4  17   21.00    1.36
  -6   4  17    0.41    0.37
  -6   4  17   -0.49    0.50
   6   4 -17   -0.40    0.41
   6   4 -17    0.27    0.41
  -6   4  17   -0.06    0.36
   6   4 -17   -0.12    0.52
  -6   4  17    0.27    0.52
  -5   4  17   -0.45    0.36
  -5   4  17    0.08    0.39
   5   4 -17   -0.48    0.53
   5   4 -17    0.41    0.45
  -5   4  17   -0.14    0.48
   5   4 -17    0.35    0.38
   5   4 -17   -0.60    0.58
  -5   4  17   -1.09    0.57
  -4   4  17    0.19    0.46
   4   4 -17    0.40    0.44
   4   4 -17    0.15    0.37
   4   4 -17    0.32    0.49
  -4   4  17    0.66    0.54
   4   4 -17    0.17    0.53
   3   4 -17    0.46    0.49
   3   4 -17    0.70    0.53
  -3   4  17    0.52    0.48
   3   4 -17   -0.95    0.41
  -3   4  17   -0.41    0.53
  -2   4  17    6.24    0.61
   2   4 -17    6.66    0.71
  -2   4  17    7.19    0.79
   2   4 -17    5.29    0.62
   2   4 -17    6.08    0.91
  -2   4  17    7.71    0.74
  -1   4  17   -0.33    0.25
  -1   4  17    0.07    0.66
   1   4 -17    0.20    0.29
   1   4 -17   -0.40    0.53
   1   4 -17    0.32    0.51
  -1   4  17    0.10    0.51
   0   4  17    5.75    0.67
   0   4  17    4.75    0.80
   0   4 -17    3.98    0.54
   0   4 -17    7.04    0.74
   0   4  17    4.69    0.53
   0   4 -17    6.03    0.56
  -1   4 -17    3.65    0.57
  -1   4 -17    2.57    0.57
   1   4  17    2.29    0.42
   1   4  17    1.68    0.66
  -1   4 -17    1.97    0.40
   1   4  17    1.51    0.39
   2   4  17   -0.10    0.47
   2   4  17   -0.36    0.32
   2   4  17    0.68    0.45
  -2   4 -17    0.69    0.38
  -2   4 -17    0.49    0.68
  -3   4 -17   20.30    1.17
  -3   4 -17   18.53    1.40
   3   4  17   16.52    1.12
  -3   4 -17   16.24    1.13
   3   4  17   20.84    1.26
  -4   4 -17   12.32    0.85
  -4   4 -17   13.70    0.93
   4   4  17   13.71    1.08
   4   4  17   14.45    0.88
   4   4  17   14.81    0.92
   5   4  17    9.00    0.58
  -5   4 -17   10.35    0.70
   9   5 -17    0.49    0.32
  -9   5  17    0.78    0.33
  -9   5  17    0.96    0.24
   9   5 -17    0.52    0.25
  -8   5  17    2.15    0.31
   8   5 -17    1.27    0.38
  -8   5  17    2.08    0.41
   8   5 -17    1.48    0.32
   7   5 -17    6.20    0.55
   7   5 -17    4.37    0.58
  -7   5  17    6.11    0.54
   6   5 -17   -0.01    0.31
  -6   5  17   -0.12    0.47
   6   5 -17   -0.26    0.37
  -6   5  17    0.33    0.30
   5   5 -17    1.31    0.54
  -5   5  17    2.05    0.38
   5   5 -17    2.00    0.48
  -5   5  17    1.80    0.36
   4   5 -17    0.88    0.43
   4   5 -17    1.49    0.41
   4   5 -17    0.72    0.46
  -4   5  17    1.23    0.40
  -4   5  17    1.39    0.46
  -4   5  17    1.33    0.34
   3   5 -17   11.04    0.84
   3   5 -17   11.26    1.03
  -3   5  17   13.35    1.23
   2   5 -17    1.04    0.36
  -2   5  17    1.33    0.46
  -2   5  17    2.00    0.64
   2   5 -17    1.10    0.49
   1   5 -17   23.57    1.44
  -1   5  17   21.68    1.69
   0   5 -17    4.08    0.45
   0   5 -17    5.52    0.66
   0   5  17    5.06    0.47
   0   5  17    3.77    0.73
  -1   5 -17    6.51    0.61
   1   5  17    4.92    0.79
  -1   5 -17    7.98    0.75
   1   5  17    6.53    0.58
   2   5  17    2.30    0.33
   2   5  17    2.34    0.45
  -2   5 -17    2.55    0.44
   3   5  17    0.62    0.31
  -3   5 -17    0.36    0.38
  -3   5 -17    0.58    0.36
   3   5  17    0.47    0.23
  12   0 -18    0.15    0.26
  12   0 -18   -0.24    0.31
 -12   0  18    0.13    0.33
 -12   0  18   -0.14    0.31
 -11   0  18    0.70    0.42
  11   0 -18   -0.27    0.31
 -11   0  18    0.31    0.31
  11   0 -18    0.17    0.26
  10   0 -18   27.94    2.03
 -10   0  18   33.61    1.83
  10   0 -18   30.12    1.73
 -10   0  18   30.21    2.13
  -9   0  18    0.00    0.48
  -9   0  18   -0.14    0.29
   9   0 -18    0.55    0.43
  -8   0  18   13.80    0.98
   8   0 -18   13.55    0.93
   7   0 -18    0.34    0.32
  -7   0  18    0.33    0.36
  -6   0  18    0.28    0.37
   6   0 -18    0.66    0.44
   5   0 -18   -0.21    0.31
  -5   0  18   -0.49    0.50
  -4   0  18    0.48    0.37
   4   0 -18    0.41    0.46
   3   0 -18    0.57    0.45
  -3   0  18   -0.58    0.50
  -2   0  18    4.27    0.61
   2   0 -18    3.61    0.55
   1   0 -18   -0.36    0.45
  -1   0  18    0.37    0.50
   0   0 -18    7.03    0.70
   0   0  18    7.62    0.73
  -1   0 -18    0.21    0.33
   1   0  18    0.02    0.34
   2   0  18    3.55    0.57
  -2   0 -18    4.02    0.54
   3   0  18   -0.35    0.24
  -3   0 -18    0.02    0.35
  -3   0 -18   -0.38    0.41
   4   0  18    1.06    0.26
  -4   0 -18    0.41    0.41
  -5   0 -18    0.05    0.36
   5   0  18   -0.09    0.21
   6   0  18    2.78    0.28
  -6   0 -18    2.72    0.31
 -12  -1  18    6.33    0.53
  12   1 -18    5.36    0.57
  12   1 -18    6.58    0.49
 -12   1  18    4.55    0.54
  11  -1 -18    0.70    0.28
 -11  -1  18   -0.18    0.43
 -11  -1  18   -0.01    0.28
 -11   1  18    0.06    0.36
  11   1 -18   -0.28    0.47
 -11   1  18   -0.04    0.19
 -11   1  18   -0.70    0.51
  11   1 -18    0.17    0.31
 -10  -1  18    0.15    0.47
 -10   1  18    0.12    0.26
  10   1 -18    0.28    0.49
 -10   1  18    0.50    0.58
  10   1 -18   -0.14    0.35
 -10   1  18    0.27    0.36
  -9  -1  18    3.10    0.44
   9   1 -18    3.15    0.45
  -9   1  18    3.12    0.54
   9   1 -18    2.99    0.45
  -9   1  18    2.24    0.56
  -9   1  18    2.65    0.36
  -8  -1  18    0.00    0.49
  -8   1  18   -0.05    0.31
   8   1 -18   -0.28    0.39
  -8   1  18    0.15    0.44
  -8   1  18   -0.14    0.32
  -7  -1  18    0.69    0.51
  -7   1  18    0.58    0.33
   7   1 -18    0.54    0.41
  -6  -1  18    0.77    0.52
   6   1 -18   -0.13    0.42
  -6   1  18    0.07    0.33
   5   1 -18    1.94    0.37
  -5   1  18    2.18    0.40
  -4   1  18    2.02    0.52
   4   1 -18    1.91    0.48
   3   1 -18    0.38    0.44
  -3   1  18   -0.21    0.47
   2   1 -18    5.44    0.59
  -2   1  18    5.21    0.53
   1   1 -18    0.71    0.46
  -1   1  18    1.07    0.36
   0   1  18    0.23    0.45
   0   1 -18    0.54    0.31
  -1   1 -18    1.15    0.44
  -2  -1 -18    6.52    0.67
   2   1  18    8.15    0.77
   2   1  18    7.56    0.57
  -2   1 -18    6.59    0.61
  -2   1 -18    7.20    0.76
  -3  -1 -18    0.21    0.43
  -3   1 -18    0.89    0.57
   3   1  18    0.49    0.48
   3   1  18    0.55    0.23
  -3   1 -18    0.10    0.26
   4  -1  18   11.30    0.85
  -4  -1 -18    9.60    0.80
  -4   1 -18   11.56    1.03
   4   1  18   10.74    0.71
  -4   1 -18   13.03    0.82
  -4   1 -18   10.84    1.00
   5  -1  18    2.54    0.38
  -5  -1 -18    2.58    0.35
  -5   1 -18    3.34    0.33
   5   1  18    2.95    0.27
  -6  -1 -18    0.57    0.34
   6  -1  18    0.65    0.29
   6   1  18    0.86    0.15
  -6   1 -18    1.03    0.15
 -12   2  18    0.97    0.31
 -12   2  18    1.61    0.37
  12   2 -18    1.24    0.33
 -11   2  18   -0.14    0.33
  11   2 -18    0.31    0.32
 -11   2  18   -0.23    0.32
  11   2 -18   -0.35    0.30
 -10   2  18    0.21    0.38
 -10   2  18    0.47    0.38
  10   2 -18   -0.44    0.17
  10   2 -18   -0.41    0.34
  10   2 -18    0.17    0.51
  -9   2  18    1.18    0.45
  -9   2  18    1.58    0.55
  -9   2  18    1.51    0.18
   9   2 -18    1.35    0.40
   9   2 -18    1.75    0.42
   9   2 -18    1.28    0.29
  -8   2  18    7.93    0.58
  -8   2  18    7.03    0.72
   8   2 -18    7.29    0.79
   8   2 -18    7.29    0.54
  -8   2  18    8.30    0.76
   8   2 -18    6.28    0.76
   7   2 -18   10.66    1.04
   7   2 -18   11.37    0.79
  -7   2  18   11.69    1.11
  -7   2  18    9.95    0.75
   6   2 -18   15.02    1.25
  -6   2  18   15.11    0.97
  -6   2  18   15.02    1.17
   5   2 -18    9.78    0.89
  -5   2  18   10.73    0.99
  -5   2  18    9.61    0.77
   4   2 -18    5.07    0.48
  -4   2  18    4.53    0.60
  -4   2  18    3.99    0.46
   4   2 -18    3.35    0.69
   3   2 -18    2.83    0.68
  -3   2  18    4.64    0.73
  -3   2  18    4.14    0.45
   3   2 -18    4.10    0.45
  -2   2  18   -0.02    0.24
  -2   2  18    0.08    0.58
   2   2 -18    0.26    0.35
   2   2 -18    0.44    0.60
  -1   2  18    1.73    0.60
   1   2 -18    1.37    0.28
   1   2 -18    1.51    0.62
   0   2  18    0.73    0.56
   0   2 -18    0.77    0.50
   0   2 -18    0.96    0.43
   0   2 -18    0.67    0.32
   0   2  18    1.02    0.61
   0   2  18    0.72    0.25
   1   2  18    0.82    0.26
  -1   2 -18    0.67    0.67
   1   2  18    1.43    0.42
  -1   2 -18    0.78    0.30
   1   2  18    1.27    0.45
  -1   2 -18    2.44    0.59
   2   2  18    0.40    0.21
   2   2  18    0.83    0.50
   2   2  18    0.04    0.54
  -2   2 -18    0.69    0.40
  -2   2 -18   -0.58    0.45
  -2   2 -18    0.37    0.25
  -3   2 -18    0.64    0.60
  -3   2 -18    0.21    0.20
  -3   2 -18    0.01    0.51
   3   2  18   -0.65    0.32
   3   2  18   -0.31    0.32
   3   2  18    0.28    0.19
  -4   2 -18    1.99    0.43
   4   2  18    1.47    0.44
   4   2  18    2.03    0.49
  -4   2 -18    1.48    0.40
   4   2  18    1.90    0.17
   5   2  18    0.31    0.40
  -5   2 -18    0.82    0.36
  -6   2 -18    0.22    0.26
 -11   3  18    2.98    0.31
  11   3 -18    2.17    0.29
  11   3 -18    1.83    0.38
 -10   3  18    1.33    0.39
  10   3 -18    1.07    0.42
 -10   3  18    0.93    0.38
  10   3 -18    1.62    0.39
  -9   3  18   -0.51    0.50
   9   3 -18   -0.16    0.30
  -9   3  18   -0.12    0.36
  -9   3  18    0.13    0.31
   9   3 -18    0.08    0.38
  -8   3  18    4.93    0.55
  -8   3  18    4.56    0.61
  -8   3  18    4.99    0.57
   8   3 -18    5.53    0.64
   8   3 -18    5.77    0.60
   7   3 -18   11.62    0.98
  -7   3  18   12.41    0.95
  -7   3  18   12.34    1.12
  -7   3  18   13.40    1.02
   7   3 -18   11.34    0.92
  -6   3  18    0.02    0.50
   6   3 -18    0.38    0.52
  -6   3  18   -0.26    0.54
  -6   3  18    0.48    0.53
   6   3 -18   -0.06    0.40
   5   3 -18    2.52    0.69
   5   3 -18    3.22    0.47
  -5   3  18    3.55    0.70
  -5   3  18    2.83    0.47
  -5   3  18    2.18    0.58
   4   3 -18    0.88    0.67
  -4   3  18    1.06    0.40
  -4   3  18    1.59    0.57
  -4   3  18    0.84    0.63
   4   3 -18    0.60    0.57
  -3   3  18    4.44    0.77
   3   3 -18    2.83    0.79
  -3   3  18    4.84    0.53
   3   3 -18    3.98    0.65
  -2   3  18    0.54    0.48
  -2   3  18    1.70    0.53
   2   3 -18    0.69    0.55
   2   3 -18    2.11    0.54
   1   3 -18    0.40    0.52
   1   3 -18    0.48    0.49
  -1   3  18   -0.48    0.61
  -1   3  18    0.11    0.33
   0   3  18    6.29    0.86
   0   3 -18    9.27    0.84
   0   3  18    7.31    0.68
   0   3 -18    6.92    0.69
  -1   3 -18   -0.03    0.47
   1   3  18    0.50    0.45
  -1   3 -18    0.38    0.49
   1   3  18    0.40    0.42
  -2   3 -18    3.27    0.43
  -2   3 -18    3.75    0.58
   2   3  18    2.91    0.41
   2   3  18    2.48    0.63
  -3   3 -18    1.66    0.46
   3   3  18    1.14    0.49
   3   3  18    1.75    0.43
  -4   3 -18    3.27    0.36
   4   3  18    2.89    0.42
  -4   3 -18    2.10    0.40
   4   3  18    2.94    0.38
   5   3  18    0.87    0.21
  -5   3 -18    0.75    0.21
  -9   4  18    0.08    0.28
   9   4 -18    0.27    0.31
  -9   4  18    0.31    0.31
   9   4 -18    0.64    0.21
   8   4 -18    6.16    0.65
  -8   4  18    6.86    0.66
   8   4 -18    8.53    0.74
   8   4 -18    6.16    0.52
   7   4 -18    5.26    0.57
  -7   4  18    4.14    0.47
  -7   4  18    4.64    0.35
  -7   4  18    5.00    0.49
   7   4 -18    4.01    0.39
   7   4 -18    2.77    0.46
   6   4 -18    2.71    0.34
  -6   4  18    3.64    0.46
  -6   4  18    4.28    0.46
   6   4 -18    3.24    0.45
  -6   4  18    3.48    0.47
  -6   4  18    3.33    0.34
   6   4 -18    3.13    0.54
  -5   4  18    1.35    0.41
   5   4 -18    0.44    0.27
  -5   4  18    0.58    0.28
   5   4 -18    1.07    0.37
  -5   4  18    0.93    0.52
   5   4 -18    0.67    0.42
  -4   4  18   10.94    1.19
  -4   4  18   11.02    0.88
   4   4 -18   11.76    1.01
   4   4 -18   10.57    0.99
   3   4 -18    4.04    0.60
  -3   4  18    3.32    0.72
   3   4 -18    4.34    0.50
  -2   4  18   21.28    1.70
   2   4 -18   19.50    1.53
   2   4 -18   20.67    1.29
   2   4 -18   19.30    1.29
   1   4 -18    1.91    0.42
   1   4 -18    2.19    0.36
   1   4 -18    1.21    0.49
  -1   4  18    1.78    0.27
  -1   4  18    2.44    0.52
  -1   4  18    2.34    0.40
   0   4 -18    0.39    0.66
   0   4  18    0.82    0.27
   0   4 -18    0.46    0.21
   0   4  18    1.83    0.48
   0   4  18    0.84    0.36
   0   4 -18    0.57    0.50
   1   4  18   -0.45    0.41
   1   4  18   -0.06    0.44
  -1   4 -18   -0.09    0.42
  -1   4 -18   -0.33    0.32
   1   4  18   -0.05    0.17
  -2   4 -18    1.67    0.46
   2   4  18    1.43    0.33
  -2   4 -18    1.01    0.21
   2   4  18    1.63    0.21
   2   4  18    1.25    0.38
  -2   4 -18    0.63    0.45
   3   4  18    5.84    0.61
   6   5 -18    0.71    0.25
  -6   5  18    1.22    0.35
   5   5 -18    0.37    0.27
   3   5 -18    1.03    0.36
  -3   5  18    1.12    0.38
  -2   5  18    5.38    0.59
   2   5 -18    4.37    0.55
   2   5 -18    5.78    0.52
   1   5 -18   19.00    1.39
   0   5 -18    6.31    0.59
   0   5 -18    5.51    0.44
   0   5  18    4.09    0.56
   0   5  18    4.80    0.45
 -11   0  19    1.84    0.25
  10   0 -19    0.10    0.34
 -10   0  19    0.07    0.27
   9   0 -19    0.12    0.38
  -9   0  19    0.33    0.30
   8   0 -19   -0.24    0.28
  -8   0  19    0.02    0.46
   7   0 -19    3.15    0.39
  -7   0  19    2.86    0.42
  -6   0  19   -0.61    0.33
   6   0 -19    0.19    0.43
   5   0 -19    5.25    0.59
   4   0 -19   -0.26    0.30
   3   0 -19    4.50    0.47
  -3   0  19    4.04    0.60
  -2   0  19   -0.07    0.34
   2   0 -19   -0.12    0.31
  -1   0  19    3.37    0.45
   1   0 -19    4.03    0.45
   0   0 -19   -0.27    0.31
   0   0  19   -0.56    0.32
  -1   0 -19   48.63    2.73
  -2   0 -19    0.71    0.41
  -2   0 -19    0.29    0.37
   2   0  19   -0.15    0.31
   2   0  19    0.37    0.24
  -3   0 -19   22.76    1.61
  -4   0 -19   -0.19    0.32
   4   0  19    0.34    0.19
   5   0  19   21.46    1.16
  -5   0 -19   19.77    1.16
 -11  -1  19    1.10    0.27
  11   1 -19    0.97    0.20
 -10  -1  19    1.14    0.30
  10  -1 -19    0.80    0.35
 -10   1  19    0.00    0.49
  10   1 -19    0.86    0.28
 -10   1  19    0.82    0.20
  -9  -1  19   21.11    1.32
   9   1 -19   24.31    1.31
  -9   1  19   21.43    1.47
  -9   1  19   21.11    1.25
   8  -1 -19    6.98    0.66
  -8  -1  19    9.65    0.86
  -8   1  19    8.05    0.61
  -8   1  19    7.50    0.83
   8   1 -19    8.37    0.61
   7  -1 -19    3.18    0.46
  -7  -1  19    3.19    0.56
  -7   1  19    3.75    0.69
   7   1 -19    4.40    0.47
  -7   1  19    4.46    0.49
  -6  -1  19    3.96    0.57
  -6   1  19    3.19    0.39
  -6   1  19    2.40    0.66
  -5  -1  19    8.14    0.75
  -4  -1  19    0.47    0.36
   4   1 -19    0.43    0.40
  -3  -1  19    2.35    0.43
   3   1 -19    2.52    0.46
  -3   1  19    2.99    0.48
   2  -1 -19   10.66    0.82
  -2  -1  19    9.05    0.84
   2   1 -19   11.23    0.89
  -2   1  19   11.40    0.78
   1  -1 -19    2.79    0.41
  -1  -1  19    3.86    0.56
  -1   1  19    2.70    0.38
   1   1 -19    2.16    0.44
   0  -1  19    1.84    0.38
   0  -1 -19    1.63    0.36
   0   1 -19    1.60    0.30
  -1  -1 -19   15.16    1.11
   1  -1  19   13.68    1.01
  -1   1 -19   15.41    1.37
  -1   1 -19   15.20    1.01
   1   1  19   16.39    1.37
   1   1  19   15.19    0.97
  -2  -1 -19   28.29    1.75
   2   1  19   31.46    1.71
   2   1  19   30.76    2.18
  -2   1 -19   31.90    1.73
  -2   1 -19   28.52    2.14
  -2   1 -19   29.93    2.02
   3  -1  19    1.49    0.27
  -3  -1 -19    1.27    0.30
   3   1  19    1.26    0.32
  -3   1 -19    0.84    0.37
   3   1  19    1.40    0.21
  -3   1 -19    1.60    0.30
  -3   1 -19    1.80    0.38
   4  -1  19    1.56    0.25
  -4  -1 -19    1.88    0.28
  -4   1 -19    1.13    0.18
   4   1  19    0.94    0.15
  10   2 -19    0.85    0.42
 -10   2  19    1.80    0.35
  -9   2  19   -0.28    0.26
   9   2 -19    0.04    0.30
  -9   2  19    0.48    0.35
   8   2 -19   -0.30    0.48
   8   2 -19    0.01    0.14
  -8   2  19    0.16    0.35
   7   2 -19   -0.10    0.51
  -7   2  19    0.82    0.56
   7   2 -19   -0.31    0.33
  -7   2  19    0.01    0.34
   7   2 -19    0.08    0.20
  -6   2  19    0.48    0.57
  -6   2  19    0.37    0.41
   6   2 -19    0.29    0.54
   6   2 -19    0.25    0.26
  -6   2  19    0.51    0.18
  -5   2  19   -0.75    0.24
   5   2 -19   -0.16    0.38
  -5   2  19   -0.05    0.41
  -5   2  19   -0.02    0.39
  -4   2  19    2.22    0.62
   4   2 -19    2.19    0.62
  -3   2  19   19.35    1.39
  -3   2  19   19.78    1.59
   3   2 -19   22.05    1.20
   3   2 -19   20.18    1.39
   2   2 -19    0.13    0.25
  -2   2  19   -0.51    0.58
   2   2 -19   -0.11    0.46
  -2   2  19    0.21    0.37
   2   2 -19    0.33    0.40
  -1   2  19   19.45    1.47
   1   2 -19   17.58    1.43
  -1   2  19   19.09    1.27
  -1   2  19   18.54    1.04
   1   2 -19   17.52    1.06
   1   2 -19   18.26    1.27
   0   2  19    2.17    0.41
   0   2  19    1.60    0.20
   0   2 -19    2.24    0.56
   0   2 -19    1.55    0.21
   0   2 -19    1.95    0.52
   0   2  19    1.36    0.62
   1   2  19   -0.01    0.37
  -1   2 -19    0.28    0.14
   1   2  19   -0.31    0.46
   1   2  19    0.15    0.13
  -1   2 -19    0.43    0.44
  -1   2 -19    0.26    0.35
   2   2  19    0.35    0.31
  -2   2 -19    0.12    0.36
  -2   2 -19    0.36    0.35
   2   2  19    0.38    0.33
  -3   2 -19    8.24    0.75
   3   2  19    7.31    0.73
  -3   2 -19    8.77    0.68
   3   2  19    9.03    0.75
  -4   2 -19    8.97    0.64
   4   2  19    7.39    0.63
  -9   3  19    0.33    0.27
   9   3 -19    0.27    0.34
   8   3 -19   -0.24    0.26
  -8   3  19   -0.24    0.25
  -7   3  19   36.49    2.17
   7   3 -19   37.22    2.27
  -6   3  19    1.90    0.40
   6   3 -19    1.71    0.40
   6   3 -19    2.16    0.49
  -6   3  19    2.02    0.46
   5   3 -19    8.75    0.70
  -5   3  19    7.45    0.86
  -5   3  19   10.03    0.79
  -4   3  19    0.56    0.44
   4   3 -19    0.87    0.48
   4   3 -19    0.12    0.59
  -3   3  19    0.70    0.45
   3   3 -19   -0.09    0.63
   3   3 -19    0.70    0.35
   2   3 -19   -0.24    0.32
  -2   3  19    0.35    0.40
   2   3 -19   -0.36    0.44
  -2   3  19    0.27    0.43
  -1   3  19    1.66    0.47
  -1   3  19    3.08    0.52
   1   3 -19    3.48    0.55
   1   3 -19    2.50    0.50
   0   3  19    0.62    0.28
   0   3 -19    0.86    0.43
   0   3 -19    0.75    0.45
   0   3  19    0.42    0.56
  -1   3 -19    0.53    0.31
   1   3  19    1.61    0.30
  -1   3 -19    0.78    0.58
   1   3  19    1.35    0.40
  -2   3 -19    2.62    0.48
   2   3  19    2.76    0.40
   2   3  19    3.16    0.33
   3   3  19    6.27    0.50
  -3   3 -19    7.68    0.54
  -6   4  19    0.23    0.39
   6   4 -19    0.33    0.19
  -5   4  19    0.32    0.30
  -4   4  19    1.00    0.34
   4   4 -19    1.66    0.39
  -3   4  19    1.32    0.42
   3   4 -19    1.99    0.42
  -2   4  19    1.51    0.40
   2   4 -19    2.16    0.35
  -2   4  19    0.63    0.43
   2   4 -19    2.36    0.46
   2   4 -19    1.50    0.23
   1   4 -19    8.51    0.66
  -1   4  19    9.00    0.82
   1   4 -19    6.43    0.75
   0   4  19    0.31    0.35
   0   4 -19    0.12    0.35
  -9   0  20    0.04    0.22
   9   0 -20    0.27    0.30
   8   0 -20    0.47    0.24
  -8   0  20    0.15    0.27
  -7   0  20   -0.10    0.39
   7   0 -20   -0.01    0.35
  -6   0  20    5.40    0.55
  -3   0  20   -0.22    0.43
  -2   0  20    5.79    0.52
   2   0 -20    5.97    0.49
   1   0 -20   -0.50    0.27
  -1   0  20   -0.40    0.29
   0   0 -20    2.39    0.42
  -1   0 -20    0.13    0.24
   1   0  20   -0.05    0.40
   1   0  20   -0.17    0.18
  -1   0 -20    0.08    0.31
  -2   0 -20    4.33    0.42
   2   0  20    5.23    0.47
  -9  -1  20    0.19    0.24
   9   1 -20    0.19    0.18
  -8  -1  20    5.19    0.43
   8  -1 -20    3.71    0.38
  -8   1  20    2.55    0.45
  -8   1  20    5.54    0.36
   8   1 -20    4.67    0.38
  -7  -1  20    0.69    0.30
   7  -1 -20    0.36    0.38
  -7   1  20    0.63    0.19
  -7   1  20    0.81    0.51
   7   1 -20    0.37    0.30
   6  -1 -20   -0.21    0.39
  -6   1  20    0.21    0.28
   6   1 -20    0.47    0.32
  -6   1  20    0.24    0.52
   5  -1 -20    3.58    0.41
  -5   1  20    4.25    0.36
  -2  -1  20    3.56    0.52
   2  -1 -20    3.66    0.41
   2   1 -20    3.39    0.33
  -2   1  20    2.10    0.59
   1  -1 -20    0.04    0.28
  -1  -1  20    0.86    0.43
   1   1 -20    0.13    0.22
  -1   1  20   -0.12    0.49
  -1   1  20   -0.37    0.37
   0  -1 -20   12.02    0.84
   0   1  20   12.60    0.73
   0   1 -20   13.05    1.05
   0   1 -20   10.87    1.01
   0   1 -20   13.71    0.81
   0   1  20   11.27    1.05
  -1  -1 -20    2.41    0.41
   1   1  20    2.45    0.41
  -1   1 -20    1.28    0.36
   1   1  20    1.58    0.23
   1   1  20    3.28    0.41
  -1   1 -20    2.80    0.44
  -1   1 -20    1.82    0.21
  -2  -1 -20    9.82    0.69
  -2   1 -20   10.39    0.61
   2   1  20   10.28    0.60
   8   2 -20   14.09    0.96
  -7   2  20    0.03    0.30
   7   2 -20    0.27    0.44
  -6   2  20    2.66    0.39
   6   2 -20    1.27    0.36
   5   2 -20   -0.15    0.37
  -5   2  20    0.42    0.37
   4   2 -20    0.53    0.42
  -4   2  20    0.52    0.39
  -3   2  20   15.12    1.22
   2   2 -20    8.16    0.86
   2   2 -20    9.08    0.70
  -2   2  20    8.15    0.67
  -2   2  20    7.51    0.84
   1   2 -20    4.37    0.54
  -1   2  20    1.38    0.43
  -1   2  20    2.65    0.39
   1   2 -20    2.61    0.41
   0   2  20    0.59    0.30
   0   2 -20    0.37    0.32
   0   2 -20    0.95    0.56
   0   2  20    0.23    0.34
   1   2  20    0.84    0.30
  -1   2 -20    1.34    0.40
  -1   2 -20    1.40    0.30
   1   2  20    1.88    0.32
  -6   3  20    1.39    0.21
   6   3 -20    1.08    0.27
  -5   3  20    0.98    0.32
   5   3 -20    1.24    0.34
   4   3 -20   10.41    0.86
   3   3 -20   -0.05    0.34
  -3   3  20   -0.24    0.32
   2   3 -20    8.33    0.68
  -2   3  20   12.66    0.91
  -2   3  20   10.42    0.69
  -1   3  20   -0.05    0.32
   1   3 -20    0.07    0.21
  -1   3  20   -0.03    0.20
   1   3 -20    0.23    0.38
   2   0 -21    0.21    0.20
  -1   0  21    4.84    0.37
   1   0 -21    4.10    0.41
   1   0 -21    5.54    0.53
  -1   0  21    5.47    0.53
   6   1 -21    5.87    0.39
   5   1 -21    1.02    0.34
  -5   1  21    1.01    0.32
   4   1 -21   26.40    1.80
  -3  -1  21    1.37    0.29
  -3   1  21    1.66    0.39
   2  -1 -21   -0.11    0.25
  -2  -1  21    0.41    0.26
   2   1 -21    0.34    0.15
   2   1 -21    0.03    0.36
  -2   1  21    0.51    0.32
   1   1 -21    0.42    0.33
  -1   1  21    0.54    0.31
   0   0   0    0.00    0.00
;
_shelx_hkl_checksum   55381

