data_x15181 

# start Validation Reply Form
_vrf_PLAT041_x15181
;
PROBLEM: Calc. and Reported SumFormula    Strings  Differ     Please Check
RESPONSE: Disordered hydrogens on the disordered thiols could not be found.
;
_vrf_PLAT043_x15181
;
PROBLEM: Calculated and Reported Mol. Weight Differ by ..       2.01 Check 
RESPONSE: Disordered hydrogens on the disordered thiols could not be found.
;
# end Validation Reply Form
 
_audit_creation_method            'SHELXL-2014/7 and CIFFIX' 
# CIF edited on-the-fly by script CIFFIX (S. Parkin, 2000-2014). 
# CIFFIX: http://xray.uky.edu/people/parkin/programs/ciffix 
_audit_update_record              ? 
 
_shelx_SHELXL_version_number      '2014/7' 
 
_publ_section_exptl_refinement 
; 
H atoms were found in difference Fourier maps, but subsequently included 
in the refinement using riding models, with constrained distances set to 
0.95 %A (C~sp2~H), 0.98 %A (RCH~3~), 0.99 %A (R~2~CH~2~) and 1.00 %A 
(R~3~CH).  U~iso~(H) parameters were set to values of either 1.2U~eq~ or 
1.5U~eq~ (RCH~3~ only) of the attached atom. 

The thiol hydrogens could not be found, probably as a result of disorder 
of the -CH~2~SH group.
 
To ensure satisfactory refinement for disordered groups in the structure, 
a combination of constraints and restraints were employed. The constraints 
(SHELXL commands EXYZ and EADP) were used to fix overlapping fragments. 
Restraints were used to ensure the integrity of ill-defined or disordered 
groups (SHELXL commands SAME, FLAT, and RIGU). 
; 
 
_publ_section_references 
; 
Bruker-AXS (2006). 
  <i>APEX2</i> Bruker-AXS Inc., Madison, WI, USA. 
 
Hope, H. (1994). 
  <i>Prog. Inorg. Chem.</i> <b>41</b>, 1--19. 
 
Krause, L., Herbst-Irmer, R., Sheldrick, G.M. & Stalke, D. (2015). 
  <i>J. Appl. Cryst.</i> <b>48</b>, 3--10. 
 
Parkin, S. & Hope, H. (1998). 
  <i>J. Appl. Cryst.</i> <b>31</b>, 945--953. 
 
Parkin, S. (2000). 
  <i>Acta Cryst.</i> A<b>56</b>, 157--162. 
 
Parkin, S. (2013). 
  <i>CIFFIX</i>, http://xray.uky.edu/people/parkin/programs/ciffix 
 
Sheldrick, G.M. (2008). 
  <i>Acta Cryst.</i> A<b>64</b>, 112--122. 
 
Sheldrick, G.M. (2015a). 
  <i>Acta Cryst.</i> A<b>71</b>, 3--8. 
 
Sheldrick, G.M. (2015b). 
  <i>Acta Cryst.</i> C<b>71</b>, 3--8. 
 
Spek, A.L. (2009). 
  <i>Acta Cryst.</i> D<b>65</b>, 148--155. 
; 
 
_publ_section_acknowledgements 
; 
The X8 Proteum diffractometer was funded by the NSF (MRI CHE0319176, 70%), 
and by the University of Kentucky (cost share, 30%). 
; 
 
_chemical_name_systematic         ? 
_chemical_name_common             ? 
_chemical_melting_point           ? 
_chemical_formula_moiety          'C42 H54 S4 Si2' 
_chemical_formula_sum             'C42 H54 S4 Si2' 
_chemical_formula_weight          743.27 
 
loop_ 
 _atom_type_symbol 
 _atom_type_description 
 _atom_type_scat_dispersion_real 
 _atom_type_scat_dispersion_imag 
 _atom_type_scat_source 
 'C'  'C'   0.0181   0.0091 
 'International Tables Vol C Tables 4.2.6.8 and 6.1.1.4' 
 'H'  'H'   0.0000   0.0000 
 'International Tables Vol C Tables 4.2.6.8 and 6.1.1.4' 
 'Si'  'Si'   0.2541   0.3302 
 'International Tables Vol C Tables 4.2.6.8 and 6.1.1.4' 
 'S'  'S'   0.3331   0.5567 
 'International Tables Vol C Tables 4.2.6.8 and 6.1.1.4' 
 
_space_group_crystal_system       triclinic 
_space_group_IT_number            2 
_space_group_name_H-M_alt         'P -1' 
_space_group_name_Hall            '-P 1' 
 
_shelx_space_group_comment 
; 
The symmetry employed for this shelxl refinement is uniquely defined 
by the following loop, which should always be used as a source of 
symmetry information in preference to the above space-group names. 
They are only intended as comments. 
; 
 
loop_ 
 _space_group_symop_operation_xyz 
 'x, y, z' 
 '-x, -y, -z' 
 
_cell_length_a                    9.3558(5) 
_cell_length_b                    10.1554(6) 
_cell_length_c                    11.4777(7) 
_cell_angle_alpha                 109.424(4) 
_cell_angle_beta                  95.102(4) 
_cell_angle_gamma                 91.032(4) 
_cell_volume                      1023.06(11) 
_cell_formula_units_Z             1 
_cell_measurement_temperature     150(2) 
_cell_measurement_reflns_used     6884 
_cell_measurement_theta_min       4.11 
_cell_measurement_theta_max       68.12 
 
_exptl_crystal_description        plate 
_exptl_crystal_colour             red 
_exptl_crystal_density_meas       ? 
_exptl_crystal_density_method     ? 
_exptl_crystal_density_diffrn     1.206 
_exptl_crystal_F_000              398 
_exptl_transmission_factor_min    ? 
_exptl_transmission_factor_max    ? 
_exptl_crystal_size_max           0.230 
_exptl_crystal_size_mid           0.170 
_exptl_crystal_size_min           0.030 
_exptl_absorpt_coefficient_mu     2.896 
_shelx_estimated_absorpt_T_min    0.556 
_shelx_estimated_absorpt_T_max    0.918 
_exptl_absorpt_correction_type    multi-scan 
_exptl_absorpt_correction_T_min   0.592 
_exptl_absorpt_correction_T_max   0.795 
_exptl_absorpt_process_details    '<i>SADABS</i> (Krause et al., 2015)' 
_exptl_absorpt_special_details 
; 
In addition to absorption, multi-scan techniques also correct other slowly 
varying changes in scale factor over reciprocal space, such as those caused 
by x-ray beam inhomogeneity, goniometer imperfection, crystal decomposition, 
crystal longer than the x-ray beam cross section, absorption by the crystal 
mount etc.  These account, by and large, for much of the difference between 
estimated values of Tmin and Tmax and the _exptl_absorpt_correction_ values. 
; 
 
_exptl_special_details 
; 
The crystal was mounted using polyisobutene oil on the tip of a fine glass 
fibre, which was fastened in a copper mounting pin with electrical solder. 
It was placed directly into the cold gas stream of a liquid-nitrogen based 
cryostat (Hope, 1994; Parkin & Hope, 1998). 
 
The crystals underwent a destructive phase transition when cooled to 90K. 
Visual inspection of crystal integrity and diffraction quality vs temperature 
established a safe temperature for data collection of -123\% C. 
; 
 
_diffrn_ambient_temperature       150(2) 
_diffrn_radiation_wavelength      1.54178 
_diffrn_radiation_type            CuK\a 
_diffrn_source                    'fine-focus rotating anode' 
_diffrn_measurement_device_type   'Bruker X8 Proteum diffractometer' 
_diffrn_measurement_method        '\f and \w scans' 
_diffrn_detector_area_resol_mean  5.6 
_diffrn_reflns_number             13442 
_diffrn_reflns_av_unetI/netI      0.0408 
_diffrn_reflns_av_R_equivalents   0.0501 
_diffrn_reflns_limit_h_min        -11 
_diffrn_reflns_limit_h_max        4 
_diffrn_reflns_limit_k_min        -12 
_diffrn_reflns_limit_k_max        11 
_diffrn_reflns_limit_l_min        -13 
_diffrn_reflns_limit_l_max        13 
_diffrn_reflns_theta_min          4.105 
_diffrn_reflns_theta_max          68.170 
_diffrn_reflns_theta_full         67.679 
_diffrn_measured_fraction_theta_max                0.972 
_diffrn_measured_fraction_theta_full               0.977 
_diffrn_reflns_Laue_measured_fraction_max          0.972 
_diffrn_reflns_Laue_measured_fraction_full         0.977 
_diffrn_reflns_point_group_measured_fraction_max   0.972 
_diffrn_reflns_point_group_measured_fraction_full  0.977 
 
_reflns_number_total              3639 
_reflns_number_gt                 3010 
_reflns_threshold_expression      'I > 2\s(I)' 
_reflns_Friedel_coverage          0.000 
_reflns_Friedel_fraction_max      . 
_reflns_Friedel_fraction_full     . 
_reflns_special_details 
; 
Reflections were merged by SHELXL according to the crystal 
class for the calculation of statistics and refinement. 
 
_reflns_Friedel_fraction is defined as the number of unique 
Friedel pairs measured divided by the number that would be 
possible theoretically, ignoring centric projections and 
systematic absences. 
; 
 
_computing_data_collection        '<i>APEX2</i> (Bruker-AXS, 2006)' 
_computing_cell_refinement        '<i>APEX2</i> (Bruker-AXS, 2006)' 
_computing_data_reduction         '<i>APEX2</i> (Bruker-AXS, 2006)' 
_computing_structure_solution     '<i>SHELXT</i> (Sheldrick, 2015a)' 
_computing_structure_refinement   '<i>SHELXL-2014/7</i> (Sheldrick, 2015b)' 
_computing_molecular_graphics     '<i>XP in SHELXTL</i> (Sheldrick, 2008)' 
_computing_publication_material 
'<i>SHELX</i> (Sheldrick, 2008) and <i>CIFFIX</i> (Parkin, 2013)' 
 
_refine_special_details 
; 
Refinement progress was checked using <i>Platon</i> (Spek, 2009) and by 
an <i>R</i>-tensor (Parkin, 2000). The final model was further checked 
with the IUCr utility <i>checkCIF</i>. 
; 
_refine_ls_structure_factor_coef  Fsqd 
_refine_ls_matrix_type            full 
_refine_ls_weighting_scheme       calc 
_refine_ls_weighting_details 
'w=1/[\s^2^(Fo^2^)+(0.0679P)^2^+1.1478P] where P=(Fo^2^+2Fc^2^)/3' 
_atom_sites_solution_primary      direct 
_atom_sites_solution_secondary    difmap 
_atom_sites_solution_hydrogens    difmap 
_refine_ls_hydrogen_treatment     constr 
_refine_ls_extinction_method      none 
_refine_ls_extinction_coef        . 
_refine_ls_number_reflns          3639 
_refine_ls_number_parameters      239 
_refine_ls_number_restraints      109 
_refine_ls_R_factor_all           0.0688 
_refine_ls_R_factor_gt            0.0573 
_refine_ls_wR_factor_ref          0.1556 
_refine_ls_wR_factor_gt           0.1457 
_refine_ls_goodness_of_fit_ref    1.029 
_refine_ls_restrained_S_all       1.029 
_refine_ls_shift/su_max           0.000 
_refine_ls_shift/su_mean          0.000 
 
loop_ 
 _atom_site_label 
 _atom_site_type_symbol 
 _atom_site_fract_x 
 _atom_site_fract_y 
 _atom_site_fract_z 
 _atom_site_U_iso_or_equiv 
 _atom_site_adp_type 
 _atom_site_occupancy 
 _atom_site_site_symmetry_order 
 _atom_site_calc_flag 
 _atom_site_refinement_flags_posn 
 _atom_site_refinement_flags_adp 
 _atom_site_refinement_flags_occupancy 
 _atom_site_disorder_assembly 
 _atom_site_disorder_group 
Si1 Si 0.33637(7) 0.89842(7) 0.24483(7) 0.0305(2) Uani 1 1 d . . . . . 
C1 C 0.4584(3) 0.5984(3) 0.4429(2) 0.0372(6) Uani 1 1 d . . . . . 
C2 C 0.3669(3) 0.5671(3) 0.5233(2) 0.0365(6) Uani 1 1 d . . . . . 
C3 C 0.2350(3) 0.6319(3) 0.5480(3) 0.0404(7) Uani 1 1 d . . . . . 
H3 H 0.2058 0.6988 0.5105 0.049 Uiso 1 1 calc R U . A 1 
C4 C 0.1496(3) 0.5987(3) 0.6255(2) 0.0393(6) Uani 0.587(4) 1 d D U P B 1 
S5 S -0.01715(18) 0.66911(16) 0.66611(16) 0.0455(5) Uani 0.587(4) 1 d D U P B 1 
C6 C -0.0339(6) 0.5622(8) 0.7576(6) 0.0441(14) Uani 0.587(4) 1 d D U P B 1 
C7 C 0.0804(11) 0.4822(9) 0.7543(7) 0.0470(7) Uani 0.587(4) 1 d D U P B 1 
H7 H 0.0866 0.4182 0.7988 0.056 Uiso 0.587(4) 1 calc R U P B 1 
C8 C 0.1912(3) 0.4971(3) 0.6819(2) 0.0409(6) Uani 0.587(4) 1 d D U P B 1 
C22 C -0.1679(7) 0.5643(8) 0.8203(7) 0.0568(16) Uani 0.587(4) 1 d D U P B 1 
H22A H -0.1783 0.4764 0.8391 0.068 Uiso 0.587(4) 1 calc R U P B 1 
H22B H -0.2517 0.5674 0.7625 0.068 Uiso 0.587(4) 1 calc R U P B 1 
S1 S -0.170(2) 0.711(2) 0.9629(11) 0.078(3) Uani 0.587(4) 1 d D U P B 1 
C4' C 0.1496(3) 0.5987(3) 0.6255(2) 0.0393(6) Uani 0.413(4) 1 d D U P B 2 
C5' C 0.0129(11) 0.6404(9) 0.6617(9) 0.0455(5) Uani 0.413(4) 1 d D U P B 2 
H5' H -0.0368 0.7065 0.6333 0.055 Uiso 0.413(4) 1 calc R U P B 2 
S7' S 0.0718(4) 0.4661(3) 0.7780(2) 0.0470(7) Uani 0.413(4) 1 d D U P B 2 
C6' C -0.0443(8) 0.5830(11) 0.7379(9) 0.0441(14) Uani 0.413(4) 1 d D U P B 2 
C8' C 0.1912(3) 0.4971(3) 0.6819(2) 0.0409(6) Uani 0.413(4) 1 d D U P B 2 
C22' C -0.1844(10) 0.6043(12) 0.7920(11) 0.0568(16) Uani 0.413(4) 1 d D U P B 2 
H22C H -0.2372 0.5125 0.7701 0.068 Uiso 0.413(4) 1 calc R U P B 2 
H22D H -0.2425 0.6631 0.7544 0.068 Uiso 0.413(4) 1 calc R U P B 2 
S1' S -0.166(3) 0.686(3) 0.9589(16) 0.078(3) Uani 0.413(4) 1 d D U P B 2 
C9 C 0.3190(3) 0.4352(3) 0.6617(3) 0.0412(7) Uani 1 1 d . . . . . 
H9 H 0.3473 0.3705 0.7020 0.049 Uiso 1 1 calc R U . B 1 
C10 C 0.4101(3) 0.4665(3) 0.5814(2) 0.0367(6) Uani 1 1 d . . . . . 
C11 C 0.4163(3) 0.6981(3) 0.3843(2) 0.0388(6) Uani 1 1 d . . . . . 
C12 C 0.3829(3) 0.7800(3) 0.3327(3) 0.0371(6) Uani 1 1 d . . . . . 
C13 C 0.4986(3) 1.0215(3) 0.2694(3) 0.0435(7) Uani 1 1 d . . . . . 
H13 H 0.5212 1.0637 0.3614 0.052 Uiso 1 1 calc R U . . . 
C14 C 0.6326(4) 0.9512(4) 0.2213(4) 0.0597(9) Uani 1 1 d . . . . . 
H14A H 0.6206 0.9163 0.1304 0.090 Uiso 1 1 calc R U . . . 
H14B H 0.6492 0.8730 0.2520 0.090 Uiso 1 1 calc R U . . . 
H14C H 0.7150 1.0189 0.2504 0.090 Uiso 1 1 calc R U . . . 
C15 C 0.4669(4) 1.1443(3) 0.2232(3) 0.0501(8) Uani 1 1 d . . . . . 
H15A H 0.5530 1.2068 0.2409 0.075 Uiso 1 1 calc R U . . . 
H15B H 0.3883 1.1959 0.2656 0.075 Uiso 1 1 calc R U . . . 
H15C H 0.4391 1.1087 0.1335 0.075 Uiso 1 1 calc R U . . . 
C16 C 0.2778(3) 0.7806(3) 0.0814(3) 0.0402(6) Uani 1 1 d . . . . . 
H16 H 0.1906 0.7257 0.0874 0.048 Uiso 1 1 calc R U . . . 
C17 C 0.3863(4) 0.6721(4) 0.0247(3) 0.0595(9) Uani 1 1 d . . . . . 
H17A H 0.3425 0.6058 -0.0542 0.089 Uiso 1 1 calc R U . . . 
H17B H 0.4141 0.6217 0.0820 0.089 Uiso 1 1 calc R U . . . 
H17C H 0.4716 0.7195 0.0101 0.089 Uiso 1 1 calc R U . . . 
C18 C 0.2287(4) 0.8612(4) -0.0049(3) 0.0540(8) Uani 1 1 d . . . . . 
H18A H 0.3110 0.9149 -0.0168 0.081 Uiso 1 1 calc R U . . . 
H18B H 0.1551 0.9252 0.0320 0.081 Uiso 1 1 calc R U . . . 
H18C H 0.1885 0.7953 -0.0854 0.081 Uiso 1 1 calc R U . . . 
C19 C 0.1836(3) 1.0023(3) 0.3162(3) 0.0398(6) Uani 1 1 d . . . . . 
H19 H 0.1619 1.0702 0.2716 0.048 Uiso 1 1 calc R U . . . 
C20 C 0.0468(4) 0.9125(5) 0.3025(4) 0.0651(10) Uani 1 1 d . . . . . 
H20A H 0.0662 0.8407 0.3407 0.098 Uiso 1 1 calc R U . . . 
H20B H 0.0144 0.8676 0.2142 0.098 Uiso 1 1 calc R U . . . 
H20C H -0.0281 0.9715 0.3438 0.098 Uiso 1 1 calc R U . . . 
C21 C 0.2242(4) 1.0867(4) 0.4527(3) 0.0542(8) Uani 1 1 d . . . . . 
H21A H 0.1428 1.1407 0.4868 0.081 Uiso 1 1 calc R U . . . 
H21B H 0.3070 1.1505 0.4604 0.081 Uiso 1 1 calc R U . . . 
H21C H 0.2489 1.0230 0.4987 0.081 Uiso 1 1 calc R U . . . 
 
loop_ 
 _atom_site_aniso_label 
 _atom_site_aniso_U_11 
 _atom_site_aniso_U_22 
 _atom_site_aniso_U_33 
 _atom_site_aniso_U_23 
 _atom_site_aniso_U_13 
 _atom_site_aniso_U_12 
Si1 0.0332(4) 0.0285(4) 0.0332(4) 0.0141(3) 0.0046(3) 0.0074(3) 
C1 0.0595(17) 0.0213(12) 0.0280(13) 0.0064(10) -0.0034(12) 0.0058(11) 
C2 0.0565(17) 0.0208(12) 0.0273(13) 0.0036(10) -0.0052(11) 0.0062(11) 
C3 0.0581(18) 0.0274(14) 0.0331(14) 0.0088(11) -0.0053(12) 0.0088(12) 
C4 0.0530(16) 0.0265(13) 0.0326(14) 0.0043(11) -0.0048(12) 0.0061(11) 
S5 0.0534(10) 0.0348(9) 0.0454(7) 0.0104(6) -0.0004(6) 0.0099(6) 
C6 0.0499(18) 0.037(2) 0.041(2) 0.0100(18) -0.0053(16) 0.0034(15) 
C7 0.0564(10) 0.0358(10) 0.0529(14) 0.0196(8) 0.0073(9) 0.0055(7) 
C8 0.0616(17) 0.0250(13) 0.0316(14) 0.0049(11) -0.0012(12) 0.0037(12) 
C22 0.057(3) 0.046(4) 0.066(4) 0.018(2) 0.004(2) 0.002(2) 
S1 0.0629(10) 0.090(7) 0.0670(9) 0.0061(16) 0.0166(7) 0.006(3) 
C4' 0.0530(16) 0.0265(13) 0.0326(14) 0.0043(11) -0.0048(12) 0.0061(11) 
C5' 0.0534(10) 0.0348(9) 0.0454(7) 0.0104(6) -0.0004(6) 0.0099(6) 
S7' 0.0564(10) 0.0358(10) 0.0529(14) 0.0196(8) 0.0073(9) 0.0055(7) 
C6' 0.0499(18) 0.037(2) 0.041(2) 0.0100(18) -0.0053(16) 0.0034(15) 
C8' 0.0616(17) 0.0250(13) 0.0316(14) 0.0049(11) -0.0012(12) 0.0037(12) 
C22' 0.057(3) 0.046(4) 0.066(4) 0.018(2) 0.004(2) 0.002(2) 
S1' 0.0629(10) 0.090(7) 0.0670(9) 0.0061(16) 0.0166(7) 0.006(3) 
C9 0.0641(19) 0.0245(13) 0.0339(14) 0.0090(11) 0.0017(13) 0.0089(12) 
C10 0.0586(17) 0.0205(12) 0.0269(13) 0.0044(10) -0.0033(11) 0.0063(11) 
C11 0.0544(17) 0.0280(14) 0.0326(14) 0.0087(12) 0.0010(12) 0.0084(12) 
C12 0.0463(16) 0.0301(14) 0.0354(14) 0.0114(12) 0.0031(12) 0.0086(11) 
C13 0.0411(16) 0.0457(17) 0.0457(16) 0.0184(14) 0.0025(12) 0.0028(12) 
C14 0.0429(18) 0.073(2) 0.072(2) 0.035(2) 0.0118(16) 0.0074(16) 
C15 0.0579(19) 0.0411(17) 0.0525(19) 0.0184(15) 0.0029(15) -0.0068(14) 
C16 0.0455(16) 0.0393(16) 0.0364(15) 0.0136(12) 0.0044(12) 0.0016(12) 
C17 0.068(2) 0.057(2) 0.0436(18) 0.0016(16) 0.0098(16) 0.0110(17) 
C18 0.067(2) 0.056(2) 0.0394(17) 0.0196(15) -0.0040(15) -0.0083(16) 
C19 0.0400(15) 0.0415(16) 0.0429(16) 0.0191(13) 0.0089(12) 0.0137(12) 
C20 0.0394(17) 0.088(3) 0.061(2) 0.015(2) 0.0126(15) 0.0031(17) 
C21 0.059(2) 0.0485(19) 0.0503(19) 0.0075(15) 0.0170(15) 0.0117(15) 
 
_geom_special_details 
; 
 All esds (except the esd in the dihedral angle between two l.s. planes) 
 are estimated using the full covariance matrix.  The cell esds are taken 
 into account individually in the estimation of esds in distances, angles 
 and torsion angles; correlations between esds in cell parameters are only 
 used when they are defined by crystal symmetry.  An approximate (isotropic) 
 treatment of cell esds is used for estimating esds involving l.s. planes. 
; 
 
loop_ 
 _geom_bond_atom_site_label_1 
 _geom_bond_atom_site_label_2 
 _geom_bond_distance 
 _geom_bond_site_symmetry_2 
 _geom_bond_publ_flag 
Si1 C12 1.844(3) . ? 
Si1 C19 1.875(3) . ? 
Si1 C16 1.884(3) . ? 
Si1 C13 1.888(3) . ? 
C1 C10 1.411(4) 2_666 ? 
C1 C2 1.418(4) . ? 
C1 C11 1.434(4) . ? 
C2 C3 1.416(4) . ? 
C2 C10 1.441(4) . ? 
C3 C4' 1.363(4) . ? 
C3 C4 1.363(4) . ? 
C3 H3 0.9500 . ? 
C4 C8 1.431(4) . ? 
C4 S5 1.764(3) . ? 
S5 C6 1.757(8) . ? 
C6 C7 1.350(13) . ? 
C6 C22 1.497(6) . ? 
C7 C8 1.421(10) . ? 
C7 H7 0.9500 . ? 
C8 C9 1.363(4) . ? 
C22 S1 1.811(9) . ? 
C22 H22A 0.9900 . ? 
C22 H22B 0.9900 . ? 
C4' C5' 1.409(10) . ? 
C4' C8' 1.431(4) . ? 
C5' C6' 1.344(14) . ? 
C5' H5' 0.9500 . ? 
S7' C8' 1.733(4) . ? 
S7' C6' 1.766(11) . ? 
C6' C22' 1.488(8) . ? 
C8' C9 1.363(4) . ? 
C22' S1' 1.808(10) . ? 
C22' H22C 0.9900 . ? 
C22' H22D 0.9900 . ? 
C9 C10 1.414(4) . ? 
C9 H9 0.9500 . ? 
C10 C1 1.411(4) 2_666 ? 
C11 C12 1.201(4) . ? 
C13 C14 1.510(4) . ? 
C13 C15 1.533(4) . ? 
C13 H13 1.0000 . ? 
C14 H14A 0.9800 . ? 
C14 H14B 0.9800 . ? 
C14 H14C 0.9800 . ? 
C15 H15A 0.9800 . ? 
C15 H15B 0.9800 . ? 
C15 H15C 0.9800 . ? 
C16 C18 1.529(4) . ? 
C16 C17 1.532(4) . ? 
C16 H16 1.0000 . ? 
C17 H17A 0.9800 . ? 
C17 H17B 0.9800 . ? 
C17 H17C 0.9800 . ? 
C18 H18A 0.9800 . ? 
C18 H18B 0.9800 . ? 
C18 H18C 0.9800 . ? 
C19 C20 1.523(5) . ? 
C19 C21 1.524(4) . ? 
C19 H19 1.0000 . ? 
C20 H20A 0.9800 . ? 
C20 H20B 0.9800 . ? 
C20 H20C 0.9800 . ? 
C21 H21A 0.9800 . ? 
C21 H21B 0.9800 . ? 
C21 H21C 0.9800 . ? 
 
loop_ 
 _geom_angle_atom_site_label_1 
 _geom_angle_atom_site_label_2 
 _geom_angle_atom_site_label_3 
 _geom_angle 
 _geom_angle_site_symmetry_1 
 _geom_angle_site_symmetry_3 
 _geom_angle_publ_flag 
C12 Si1 C19 107.39(13) . . ? 
C12 Si1 C16 105.36(13) . . ? 
C19 Si1 C16 110.73(13) . . ? 
C12 Si1 C13 106.47(13) . . ? 
C19 Si1 C13 108.62(14) . . ? 
C16 Si1 C13 117.69(14) . . ? 
C10 C1 C2 121.8(2) 2_666 . ? 
C10 C1 C11 119.0(3) 2_666 . ? 
C2 C1 C11 119.2(3) . . ? 
C3 C2 C1 122.0(2) . . ? 
C3 C2 C10 119.2(3) . . ? 
C1 C2 C10 118.7(3) . . ? 
C4' C3 C2 120.3(3) . . ? 
C4 C3 C2 120.3(3) . . ? 
C4 C3 H3 119.9 . . ? 
C2 C3 H3 119.9 . . ? 
C3 C4 C8 120.6(2) . . ? 
C3 C4 S5 126.1(2) . . ? 
C8 C4 S5 113.3(2) . . ? 
C6 S5 C4 90.0(2) . . ? 
C7 C6 C22 129.3(7) . . ? 
C7 C6 S5 111.3(5) . . ? 
C22 C6 S5 119.2(5) . . ? 
C6 C7 C8 117.6(7) . . ? 
C6 C7 H7 121.2 . . ? 
C8 C7 H7 121.2 . . ? 
C9 C8 C7 131.9(5) . . ? 
C9 C8 C4 120.3(3) . . ? 
C7 C8 C4 107.8(5) . . ? 
C6 C22 S1 113.4(6) . . ? 
C6 C22 H22A 108.9 . . ? 
S1 C22 H22A 108.9 . . ? 
C6 C22 H22B 108.9 . . ? 
S1 C22 H22B 108.9 . . ? 
H22A C22 H22B 107.7 . . ? 
C3 C4' C5' 132.5(5) . . ? 
C3 C4' C8' 120.6(2) . . ? 
C5' C4' C8' 106.8(5) . . ? 
C6' C5' C4' 117.3(8) . . ? 
C6' C5' H5' 121.4 . . ? 
C4' C5' H5' 121.4 . . ? 
C8' S7' C6' 88.6(3) . . ? 
C5' C6' C22' 130.4(9) . . ? 
C5' C6' S7' 111.9(6) . . ? 
C22' C6' S7' 117.7(7) . . ? 
C9 C8' C4' 120.3(3) . . ? 
C9 C8' S7' 124.4(2) . . ? 
C4' C8' S7' 115.2(2) . . ? 
C6' C22' S1' 113.3(9) . . ? 
C6' C22' H22C 108.9 . . ? 
S1' C22' H22C 108.9 . . ? 
C6' C22' H22D 108.9 . . ? 
S1' C22' H22D 108.9 . . ? 
H22C C22' H22D 107.7 . . ? 
C8' C9 C10 120.7(3) . . ? 
C8 C9 C10 120.7(3) . . ? 
C8 C9 H9 119.6 . . ? 
C10 C9 H9 119.6 . . ? 
C1 C10 C9 121.7(2) 2_666 . ? 
C1 C10 C2 119.4(3) 2_666 . ? 
C9 C10 C2 118.8(3) . . ? 
C12 C11 C1 178.4(3) . . ? 
C11 C12 Si1 176.4(2) . . ? 
C14 C13 C15 111.6(3) . . ? 
C14 C13 Si1 114.6(2) . . ? 
C15 C13 Si1 112.6(2) . . ? 
C14 C13 H13 105.7 . . ? 
C15 C13 H13 105.7 . . ? 
Si1 C13 H13 105.7 . . ? 
C13 C14 H14A 109.5 . . ? 
C13 C14 H14B 109.5 . . ? 
H14A C14 H14B 109.5 . . ? 
C13 C14 H14C 109.5 . . ? 
H14A C14 H14C 109.5 . . ? 
H14B C14 H14C 109.5 . . ? 
C13 C15 H15A 109.5 . . ? 
C13 C15 H15B 109.5 . . ? 
H15A C15 H15B 109.5 . . ? 
C13 C15 H15C 109.5 . . ? 
H15A C15 H15C 109.5 . . ? 
H15B C15 H15C 109.5 . . ? 
C18 C16 C17 111.8(3) . . ? 
C18 C16 Si1 112.9(2) . . ? 
C17 C16 Si1 114.2(2) . . ? 
C18 C16 H16 105.7 . . ? 
C17 C16 H16 105.7 . . ? 
Si1 C16 H16 105.7 . . ? 
C16 C17 H17A 109.5 . . ? 
C16 C17 H17B 109.5 . . ? 
H17A C17 H17B 109.5 . . ? 
C16 C17 H17C 109.5 . . ? 
H17A C17 H17C 109.5 . . ? 
H17B C17 H17C 109.5 . . ? 
C16 C18 H18A 109.5 . . ? 
C16 C18 H18B 109.5 . . ? 
H18A C18 H18B 109.5 . . ? 
C16 C18 H18C 109.5 . . ? 
H18A C18 H18C 109.5 . . ? 
H18B C18 H18C 109.5 . . ? 
C20 C19 C21 109.7(3) . . ? 
C20 C19 Si1 113.0(2) . . ? 
C21 C19 Si1 111.5(2) . . ? 
C20 C19 H19 107.4 . . ? 
C21 C19 H19 107.4 . . ? 
Si1 C19 H19 107.4 . . ? 
C19 C20 H20A 109.5 . . ? 
C19 C20 H20B 109.5 . . ? 
H20A C20 H20B 109.5 . . ? 
C19 C20 H20C 109.5 . . ? 
H20A C20 H20C 109.5 . . ? 
H20B C20 H20C 109.5 . . ? 
C19 C21 H21A 109.5 . . ? 
C19 C21 H21B 109.5 . . ? 
H21A C21 H21B 109.5 . . ? 
C19 C21 H21C 109.5 . . ? 
H21A C21 H21C 109.5 . . ? 
H21B C21 H21C 109.5 . . ? 
 
loop_ 
 _geom_torsion_atom_site_label_1 
 _geom_torsion_atom_site_label_2 
 _geom_torsion_atom_site_label_3 
 _geom_torsion_atom_site_label_4 
 _geom_torsion 
 _geom_torsion_site_symmetry_1 
 _geom_torsion_site_symmetry_2 
 _geom_torsion_site_symmetry_3 
 _geom_torsion_site_symmetry_4 
 _geom_torsion_publ_flag 
C10 C1 C2 C3 180.0(2) 2_666 . . . ? 
C11 C1 C2 C3 -0.3(4) . . . . ? 
C10 C1 C2 C10 0.1(4) 2_666 . . . ? 
C11 C1 C2 C10 179.8(2) . . . . ? 
C1 C2 C3 C4' 179.8(2) . . . . ? 
C10 C2 C3 C4' -0.4(4) . . . . ? 
C1 C2 C3 C4 179.8(2) . . . . ? 
C10 C2 C3 C4 -0.4(4) . . . . ? 
C2 C3 C4 C8 -0.6(4) . . . . ? 
C2 C3 C4 S5 -180.0(2) . . . . ? 
C3 C4 S5 C6 178.8(4) . . . . ? 
C8 C4 S5 C6 -0.53(13) . . . . ? 
C4 S5 C6 C7 0.04(15) . . . . ? 
C4 S5 C6 C22 -176.8(6) . . . . ? 
C22 C6 C7 C8 176.9(7) . . . . ? 
S5 C6 C7 C8 0.5(3) . . . . ? 
C6 C7 C8 C9 178.5(3) . . . . ? 
C6 C7 C8 C4 -0.9(3) . . . . ? 
C3 C4 C8 C9 2.0(4) . . . . ? 
S5 C4 C8 C9 -178.6(2) . . . . ? 
C3 C4 C8 C7 -178.5(4) . . . . ? 
S5 C4 C8 C7 0.8(3) . . . . ? 
C7 C6 C22 S1 103.2(11) . . . . ? 
S5 C6 C22 S1 -80.6(10) . . . . ? 
C2 C3 C4' C5' -176.5(4) . . . . ? 
C2 C3 C4' C8' -0.6(4) . . . . ? 
C3 C4' C5' C6' 177.7(3) . . . . ? 
C8' C4' C5' C6' 1.35(19) . . . . ? 
C4' C5' C6' C22' -179.8(10) . . . . ? 
C4' C5' C6' S7' 0.95(19) . . . . ? 
C8' S7' C6' C5' -2.3(2) . . . . ? 
C8' S7' C6' C22' 178.4(8) . . . . ? 
C3 C4' C8' C9 2.0(4) . . . . ? 
C5' C4' C8' C9 178.9(4) . . . . ? 
C3 C4' C8' S7' 180.0(2) . . . . ? 
C5' C4' C8' S7' -3.2(3) . . . . ? 
C6' S7' C8' C9 -178.9(4) . . . . ? 
C6' S7' C8' C4' 3.2(3) . . . . ? 
C5' C6' C22' S1' -114.1(15) . . . . ? 
S7' C6' C22' S1' 65.1(17) . . . . ? 
C4' C8' C9 C10 -2.3(4) . . . . ? 
S7' C8' C9 C10 179.9(2) . . . . ? 
C7 C8 C9 C10 178.4(4) . . . . ? 
C4 C8 C9 C10 -2.3(4) . . . . ? 
C8' C9 C10 C1 -178.7(3) . . . 2_666 ? 
C8 C9 C10 C1 -178.7(3) . . . 2_666 ? 
C8' C9 C10 C2 1.3(4) . . . . ? 
C8 C9 C10 C2 1.3(4) . . . . ? 
C3 C2 C10 C1 -180.0(2) . . . 2_666 ? 
C1 C2 C10 C1 -0.1(4) . . . 2_666 ? 
C3 C2 C10 C9 0.1(4) . . . . ? 
C1 C2 C10 C9 179.9(2) . . . . ? 
C12 Si1 C13 C14 62.1(3) . . . . ? 
C19 Si1 C13 C14 177.5(2) . . . . ? 
C16 Si1 C13 C14 -55.7(3) . . . . ? 
C12 Si1 C13 C15 -168.8(2) . . . . ? 
C19 Si1 C13 C15 -53.5(3) . . . . ? 
C16 Si1 C13 C15 73.3(3) . . . . ? 
C12 Si1 C16 C18 177.7(2) . . . . ? 
C19 Si1 C16 C18 61.9(3) . . . . ? 
C13 Si1 C16 C18 -63.9(3) . . . . ? 
C12 Si1 C16 C17 -53.1(3) . . . . ? 
C19 Si1 C16 C17 -169.0(2) . . . . ? 
C13 Si1 C16 C17 65.3(3) . . . . ? 
C12 Si1 C19 C20 -64.8(3) . . . . ? 
C16 Si1 C19 C20 49.8(3) . . . . ? 
C13 Si1 C19 C20 -179.5(2) . . . . ? 
C12 Si1 C19 C21 59.4(2) . . . . ? 
C16 Si1 C19 C21 174.0(2) . . . . ? 
C13 Si1 C19 C21 -55.4(2) . . . . ? 
 
_refine_diff_density_max    0.909 
_refine_diff_density_min   -0.447 
_refine_diff_density_rms    0.064 
 
_shelx_res_file 
; 
 
    x15181.res created by SHELXL-2014/7 
 
 
TITL x15181_a.res in P-1 
REM Old TITL x15181 in P-1 
 
REM SHELXT solution in P-1 
REM R1 0.182,  Rweak 0.008,  Alpha 0.049,  Orientation as input 
REM Formula found by SHELXT:  C21 Si S2 
 
CELL  1.54178   9.3558  10.1554  11.4777  109.424   95.102   91.032 
ZERR    1.000   0.0005   0.0006   0.0007    0.004    0.004    0.004 
LATT  1 
SFAC C H SI S 
UNIT 42 54 2 4 
TEMP -123.000 
SIZE 0.23 0.17 0.03 
REM COLR red 
REM FORM plate 
ACTA 
L.S. 50 
BOND $H 
CONF 
HTAB 
LIST 4 
FMAP 2 
PLAN 5 
WGHT    0.067900    1.147800 
FVAR       0.21414   0.58659 
SI1   3    0.336368    0.898416    0.244833    11.00000    0.03316    0.02851 = 
         0.03319    0.01405    0.00462    0.00736 
C1    1    0.458441    0.598367    0.442901    11.00000    0.05954    0.02126 = 
         0.02796    0.00640   -0.00342    0.00578 
C2    1    0.366891    0.567136    0.523262    11.00000    0.05647    0.02080 = 
         0.02725    0.00361   -0.00520    0.00623 
C3    1    0.234969    0.631924    0.548043    11.00000    0.05814    0.02740 = 
         0.03308    0.00881   -0.00529    0.00878 
AFIX  43 
H3    2    0.205782    0.698842    0.510506    11.00000   -1.20000 
AFIX   0 
EXYZ C4 C4' 
EXYZ C8 C8' 
EADP C4 C4' 
EADP S5 C5' 
EADP C6 C6' 
EADP C7 S7' 
EADP C8 C8' 
EADP C22 C22' 
EADP S1 S1' 
SAME 0.010 C8' S7' C6' C5' C4' C22' S1' 
FLAT 0.010 C4 S5 C6 C7 C8 
FLAT 0.010 C4' C5' C6' S7' C8' 
RIGU C4 > S1 
RIGU C4' > S1' 
PART 1 
C4    1    0.149632    0.598697    0.625543    21.00000    0.05300    0.02646 = 
         0.03263    0.00431   -0.00482    0.00614 
S5    4   -0.017150    0.669110    0.666106    21.00000    0.05342    0.03477 = 
         0.04539    0.01037   -0.00044    0.00993 
C6    1   -0.033884    0.562194    0.757617    21.00000    0.04987    0.03740 = 
         0.04079    0.01003   -0.00527    0.00345 
C7    1    0.080431    0.482169    0.754320    21.00000    0.05637    0.03581 = 
         0.05293    0.01961    0.00730    0.00551 
AFIX  43 
H7    2    0.086570    0.418226    0.798817    21.00000   -1.20000 
AFIX   0 
C8    1    0.191192    0.497062    0.681895    21.00000    0.06164    0.02503 = 
         0.03160    0.00494   -0.00121    0.00372 
C22   1   -0.167893    0.564251    0.820347    21.00000    0.05683    0.04590 = 
         0.06648    0.01771    0.00413    0.00234 
AFIX  23 
H22A  2   -0.178255    0.476368    0.839056    21.00000   -1.20000 
H22B  2   -0.251726    0.567439    0.762467    21.00000   -1.20000 
AFIX   0 
S1    4   -0.169643    0.710929    0.962922    21.00000    0.06294    0.09045 = 
         0.06702    0.00609    0.01665    0.00554 
PART 2 
C4'   1    0.149632    0.598697    0.625543   -21.00000    0.05300    0.02646 = 
         0.03263    0.00431   -0.00482    0.00614 
C5'   1    0.012920    0.640436    0.661696   -21.00000    0.05342    0.03477 = 
         0.04539    0.01037   -0.00044    0.00993 
AFIX  43 
H5'   2   -0.036779    0.706528    0.633317   -21.00000   -1.20000 
AFIX   0 
S7'   4    0.071751    0.466071    0.778021   -21.00000    0.05637    0.03581 = 
         0.05293    0.01961    0.00730    0.00551 
C6'   1   -0.044309    0.582955    0.737950   -21.00000    0.04987    0.03740 = 
         0.04079    0.01003   -0.00527    0.00345 
C8'   1    0.191192    0.497062    0.681895   -21.00000    0.06164    0.02503 = 
         0.03160    0.00494   -0.00121    0.00372 
C22'  1   -0.184416    0.604263    0.791988   -21.00000    0.05683    0.04590 = 
         0.06648    0.01771    0.00413    0.00234 
AFIX  23 
H22C  2   -0.237157    0.512536    0.770110   -21.00000   -1.20000 
H22D  2   -0.242506    0.663080    0.754367   -21.00000   -1.20000 
AFIX   0 
S1'   4   -0.165933    0.686156    0.958887   -21.00000    0.06294    0.09045 = 
         0.06702    0.00609    0.01665    0.00554 
PART 0 
C9    1    0.319046    0.435244    0.661708    11.00000    0.06412    0.02446 = 
         0.03389    0.00897    0.00169    0.00888 
AFIX  43 
H9    2    0.347259    0.370501    0.701993    11.00000   -1.20000 
AFIX   0 
C10   1    0.410119    0.466462    0.581442    11.00000    0.05863    0.02052 = 
         0.02688    0.00436   -0.00327    0.00631 
C11   1    0.416309    0.698150    0.384265    11.00000    0.05437    0.02802 = 
         0.03261    0.00870    0.00100    0.00839 
C12   1    0.382902    0.780039    0.332729    11.00000    0.04629    0.03013 = 
         0.03539    0.01139    0.00308    0.00856 
C13   1    0.498593    1.021476    0.269421    11.00000    0.04108    0.04572 = 
         0.04568    0.01843    0.00247    0.00285 
AFIX  13 
H13   2    0.521191    1.063714    0.361446    11.00000   -1.20000 
AFIX   0 
C14   1    0.632608    0.951240    0.221341    11.00000    0.04294    0.07314 = 
         0.07240    0.03512    0.01177    0.00740 
AFIX 137 
H14A  2    0.620587    0.916286    0.130352    11.00000   -1.50000 
H14B  2    0.649198    0.872985    0.252013    11.00000   -1.50000 
H14C  2    0.715041    1.018854    0.250444    11.00000   -1.50000 
AFIX   0 
C15   1    0.466874    1.144283    0.223188    11.00000    0.05787    0.04109 = 
         0.05246    0.01838    0.00287   -0.00679 
AFIX 137 
H15A  2    0.553016    1.206794    0.240923    11.00000   -1.50000 
H15B  2    0.388267    1.195859    0.265631    11.00000   -1.50000 
H15C  2    0.439063    1.108695    0.133457    11.00000   -1.50000 
AFIX   0 
C16   1    0.277798    0.780553    0.081450    11.00000    0.04547    0.03932 = 
         0.03636    0.01358    0.00436    0.00160 
AFIX  13 
H16   2    0.190569    0.725694    0.087415    11.00000   -1.20000 
AFIX   0 
C17   1    0.386254    0.672149    0.024736    11.00000    0.06761    0.05698 = 
         0.04361    0.00165    0.00981    0.01096 
AFIX 137 
H17A  2    0.342480    0.605830   -0.054201    11.00000   -1.50000 
H17B  2    0.414110    0.621727    0.082005    11.00000   -1.50000 
H17C  2    0.471561    0.719538    0.010119    11.00000   -1.50000 
AFIX   0 
C18   1    0.228711    0.861212   -0.004939    11.00000    0.06726    0.05579 = 
         0.03944    0.01964   -0.00399   -0.00826 
AFIX 137 
H18A  2    0.310984    0.914858   -0.016766    11.00000   -1.50000 
H18B  2    0.155150    0.925213    0.031971    11.00000   -1.50000 
H18C  2    0.188536    0.795262   -0.085393    11.00000   -1.50000 
AFIX   0 
C19   1    0.183611    1.002290    0.316200    11.00000    0.04003    0.04150 = 
         0.04294    0.01907    0.00895    0.01367 
AFIX  13 
H19   2    0.161917    1.070232    0.271648    11.00000   -1.20000 
AFIX   0 
C20   1    0.046826    0.912510    0.302533    11.00000    0.03939    0.08839 = 
         0.06127    0.01474    0.01264    0.00306 
AFIX 137 
H20A  2    0.066204    0.840701    0.340745    11.00000   -1.50000 
H20B  2    0.014371    0.867551    0.214228    11.00000   -1.50000 
H20C  2   -0.028089    0.971524    0.343832    11.00000   -1.50000 
AFIX   0 
C21   1    0.224190    1.086661    0.452694    11.00000    0.05945    0.04849 = 
         0.05029    0.00755    0.01704    0.01169 
AFIX 137 
H21A  2    0.142762    1.140749    0.486794    11.00000   -1.50000 
H21B  2    0.307037    1.150491    0.460390    11.00000   -1.50000 
H21C  2    0.248868    1.023000    0.498673    11.00000   -1.50000 
 
AFIX   0 
HKLF 4 
 
REM  x15181_a.res in P-1 
REM R1 =  0.0573 for    3010 Fo > 4sig(Fo)  and  0.0688 for all    3639 data 
REM    239 parameters refined using    109 restraints 
 
END 
 
WGHT      0.0838      0.8730 
 
REM No hydrogen bonds found for HTAB generation 
 
REM Highest difference peak  0.909,  deepest hole -0.447,  1-sigma level  0.064 
Q1    1   0.1097  0.4037  0.8649  11.00000  0.05    0.91 
Q2    1   0.2817  0.8285  0.1768  11.00000  0.05    0.48 
Q3    1  -0.0593  0.7241  0.6013  11.00000  0.05    0.47 
Q4    1   0.2568  0.9558  0.2757  11.00000  0.05    0.40 
Q5    1  -0.2125  0.6013  0.9079  11.00000  0.05    0.39 
; 
_shelx_res_checksum   78566 
 
_shelx_hkl_file
;
  -1   0   0    1.40    0.11
  -1   0   0    1.43    0.11
  -1   0   0    1.41    0.13
  -1   0   0    1.30    0.11
  -1   0   0    1.31    0.13
  -1   0   0    1.40    0.12
  -1   0   0    1.33    0.10
  -1   0   0    1.35    0.10
  -1   0   0    1.44    0.10
  -1   0   0    1.53    0.10
   1   0   0    1.50    0.10
   1   0   0    1.66    0.10
  -2   0   0    3.56    0.29
  -2   0   0    3.59    0.30
  -2   0   0    4.00    0.26
  -2   0   0    3.72    0.28
  -2   0   0    3.64    0.28
  -2   0   0    3.74    0.31
  -2   0   0    3.53    0.33
  -2   0   0    3.44    0.26
  -2   0   0    3.68    0.26
  -2   0   0    3.97    0.26
   2   0   0    3.89    0.26
   2   0   0    3.81    0.26
  -3   0   0    1.03    0.14
  -3   0   0    1.09    0.17
  -3   0   0    0.87    0.16
  -3   0   0    1.01    0.15
  -4   0   0    3.48    0.35
  -4   0   0    3.66    0.34
  -4   0   0    3.53    0.31
  -4   0   0    3.16    0.30
  -5   0   0   36.90    2.79
  -5   0   0   41.23    2.84
  -5   0   0   43.53    2.82
  -6   0   0   29.40    2.39
  -6   0   0   33.35    2.22
  -6   0   0   33.45    2.31
  -6   0   0   33.09    2.29
  -6   0   0   31.94    2.32
  -6   0   0   34.13    2.27
  -7   0   0    5.73    0.45
  -7   0   0    5.41    0.46
  -7   0   0    5.63    0.58
  -7   0   0    5.17    0.49
  -7   0   0    4.95    0.41
  -7   0   0    4.84    0.50
  -7   0   0    4.96    0.54
  -7   0   0    6.33    0.44
  -8   0   0    1.13    0.18
  -8   0   0    1.30    0.26
  -8   0   0    1.00    0.18
  -8   0   0    1.16    0.16
  -8   0   0    1.11    0.22
  -9   0   0    0.59    0.16
  -9   0   0    0.75    0.17
  -9   0   0    0.66    0.15
  -9   0   0    0.79    0.19
 -10   0   0    0.61    0.18
 -10   0   0    0.54    0.17
 -10   0   0    0.75    0.16
 -11   0   0   -0.19    0.12
 -11   1   0   -0.16    0.17
 -10   1   0    1.54    0.16
 -10   1   0    1.23    0.20
 -10   1   0    1.05    0.19
  -9   1   0    1.00    0.14
  -9   1   0    0.87    0.19
  -9   1   0    0.97    0.21
  -9   1   0    1.00    0.14
  -8   1   0    5.29    0.52
  -8   1   0    4.76    0.59
  -8   1   0    6.48    0.47
  -8   1   0    6.37    0.49
  -8   1   0    6.58    0.52
  -8   1   0    5.50    0.50
  -7   1   0    0.02    0.04
  -7   1   0   -0.12    0.16
  -7   1   0    0.03    0.14
  -7   1   0    0.27    0.24
  -7   1   0   -0.04    0.20
  -7   1   0   -0.12    0.11
  -7   1   0    0.05    0.17
  -6   1   0    5.09    0.42
  -6   1   0    5.23    0.41
  -6   1   0    4.91    0.48
  -6   1   0    5.05    0.33
  -6   1   0    4.92    0.43
  -6   1   0    5.97    0.52
  -6   1   0    5.42    0.40
  -5   1   0   15.39    1.12
  -5   1   0   15.19    1.13
   4  -1   0    0.61    0.08
   4  -1   0    0.67    0.08
  -4   1   0    0.70    0.10
  -4   1   0    0.45    0.09
  -4   1   0    0.75    0.09
  -4   1   0    0.81    0.17
  -4   1   0    0.60    0.10
  -4   1   0    0.70    0.09
  -4   1   0    0.79    0.10
  -4   1   0    0.65    0.15
   3  -1   0    0.66    0.10
   3  -1   0    0.63    0.10
  -3   1   0    0.79    0.10
  -3   1   0    0.72    0.15
  -3   1   0    1.00    0.16
  -3   1   0    0.94    0.15
  -3   1   0    0.77    0.11
  -3   1   0    0.75    0.10
  -3   1   0    0.69    0.10
  -3   1   0    0.80    0.11
  -3   1   0    0.77    0.10
   2  -1   0   72.01    4.65
   2  -1   0   71.77    4.65
  -2   1   0   64.06    5.06
  -2   1   0   69.37    5.06
  -2   1   0   65.17    4.72
  -2   1   0   75.49    5.53
  -2   1   0   68.29    4.72
  -2   1   0   67.79    4.75
  -2   1   0   64.32    4.77
  -2   1   0   72.21    4.65
  -2   1   0   71.27    4.65
   1  -1   0  185.40   15.54
   1  -1   0  240.94   14.30
   1  -1   0  210.99   14.29
  -1   1   0  211.36   15.56
  -1   1   0  231.26   14.30
  -1   1   0  204.24   14.57
  -1   1   0  207.17   14.51
   0  -1   0   65.37    4.23
   0  -1   0   61.36    4.27
   0  -1   0   66.00    4.23
   0  -1   0   57.63    4.58
   0   1   0   59.23    4.27
   0   1   0   62.80    4.23
   0   1   0   61.67    4.58
   0   1   0   67.91    4.24
  -1  -1   0   18.20    1.31
  -1  -1   0   19.92    1.28
  -1  -1   0   20.39    1.28
  -1  -1   0   16.90    1.29
  -1  -1   0   17.47    1.39
  -1  -1   0   17.80    1.29
  -1  -1   0   17.98    1.32
  -1  -1   0   17.93    1.39
   1   1   0   21.07    1.28
   1   1   0   21.19    1.28
  -2  -1   0  236.30   16.50
  -2  -1   0  231.39   16.40
  -2  -1   0  222.04   19.11
  -2  -1   0  224.34   16.35
  -2  -1   0  237.83   16.34
  -2  -1   0  250.97   16.09
  -2  -1   0  243.26   16.11
  -2  -1   0  252.38   17.53
  -2  -1   0  242.92   16.41
  -2  -1   0  235.09   17.51
   2   1   0  255.12   16.09
   2   1   0  254.40   16.11
  -3  -1   0    2.40    0.27
  -3  -1   0    2.17    0.24
  -3  -1   0    2.11    0.24
  -3  -1   0    2.30    0.22
  -4  -1   0   19.65    1.40
  -4  -1   0   21.29    1.43
  -4  -1   0   19.73    1.40
  -4  -1   0   18.91    1.61
  -5  -1   0    5.00    0.47
  -5  -1   0    5.29    0.45
  -5  -1   0    5.15    0.51
  -5  -1   0    6.20    0.53
  -6  -1   0    5.00    0.41
  -6  -1   0    5.92    0.54
  -6  -1   0    5.26    0.53
  -6  -1   0    5.74    0.45
  -6  -1   0    5.16    0.42
  -6  -1   0    5.55    0.48
  -6  -1   0    5.98    0.48
  -7  -1   0   23.08    1.61
  -7  -1   0   26.05    1.74
  -7  -1   0   25.54    1.78
  -7  -1   0   23.67    1.82
  -7  -1   0   25.30    1.70
  -7  -1   0   24.66    1.82
  -7  -1   0   24.61    1.84
  -7  -1   0   25.52    1.70
  -8  -1   0    0.61    0.13
  -8  -1   0    0.37    0.16
  -8  -1   0    0.90    0.25
  -8  -1   0    0.38    0.13
  -8  -1   0    0.55    0.21
  -9  -1   0    1.33    0.27
  -9  -1   0    0.94    0.23
  -9  -1   0    1.11    0.19
  -9  -1   0    1.29    0.16
 -10  -1   0   -0.12    0.17
 -10  -1   0   -0.02    0.22
 -11   2   0    0.18    0.16
 -11   2   0    0.46    0.12
 -10   2   0    1.30    0.20
 -10   2   0    1.38    0.18
  -9   2   0    0.59    0.20
  -9   2   0    0.86    0.17
  -9   2   0    0.81    0.14
  -8   2   0    3.40    0.34
  -8   2   0    2.98    0.43
  -8   2   0    3.59    0.32
  -8   2   0    3.19    0.35
  -8   2   0    2.71    0.34
  -7   2   0   70.08    4.70
  -7   2   0   59.33    4.90
  -7   2   0   72.49    4.89
  -7   2   0   66.66    4.13
  -7   2   0   71.01    4.56
  -7   2   0   67.09    4.65
  -7   2   0   64.65    4.70
  -6   2   0    1.99    0.24
  -6   2   0    2.37    0.21
  -6   2   0    1.96    0.17
  -6   2   0    1.97    0.28
  -6   2   0    2.05    0.23
  -6   2   0    2.27    0.22
  -5   2   0    0.11    0.11
  -5   2   0    0.28    0.12
  -5   2   0    0.22    0.15
  -5   2   0    0.17    0.09
  -5   2   0    0.14    0.09
  -5   2   0    0.07    0.17
   4  -2   0   73.37    5.15
  -4   2   0   71.47    5.22
  -4   2   0   83.95    5.27
  -4   2   0   70.09    5.60
  -4   2   0   70.34    5.15
  -4   2   0   83.48    5.23
  -4   2   0   73.52    5.29
  -4   2   0   87.26    5.60
   3  -2   0    0.54    0.11
   3  -2   0    0.61    0.12
  -3   2   0    0.38    0.10
  -3   2   0    0.77    0.14
  -3   2   0    0.68    0.11
  -3   2   0    0.33    0.14
  -3   2   0    0.54    0.15
  -3   2   0    0.66    0.11
  -3   2   0    0.51    0.11
  -3   2   0    0.54    0.12
   2  -2   0   19.92    1.33
   2  -2   0   20.93    1.33
   2  -2   0   16.57    1.45
  -2   2   0   20.06    1.45
  -2   2   0   19.10    1.35
  -2   2   0   19.52    1.36
  -2   2   0   20.14    1.33
   1  -2   0   14.07    1.06
   1  -2   0   16.44    1.05
   1  -2   0   13.91    1.14
   1  -2   0   15.88    1.05
  -1   2   0   15.28    1.14
  -1   2   0   14.93    1.06
  -1   2   0   16.24    1.05
  -1   2   0   16.39    1.05
  -1   2   0   14.53    1.06
   0  -2   0  104.27    6.73
   0  -2   0   94.74    7.32
   0  -2   0  101.51    6.72
   0  -2   0  100.10    6.83
   0   2   0  104.76    6.72
   0   2   0   96.18    7.32
   0   2   0   96.97    6.83
   0   2   0  104.35    6.73
  -1  -2   0   29.14    2.14
  -1  -2   0   29.29    1.96
  -1  -2   0   24.88    1.99
  -1  -2   0   30.04    1.99
  -1  -2   0   28.14    1.96
  -1  -2   0   27.99    2.01
  -1  -2   0   30.64    2.02
   1   2   0   32.20    1.97
   1   2   0   27.97    2.14
   1   2   0   30.62    1.96
  -2  -2   0   41.29    2.79
  -2  -2   0   38.88    2.84
  -2  -2   0   40.09    3.04
  -2  -2   0   41.92    2.80
  -2  -2   0   43.96    3.04
  -2  -2   0   42.08    2.88
  -2  -2   0   36.82    3.32
  -2  -2   0   43.66    2.84
  -2  -2   0   41.78    2.87
   2   2   0   42.84    2.80
   2   2   0   44.01    2.80
  -3  -2   0    0.48    0.10
  -3  -2   0    0.54    0.09
  -3  -2   0    0.43    0.07
  -3  -2   0    0.44    0.09
  -3  -2   0    0.50    0.09
  -3  -2   0    0.43    0.15
  -3  -2   0    0.66    0.12
  -3  -2   0    0.58    0.10
  -3  -2   0    0.47    0.15
   3   2   0    0.34    0.07
   3   2   0    0.48    0.10
  -4  -2   0   37.32    3.42
  -4  -2   0   45.96    2.99
  -4  -2   0   45.48    2.97
  -5  -2   0   19.30    1.39
  -5  -2   0   18.50    1.37
  -6  -2   0    4.11    0.36
  -6  -2   0    5.41    0.45
  -6  -2   0    5.12    0.52
  -6  -2   0    4.62    0.39
  -6  -2   0    4.58    0.37
  -6  -2   0    4.66    0.38
  -6  -2   0    4.12    0.43
  -6  -2   0    4.92    0.45
  -7  -2   0    0.07    0.28
  -7  -2   0   -0.02    0.12
  -7  -2   0    0.16    0.14
  -7  -2   0   -0.02    0.12
  -7  -2   0   -0.27    0.19
  -7  -2   0    0.11    0.12
  -7  -2   0   -0.24    0.22
  -8  -2   0    0.19    0.21
  -8  -2   0    0.20    0.16
  -8  -2   0    0.25    0.14
  -8  -2   0    0.14    0.13
  -8  -2   0    0.17    0.11
  -8  -2   0   -0.01    0.23
  -9  -2   0    0.05    0.24
  -9  -2   0   -0.07    0.15
  -9  -2   0    0.15    0.14
 -10  -2   0    0.93    0.13
 -10  -2   0    0.18    0.13
 -10  -2   0    0.52    0.16
 -10   3   0    0.06    0.15
 -10   3   0    0.24    0.14
  -9   3   0    4.73    0.41
  -9   3   0    4.99    0.38
  -9   3   0    3.70    0.36
  -8   3   0    7.82    0.54
  -8   3   0    8.92    0.66
  -8   3   0    9.09    0.64
  -8   3   0    8.83    0.71
  -7   3   0    0.39    0.14
  -7   3   0    0.48    0.09
  -7   3   0    0.29    0.22
  -7   3   0    0.49    0.26
  -7   3   0    0.42    0.13
  -6   3   0   16.24    1.15
  -6   3   0   15.19    1.16
  -6   3   0   13.97    0.98
  -6   3   0   16.08    1.12
  -6   3   0   15.56    0.96
  -6   3   0   14.65    1.09
  -6   3   0   15.10    1.06
  -6   3   0   15.84    1.09
  -5   3   0   69.96    4.47
  -5   3   0   65.79    4.79
  -5   3   0   58.15    4.52
  -5   3   0   66.92    4.52
  -4   3   0    2.83    0.30
  -4   3   0    3.14    0.34
  -4   3   0    3.15    0.32
  -4   3   0    3.19    0.33
   3  -3   0    5.01    0.42
   3  -3   0    4.62    0.40
  -3   3   0    5.63    0.42
  -3   3   0    4.88    0.40
  -3   3   0    5.93    0.46
  -3   3   0    5.61    0.44
  -3   3   0    4.74    0.40
   2  -3   0    1.59    0.22
   2  -3   0    1.64    0.20
   2  -3   0    1.73    0.19
   2  -3   0    1.33    0.18
  -2   3   0    1.83    0.22
  -2   3   0    1.73    0.19
  -2   3   0    1.83    0.19
  -2   3   0    1.66    0.18
  -2   3   0    1.60    0.18
   1  -3   0    5.54    0.46
   1  -3   0    6.51    0.46
   1  -3   0    5.84    0.45
   1  -3   0    5.72    0.50
  -1   3   0    6.13    0.49
  -1   3   0    6.18    0.45
  -1   3   0    5.54    0.44
  -1   3   0    5.44    0.45
  -1   3   0    5.93    0.46
   0  -3   0    7.24    0.59
   0  -3   0    7.15    0.52
   0  -3   0    7.05    0.54
   0  -3   0    6.87    0.53
   0  -3   0    7.44    0.54
   0   3   0    7.31    0.58
   0   3   0    6.69    0.53
   0   3   0    7.45    0.53
   0   3   0    7.66    0.53
  -1  -3   0    3.74    0.37
  -1  -3   0    4.93    0.37
  -1  -3   0    4.52    0.35
  -1  -3   0    4.47    0.36
  -1  -3   0    4.49    0.40
  -1  -3   0    4.38    0.36
   1   3   0    4.06    0.35
   1   3   0    4.43    0.36
   1   3   0    4.42    0.38
   1   3   0    4.42    0.35
  -2  -3   0    7.48    0.54
  -2  -3   0    8.04    0.56
  -2  -3   0    6.67    0.58
  -2  -3   0    7.87    0.58
  -2  -3   0    8.11    0.59
  -2  -3   0    7.38    0.55
  -2  -3   0    8.47    0.61
  -2  -3   0    6.23    0.54
   2   3   0    7.56    0.54
   2   3   0    7.88    0.56
  -3  -3   0   16.64    1.14
  -3  -3   0   14.21    1.04
  -3  -3   0   13.12    1.05
  -3  -3   0   14.46    1.13
  -3  -3   0   15.17    1.04
  -3  -3   0   17.02    1.13
  -3  -3   0   16.11    1.06
  -3  -3   0   15.58    1.10
   3   3   0   14.46    1.04
  -4  -3   0    4.02    0.43
  -4  -3   0    4.52    0.31
  -4  -3   0    4.45    0.42
  -4  -3   0    3.98    0.33
  -4  -3   0    4.11    0.35
  -4  -3   0    3.45    0.32
  -5  -3   0    0.11    0.06
  -5  -3   0    0.22    0.18
  -5  -3   0   -0.15    0.15
  -5  -3   0   -0.26    0.16
  -5  -3   0    0.02    0.11
  -5  -3   0   -0.18    0.22
  -5  -3   0   -0.01    0.12
  -6  -3   0    6.86    0.56
  -6  -3   0    5.90    0.49
  -6  -3   0    7.30    0.55
  -6  -3   0    5.56    0.49
  -6  -3   0    6.25    0.46
  -6  -3   0    6.28    0.39
  -6  -3   0    6.57    0.49
  -6  -3   0    7.27    0.69
  -6  -3   0    5.25    0.59
  -7  -3   0   20.33    1.33
  -7  -3   0   21.13    1.41
  -7  -3   0   17.79    1.43
  -7  -3   0   22.34    1.54
  -7  -3   0   20.37    1.46
  -7  -3   0   19.65    1.56
  -8  -3   0    0.18    0.16
  -8  -3   0    0.23    0.17
  -8  -3   0   -0.06    0.15
  -8  -3   0   -0.01    0.15
  -9  -3   0   -0.06    0.11
  -9  -3   0   -0.03    0.23
  -9  -3   0   -0.15    0.14
  -9  -3   0   -0.08    0.16
 -10  -3   0    1.37    0.22
 -10  -3   0    1.71    0.18
 -10   4   0    0.23    0.13
 -10   4   0    0.45    0.21
  -9   4   0    2.74    0.30
  -9   4   0    2.75    0.32
  -8   4   0    0.41    0.17
  -8   4   0    0.78    0.26
  -8   4   0    0.61    0.15
  -8   4   0    0.78    0.10
  -7   4   0    0.00    0.13
  -7   4   0   -0.19    0.11
  -7   4   0    0.17    0.16
  -7   4   0   -0.36    0.23
  -7   4   0   -0.17    0.11
  -6   4   0    3.13    0.29
  -6   4   0    3.62    0.39
  -6   4   0    2.99    0.39
  -6   4   0    3.46    0.27
  -6   4   0    3.44    0.26
  -6   4   0    3.24    0.31
  -6   4   0    3.17    0.35
  -5   4   0    1.28    0.20
  -5   4   0    1.12    0.12
  -5   4   0    1.23    0.22
  -5   4   0    1.15    0.23
  -5   4   0    1.00    0.13
  -5   4   0    1.08    0.24
  -5   4   0    1.17    0.10
  -5   4   0    0.94    0.12
  -5   4   0    1.26    0.13
  -4   4   0   35.69    2.43
  -4   4   0   34.61    2.41
  -4   4   0   36.62    2.58
  -4   4   0   31.42    2.44
  -3   4   0   69.37    5.10
  -3   4   0   67.46    4.78
  -3   4   0   71.25    4.76
   2  -4   0    8.51    0.71
  -2   4   0   10.41    0.71
  -2   4   0   10.98    0.74
  -2   4   0    9.98    0.78
  -2   4   0    9.74    0.72
  -2   4   0    8.59    0.71
   1  -4   0    1.96    0.27
   1  -4   0    1.78    0.22
   1  -4   0    1.77    0.21
   1  -4   0    1.70    0.20
   1  -4   0    1.89    0.22
  -1   4   0    1.80    0.24
  -1   4   0    1.71    0.21
  -1   4   0    2.13    0.23
  -1   4   0    1.76    0.21
  -1   4   0    1.74    0.20
   0  -4   0   13.69    0.98
   0  -4   0   13.89    0.97
   0  -4   0   14.37    1.06
   0  -4   0   12.08    0.95
   0  -4   0   13.34    0.97
   0   4   0   13.10    0.97
   0   4   0   14.22    0.96
   0   4   0   12.96    0.97
   0   4   0   14.43    1.05
  -1  -4   0    0.00    0.13
  -1  -4   0    0.02    0.12
  -1  -4   0    0.09    0.10
  -1  -4   0    0.10    0.18
  -1  -4   0    0.06    0.13
   1   4   0    0.03    0.11
   1   4   0    0.16    0.13
  -2  -4   0    5.65    0.48
  -2  -4   0    5.91    0.51
  -2  -4   0    5.70    0.47
  -3  -4   0    0.64    0.14
  -3  -4   0    0.66    0.20
  -3  -4   0    0.40    0.18
  -4  -4   0    5.31    0.48
  -4  -4   0    5.76    0.51
  -4  -4   0    5.38    0.43
  -4  -4   0    5.86    0.54
  -5  -4   0    3.48    0.43
  -5  -4   0    2.86    0.34
  -5  -4   0    3.49    0.40
  -5  -4   0    3.73    0.31
  -5  -4   0    3.97    0.33
  -5  -4   0    3.82    0.40
  -5  -4   0    4.17    0.42
  -5  -4   0    3.74    0.26
  -6  -4   0    5.13    0.48
  -6  -4   0    5.26    0.39
  -6  -4   0    5.27    0.41
  -6  -4   0    4.38    0.31
  -6  -4   0    4.63    0.53
  -6  -4   0    3.97    0.41
  -6  -4   0    5.61    0.49
  -7  -4   0    0.71    0.24
  -7  -4   0    0.30    0.15
  -7  -4   0    0.34    0.23
  -7  -4   0    0.33    0.16
  -8  -4   0    2.67    0.32
  -8  -4   0    2.75    0.27
  -8  -4   0    2.41    0.33
  -9  -4   0   16.70    1.03
  -9  -4   0   13.54    1.11
  -9  -4   0   13.71    0.97
 -10  -4   0    5.99    0.45
 -10   5   0    0.42    0.11
 -10   5   0    0.55    0.14
  -9   5   0    7.07    0.56
  -9   5   0    7.07    0.54
  -8   5   0    1.07    0.26
  -8   5   0    0.99    0.17
  -8   5   0    0.89    0.12
  -8   5   0    0.94    0.16
  -7   5   0    0.26    0.23
  -7   5   0    0.36    0.14
  -7   5   0    0.26    0.12
  -7   5   0    0.21    0.12
  -6   5   0    0.19    0.10
  -6   5   0    0.19    0.21
  -6   5   0    0.21    0.12
  -6   5   0    0.02    0.09
  -6   5   0    0.09    0.09
  -6   5   0    0.10    0.23
  -6   5   0   -0.02    0.23
  -5   5   0    1.40    0.12
  -5   5   0    1.58    0.23
  -5   5   0    1.27    0.27
  -5   5   0    1.31    0.28
  -5   5   0    0.89    0.25
  -5   5   0    1.45    0.17
  -5   5   0    1.38    0.15
  -5   5   0    1.59    0.14
  -4   5   0    5.09    0.49
  -4   5   0    5.02    0.35
  -4   5   0    4.41    0.33
  -4   5   0    4.77    0.47
  -4   5   0    5.07    0.45
  -4   5   0    4.25    0.34
  -3   5   0    8.37    0.67
  -3   5   0    7.89    0.64
  -3   5   0    8.23    0.71
  -2   5   0    3.14    0.36
  -2   5   0    3.53    0.37
  -2   5   0    2.83    0.30
   1  -5   0    2.46    0.29
   1  -5   0    2.64    0.34
   1  -5   0    2.47    0.27
  -1   5   0    2.44    0.31
  -1   5   0    2.45    0.26
  -1   5   0    3.06    0.31
   0  -5   0   20.55    1.33
   0  -5   0   19.43    1.43
   0  -5   0   19.59    1.34
   0  -5   0   17.42    1.31
   0   5   0   18.30    1.31
   0   5   0   15.90    1.30
  -1  -5   0   31.30    2.43
  -1  -5   0   32.25    2.26
  -1  -5   0   33.68    2.28
  -2  -5   0    0.55    0.22
  -2  -5   0    0.60    0.18
  -2  -5   0    0.67    0.20
  -3  -5   0    6.63    0.60
  -3  -5   0    6.69    0.54
  -3  -5   0    6.45    0.45
  -3  -5   0    6.40    0.60
  -4  -5   0    1.03    0.16
  -4  -5   0    1.51    0.22
  -4  -5   0    1.51    0.15
  -4  -5   0    1.83    0.22
  -4  -5   0    1.41    0.12
  -4  -5   0    1.93    0.32
  -4  -5   0    1.58    0.26
  -4  -5   0    1.17    0.19
  -4  -5   0    1.30    0.16
  -5  -5   0    4.02    0.43
  -5  -5   0    3.83    0.27
  -5  -5   0    4.07    0.48
  -5  -5   0    3.75    0.34
  -5  -5   0    3.79    0.33
  -5  -5   0    3.39    0.37
  -6  -5   0    5.21    0.64
  -6  -5   0    7.90    0.61
  -6  -5   0    5.72    0.52
  -6  -5   0    6.24    0.42
  -6  -5   0    7.31    0.50
  -6  -5   0    6.90    0.55
  -7  -5   0    2.86    0.31
  -7  -5   0    2.68    0.31
  -7  -5   0    2.07    0.32
  -8  -5   0    4.39    0.36
  -8  -5   0    3.73    0.38
  -8  -5   0    3.43    0.32
  -9  -5   0    0.16    0.11
  -9  -5   0    0.16    0.15
  -9   6   0    0.68    0.16
  -9   6   0    0.50    0.12
  -8   6   0    1.28    0.17
  -8   6   0    1.15    0.26
  -8   6   0    1.15    0.13
  -7   6   0    1.47    0.18
  -7   6   0    1.22    0.17
  -7   6   0    1.29    0.27
  -6   6   0   -0.02    0.11
  -6   6   0    0.11    0.12
  -6   6   0    0.20    0.16
  -6   6   0    0.09    0.26
  -6   6   0    0.21    0.12
  -5   6   0   -0.03    0.25
  -5   6   0    0.18    0.11
  -5   6   0    0.07    0.27
  -5   6   0    0.23    0.24
  -5   6   0    0.55    0.14
  -5   6   0    0.39    0.09
  -5   6   0    0.22    0.14
  -4   6   0   18.48    1.34
  -4   6   0   18.50    1.15
  -4   6   0   18.33    1.17
  -4   6   0   18.29    1.43
  -4   6   0   16.71    1.14
  -3   6   0   14.94    1.06
  -3   6   0   13.17    1.12
  -3   6   0   13.16    0.88
  -3   6   0   13.04    0.91
  -3   6   0   14.50    1.04
  -2   6   0    0.48    0.24
  -2   6   0    0.74    0.19
  -2   6   0    0.63    0.25
   1  -6   0   -0.09    0.13
  -1   6   0   -0.03    0.12
   0  -6   0    0.92    0.25
   0  -6   0    0.93    0.31
   0  -6   0    0.71    0.20
  -1  -6   0   21.59    1.69
  -1  -6   0   23.28    1.59
  -1  -6   0   23.32    1.59
  -1  -6   0   20.31    1.40
  -2  -6   0   35.70    2.46
  -2  -6   0   34.42    2.14
  -2  -6   0   33.28    2.21
  -2  -6   0   37.30    2.43
  -2  -6   0   33.05    2.18
  -2  -6   0   32.67    2.22
  -2  -6   0   36.88    2.61
  -3  -6   0    1.91    0.31
  -3  -6   0    2.00    0.18
  -3  -6   0    1.89    0.16
  -3  -6   0    2.16    0.34
  -3  -6   0    2.33    0.31
  -3  -6   0    1.99    0.19
  -3  -6   0    1.78    0.20
  -4  -6   0    1.49    0.19
  -4  -6   0    1.13    0.17
  -4  -6   0    1.44    0.25
  -4  -6   0    1.71    0.16
  -4  -6   0    1.30    0.26
  -4  -6   0    1.65    0.14
  -4  -6   0    1.18    0.29
  -4  -6   0    1.44    0.33
  -4  -6   0    1.36    0.22
  -5  -6   0   16.24    1.04
  -5  -6   0   17.62    1.27
  -5  -6   0   14.56    1.28
  -5  -6   0   16.76    1.19
  -5  -6   0   16.96    1.10
  -6  -6   0    2.70    0.22
  -6  -6   0    2.91    0.31
  -6  -6   0    2.59    0.29
  -6  -6   0    3.25    0.32
  -6  -6   0    2.50    0.33
  -7  -6   0    0.85    0.15
  -7  -6   0    1.09    0.16
  -8  -6   0    3.80    0.31
  -8  -6   0    2.66    0.26
  -9  -6   0    0.53    0.13
  -9  -6   0    0.35    0.10
  -9   7   0   -0.06    0.16
  -8   7   0    2.80    0.30
  -8   7   0    3.35    0.24
  -7   7   0   10.32    0.69
  -7   7   0   10.83    0.70
  -6   7   0    4.00    0.37
  -6   7   0    4.33    0.37
  -6   7   0    4.77    0.41
  -5   7   0    2.36    0.22
  -5   7   0    1.63    0.19
  -5   7   0    2.00    0.22
  -4   7   0    3.48    0.34
  -4   7   0    2.77    0.27
  -4   7   0    2.29    0.34
  -4   7   0    3.41    0.46
  -3   7   0    0.32    0.10
  -2   7   0   -0.03    0.09
   0  -7   0    0.97    0.26
   0  -7   0    1.06    0.14
  -1  -7   0   27.18    1.65
  -1  -7   0   25.96    2.02
  -1  -7   0   24.70    1.68
  -1  -7   0   26.54    1.89
  -1  -7   0   24.92    1.68
  -1  -7   0   27.01    1.89
  -2  -7   0    0.44    0.34
  -2  -7   0    1.06    0.30
  -2  -7   0    1.35    0.32
  -2  -7   0    1.20    0.17
  -2  -7   0    1.10    0.12
  -2  -7   0    0.98    0.14
  -2  -7   0    0.62    0.14
  -3  -7   0   22.16    1.47
  -3  -7   0   20.19    1.38
  -3  -7   0   21.57    1.37
  -3  -7   0   23.53    1.33
  -3  -7   0   21.26    1.33
  -3  -7   0   19.77    1.58
  -3  -7   0   21.14    1.55
  -3  -7   0   17.92    1.64
  -4  -7   0    7.32    0.51
  -4  -7   0    7.65    0.52
  -4  -7   0    7.58    0.76
  -4  -7   0    7.79    0.62
  -4  -7   0    7.61    0.55
  -5  -7   0    0.11    0.12
  -5  -7   0    0.27    0.13
  -5  -7   0    0.10    0.17
  -5  -7   0    0.00    0.21
  -6  -7   0    0.40    0.20
  -6  -7   0    0.41    0.16
  -6  -7   0    0.60    0.10
  -6  -7   0    0.35    0.19
  -7  -7   0    2.47    0.29
  -7  -7   0    3.25    0.31
  -8  -7   0   -0.08    0.13
  -8  -7   0   -0.20    0.14
  -8   8   0    1.68    0.17
  -8   8   0    1.54    0.20
  -7   8   0    0.02    0.09
  -7   8   0    0.47    0.21
  -7   8   0    0.13    0.12
  -6   8   0   -0.02    0.14
  -6   8   0    0.21    0.15
  -6   8   0    0.30    0.15
  -5   8   0   18.56    1.18
  -5   8   0   18.19    1.34
  -5   8   0   18.45    1.22
  -4   8   0    6.02    0.48
  -4   8   0    6.54    0.45
  -3   8   0   12.70    0.84
  -2   8   0   17.23    1.12
   1  -8   0    1.14    0.14
   0  -8   0    0.50    0.12
  -1  -8   0    4.12    0.34
  -1  -8   0    4.15    0.32
  -1  -8   0    2.70    0.41
  -2  -8   0    0.66    0.16
  -2  -8   0    0.71    0.11
  -2  -8   0    0.76    0.18
  -2  -8   0    1.01    0.36
  -2  -8   0    0.93    0.18
  -3  -8   0    0.30    0.14
  -3  -8   0    0.46    0.15
  -3  -8   0    0.29    0.14
  -3  -8   0    0.35    0.17
  -4  -8   0   -0.05    0.12
  -4  -8   0   -0.01    0.10
  -4  -8   0   -0.15    0.15
  -4  -8   0   -0.18    0.23
  -5  -8   0    1.93    0.21
  -5  -8   0    1.74    0.22
  -5  -8   0    1.78    0.22
  -6  -8   0   -0.01    0.13
  -6  -8   0    0.01    0.10
  -6  -8   0    0.05    0.13
  -6  -8   0   -0.05    0.11
  -7  -8   0    2.68    0.23
  -7  -8   0    2.68    0.24
  -7   9   0    0.10    0.11
  -7   9   0    0.16    0.16
  -6   9   0    1.69    0.24
  -6   9   0    1.63    0.18
  -6   9   0    1.88    0.18
  -5   9   0    0.18    0.14
  -5   9   0    0.07    0.14
  -5   9   0    0.09    0.07
  -4   9   0    0.14    0.17
  -4   9   0   -0.02    0.10
   2  -9   0    3.76    0.31
  -2   9   0    3.25    0.31
   1  -9   0    0.39    0.13
   0  -9   0   11.52    0.81
   0  -9   0   11.94    0.78
  -1  -9   0    1.46    0.22
  -1  -9   0    1.28    0.14
  -2  -9   0    5.51    0.48
  -2  -9   0    4.93    0.40
  -2  -9   0    5.01    0.34
  -2  -9   0    4.64    0.39
  -3  -9   0    0.85    0.16
  -3  -9   0    0.97    0.16
  -3  -9   0    1.13    0.24
  -3  -9   0    1.25    0.16
  -4  -9   0    0.93    0.14
  -4  -9   0    0.97    0.11
  -4  -9   0    0.69    0.17
  -4  -9   0    0.68    0.12
  -5  -9   0    0.08    0.16
  -5  -9   0   -0.24    0.14
  -5  -9   0   -0.05    0.11
  -6  -9   0    1.40    0.17
  -6  10   0    1.51    0.14
  -6  10   0    1.25    0.15
  -5  10   0    0.28    0.12
  -5  10   0    0.24    0.13
  -4  10   0    0.95    0.17
  -4  10   0    1.17    0.12
  -4  10   0    0.99    0.16
   3 -10   0    3.67    0.33
  -3  10   0    4.70    0.32
   2 -10   0    0.26    0.13
  -2  10   0    0.04    0.13
   1 -10   0    3.60    0.30
   0 -10   0    4.42    0.33
   0 -10   0    4.68    0.38
  -1 -10   0    0.17    0.08
  -1 -10   0    0.10    0.15
  -2 -10   0    4.81    0.38
  -2 -10   0    5.08    0.38
  -2 -10   0    5.58    0.46
  -3 -10   0   -0.04    0.09
  -3 -10   0    0.02    0.10
  -3 -10   0   -0.15    0.19
  -4 -10   0    1.70    0.17
  -4 -10   0    1.48    0.20
   3 -11   0    1.05    0.11
  -3  11   0    1.40    0.17
  -3  11   0    1.41    0.14
   2 -11   0   -0.01    0.09
  -2  11   0   -0.13    0.10
   1 -11   0    0.67    0.09
  -1  11   0    0.63    0.09
   0 -11   0   -0.10    0.13
   0 -11   0    0.02    0.12
  -1 -11   0    0.57    0.13
  -1 -11   0    0.69    0.13
  -2 -11   0    2.38    0.23
  -2 -11   0    2.88    0.21
  -3 -11   1    3.88    0.32
  -3 -11   1    4.40    0.29
  -2 -11   1    0.01    0.12
  -2 -11   1    0.06    0.12
  -2 -11   1    0.01    0.12
  -1 -11   1   -0.11    0.17
  -1 -11   1   -0.12    0.12
   0 -11   1    5.69    0.45
   0 -11   1    5.65    0.43
   0 -11   1    6.10    0.39
  -1  11  -1    0.55    0.09
   1 -11   1    0.55    0.10
  -2  11  -1    0.38    0.11
   2 -11   1    0.41    0.11
  -3  11  -1    0.60    0.10
  -3  11  -1    0.52    0.12
   3 -11   1    0.40    0.08
  -4  11  -1    0.22    0.13
  -4  11  -1    0.18    0.10
  -5 -10   1    0.09    0.15
  -5 -10   1    0.08    0.09
  -4 -10   1    5.67    0.47
  -4 -10   1    5.78    0.40
  -3 -10   1   -0.01    0.11
  -3 -10   1   -0.01    0.13
  -3 -10   1   -0.30    0.14
  -2 -10   1   -0.02    0.15
  -2 -10   1    0.16    0.14
  -2 -10   1   -0.17    0.13
  -1 -10   1   16.35    1.06
  -1 -10   1   15.76    1.02
   0 -10   1    1.03    0.18
   0 -10   1    0.85    0.13
   1 -10   1   -0.02    0.12
  -2  10  -1   12.51    0.79
   2 -10   1   11.15    0.78
  -4  10  -1    1.85    0.20
  -4  10  -1    1.80    0.24
  -5  10  -1    0.06    0.13
  -5  10  -1   -0.09    0.18
  -6  10  -1   -0.06    0.11
  -6  10  -1   -0.07    0.08
  -6  -9   1    2.41    0.23
  -6  -9   1    2.09    0.25
  -5  -9   1    7.45    0.49
  -5  -9   1    8.33    0.60
  -5  -9   1    7.25    0.54
  -4  -9   1    0.39    0.14
  -4  -9   1    0.16    0.12
  -4  -9   1    0.28    0.23
  -4  -9   1    0.20    0.09
  -3  -9   1    0.77    0.24
  -3  -9   1    0.73    0.14
  -3  -9   1    0.89    0.16
  -3  -9   1    0.82    0.15
  -2  -9   1    1.68    0.26
  -2  -9   1    1.49    0.16
  -2  -9   1    1.52    0.19
  -2  -9   1    1.93    0.19
  -1  -9   1    0.18    0.10
  -1  -9   1    0.11    0.19
   0  -9   1    0.36    0.16
   0  -9   1    0.08    0.11
   1  -9   1   40.74    2.58
  -2   9  -1    0.15    0.16
   2  -9   1    0.07    0.13
  -3   9  -1    5.91    0.44
  -4   9  -1    2.50    0.24
  -4   9  -1    2.34    0.21
  -5   9  -1    0.49    0.09
  -5   9  -1    0.79    0.21
  -5   9  -1    0.68    0.16
  -6   9  -1    0.55    0.14
  -6   9  -1    0.53    0.15
  -7   9  -1    1.27    0.15
  -7   9  -1    1.41    0.17
  -7  -8   1    2.78    0.24
  -7  -8   1    2.29    0.22
  -6  -8   1    0.06    0.09
  -6  -8   1   -0.10    0.13
  -6  -8   1   -0.03    0.14
  -6  -8   1    0.07    0.16
  -5  -8   1    8.04    0.56
  -5  -8   1    8.74    0.63
  -5  -8   1    7.30    0.50
  -5  -8   1    6.92    0.56
  -4  -8   1    0.02    0.23
  -4  -8   1    0.15    0.14
  -4  -8   1    0.05    0.10
  -4  -8   1    0.20    0.14
  -3  -8   1    0.96    0.16
  -3  -8   1    1.28    0.17
  -3  -8   1    1.41    0.18
  -3  -8   1    1.39    0.25
  -2  -8   1    1.86    0.19
  -2  -8   1    1.73    0.33
  -2  -8   1    2.29    0.20
  -2  -8   1    1.99    0.19
  -2  -8   1    1.91    0.20
  -1  -8   1   10.98    0.96
  -1  -8   1   10.15    1.04
  -1  -8   1   10.47    0.98
  -1  -8   1   12.47    0.81
  -1  -8   1   13.00    0.77
   0  -8   1   17.63    1.14
   1  -8   1    0.38    0.11
  -2   8  -1    3.46    0.30
  -3   8  -1   18.41    1.20
  -4   8  -1   21.16    1.36
  -5   8  -1    0.09    0.14
  -5   8  -1    0.14    0.14
  -5   8  -1    0.14    0.14
  -6   8  -1    0.86    0.16
  -6   8  -1    0.68    0.15
  -6   8  -1    1.11    0.24
  -7   8  -1    3.53    0.28
  -7   8  -1    3.48    0.33
  -8   8  -1    1.54    0.18
  -8  -7   1    0.07    0.13
  -8  -7   1    0.32    0.12
  -7  -7   1    0.00    0.10
  -7  -7   1   -0.07    0.18
  -7  -7   1    0.04    0.12
  -6  -7   1   11.54    0.70
  -6  -7   1    9.89    0.80
  -6  -7   1   11.67    0.77
  -6  -7   1   11.35    0.83
  -5  -7   1    5.54    0.48
  -5  -7   1    6.48    0.54
  -5  -7   1    6.38    0.48
  -5  -7   1    6.29    0.42
  -4  -7   1    0.15    0.13
  -4  -7   1    0.37    0.13
  -4  -7   1    0.00    0.20
  -4  -7   1    0.22    0.11
  -4  -7   1    0.20    0.22
  -4  -7   1    0.21    0.14
  -4  -7   1    0.54    0.28
  -3  -7   1    4.95    0.53
  -3  -7   1    5.50    0.55
  -3  -7   1    5.23    0.34
  -3  -7   1    5.41    0.42
  -3  -7   1    4.52    0.54
  -3  -7   1    5.56    0.48
  -3  -7   1    5.92    0.40
  -3  -7   1    5.05    0.39
  -2  -7   1    0.25    0.08
  -2  -7   1    0.33    0.13
  -2  -7   1    0.30    0.11
  -2  -7   1    0.61    0.26
  -2  -7   1    0.39    0.13
  -2  -7   1    0.09    0.31
  -2  -7   1    0.15    0.22
  -1  -7   1    2.06    0.19
  -1  -7   1    2.86    0.43
  -1  -7   1    1.85    0.29
  -1  -7   1    2.12    0.20
  -1  -7   1    2.25    0.35
   0  -7   1    6.03    0.56
   0  -7   1    6.43    0.61
   0  -7   1    6.27    0.44
   0  -7   1    6.06    0.67
  -2   7  -1    3.85    0.30
  -3   7  -1    0.59    0.11
  -4   7  -1   30.34    1.91
  -4   7  -1   27.42    2.13
  -4   7  -1   30.38    1.88
  -5   7  -1    0.19    0.09
  -5   7  -1    0.40    0.20
  -5   7  -1    0.28    0.13
  -5   7  -1    0.21    0.15
  -5   7  -1    0.03    0.24
  -6   7  -1   14.46    0.95
  -6   7  -1   13.59    1.04
  -6   7  -1   14.49    0.92
  -7   7  -1    2.37    0.20
  -7   7  -1    1.69    0.28
  -8   7  -1    0.00    0.21
  -9   7  -1    3.38    0.29
  -9  -6   1    0.19    0.14
  -9  -6   1    0.38    0.15
  -8  -6   1    0.87    0.18
  -8  -6   1    0.77    0.13
  -7  -6   1    1.94    0.23
  -7  -6   1    2.54    0.29
  -7  -6   1    2.56    0.25
  -6  -6   1    1.49    0.24
  -6  -6   1    1.31    0.21
  -6  -6   1    1.34    0.19
  -6  -6   1    1.62    0.21
  -6  -6   1    1.37    0.15
  -5  -6   1    5.04    0.36
  -5  -6   1    5.00    0.46
  -5  -6   1    4.90    0.57
  -5  -6   1    4.99    0.45
  -5  -6   1    4.81    0.41
  -5  -6   1    5.23    0.41
  -4  -6   1   12.34    0.79
  -4  -6   1   13.56    0.92
  -4  -6   1   12.77    0.85
  -4  -6   1   11.20    1.00
  -4  -6   1   12.87    0.81
  -4  -6   1   13.01    1.00
  -4  -6   1   11.41    0.87
  -4  -6   1   12.87    0.92
  -3  -6   1    0.28    0.06
  -3  -6   1    0.57    0.20
  -3  -6   1    0.40    0.11
  -3  -6   1    0.29    0.09
  -3  -6   1    0.35    0.20
  -3  -6   1    0.28    0.11
  -3  -6   1   -0.11    0.26
  -3  -6   1    0.61    0.25
  -3  -6   1    0.38    0.11
  -2  -6   1    1.65    0.28
  -2  -6   1    1.18    0.13
  -2  -6   1    1.47    0.31
  -2  -6   1    1.75    0.27
  -2  -6   1    1.24    0.12
  -1  -6   1   14.44    1.19
  -1  -6   1   14.53    1.11
  -1  -6   1   15.34    1.10
   0  -6   1   21.43    1.51
   0  -6   1   21.38    1.52
   0  -6   1   20.31    1.62
   1  -6   1    0.20    0.13
  -2   6  -1    7.45    0.58
  -2   6  -1    6.91    0.63
  -2   6  -1    7.06    0.67
  -3   6  -1    0.85    0.11
  -3   6  -1    1.13    0.26
  -3   6  -1    1.07    0.22
  -3   6  -1    0.72    0.27
  -4   6  -1   -0.15    0.24
  -4   6  -1    0.14    0.10
  -4   6  -1   -0.21    0.24
  -4   6  -1    0.18    0.10
  -4   6  -1    0.14    0.13
  -4   6  -1    0.28    0.21
  -5   6  -1    1.71    0.18
  -5   6  -1    1.38    0.28
  -5   6  -1    1.28    0.33
  -5   6  -1    1.48    0.31
  -5   6  -1    2.26    0.19
  -5   6  -1    1.91    0.17
  -5   6  -1    1.78    0.24
  -6   6  -1    2.68    0.28
  -6   6  -1    2.78    0.28
  -6   6  -1    2.72    0.28
  -7   6  -1    5.33    0.44
  -7   6  -1    5.63    0.53
  -7   6  -1    5.64    0.39
  -8   6  -1   13.05    0.81
  -8   6  -1   11.75    0.91
  -8   6  -1   13.89    0.97
  -9   6  -1    0.47    0.11
  -9   6  -1    0.69    0.22
 -10  -5   1    0.70    0.13
  -9  -5   1    0.98    0.14
  -9  -5   1    1.16    0.14
  -8  -5   1    1.01    0.24
  -8  -5   1    0.91    0.18
  -8  -5   1    0.77    0.17
  -7  -5   1    1.39    0.19
  -7  -5   1    1.18    0.20
  -7  -5   1    1.38    0.20
  -7  -5   1    0.97    0.22
  -6  -5   1    3.82    0.26
  -6  -5   1    3.91    0.45
  -6  -5   1    3.77    0.36
  -6  -5   1    3.79    0.39
  -6  -5   1    3.94    0.50
  -6  -5   1    4.03    0.35
  -5  -5   1    5.13    0.44
  -5  -5   1    4.80    0.44
  -5  -5   1    5.27    0.34
  -5  -5   1    4.84    0.39
  -5  -5   1    5.01    0.41
  -5  -5   1    4.82    0.52
  -4  -5   1    1.42    0.19
  -4  -5   1    1.30    0.17
  -4  -5   1    1.34    0.15
  -4  -5   1    1.33    0.21
  -4  -5   1    1.24    0.23
  -4  -5   1    1.56    0.14
  -4  -5   1    1.41    0.28
  -4  -5   1    1.24    0.19
  -4  -5   1    1.36    0.15
  -3  -5   1    2.83    0.34
  -3  -5   1    2.98    0.36
  -3  -5   1    3.01    0.32
  -2  -5   1    6.79    0.61
  -2  -5   1    7.13    0.56
  -2  -5   1    7.61    0.55
  -2  -5   1    5.70    0.62
  -1  -5   1    3.77    0.38
  -1  -5   1    3.32    0.40
  -1  -5   1    3.64    0.34
   0   5  -1   72.30    5.08
   0   5  -1   67.50    5.02
   0  -5   1   67.47    5.01
   0  -5   1   80.05    5.46
   0  -5   1   81.61    5.10
   0  -5   1   76.53    5.11
  -1   5  -1    3.02    0.33
  -1   5  -1    2.53    0.25
  -1   5  -1    3.15    0.35
  -1   5  -1    2.35    0.28
   1  -5   1    3.55    0.36
   1  -5   1    2.82    0.33
   1  -5   1    2.58    0.28
   1  -5   1    2.36    0.27
  -2   5  -1   25.89    1.93
  -2   5  -1   23.39    1.77
  -2   5  -1   25.46    1.79
  -2   5  -1   27.15    1.80
  -3   5  -1    3.57    0.43
  -3   5  -1    3.71    0.38
  -3   5  -1    3.98    0.41
  -4   5  -1   26.05    1.78
  -4   5  -1   29.97    2.11
  -4   5  -1   29.20    1.97
  -4   5  -1   29.02    1.98
  -4   5  -1   25.88    1.76
  -5   5  -1   18.99    1.45
  -5   5  -1   18.26    1.18
  -5   5  -1   19.66    1.35
  -5   5  -1   18.71    1.21
  -5   5  -1   17.43    1.31
  -5   5  -1   17.35    1.28
  -5   5  -1   19.28    1.39
  -5   5  -1   19.05    1.17
  -5   5  -1   19.73    1.36
  -6   5  -1    0.34    0.12
  -6   5  -1    0.64    0.11
  -6   5  -1    0.48    0.25
  -6   5  -1    0.48    0.10
  -6   5  -1    0.20    0.24
  -6   5  -1    0.77    0.26
  -6   5  -1    0.32    0.14
  -6   5  -1    0.43    0.16
  -7   5  -1    3.56    0.47
  -7   5  -1    4.50    0.36
  -7   5  -1    4.11    0.38
  -7   5  -1    4.67    0.46
  -7   5  -1    4.54    0.33
  -8   5  -1    1.02    0.26
  -8   5  -1    0.78    0.12
  -8   5  -1    0.78    0.16
  -9   5  -1    5.06    0.43
  -9   5  -1    5.67    0.45
 -10   5  -1    5.54    0.43
 -10   5  -1    4.66    0.38
 -10  -4   1    0.12    0.11
 -10  -4   1    0.06    0.12
  -9  -4   1   -0.02    0.15
  -9  -4   1    0.09    0.15
  -9  -4   1   -0.20    0.16
  -8  -4   1    1.90    0.22
  -8  -4   1    1.60    0.27
  -8  -4   1    1.79    0.21
  -8  -4   1    1.52    0.25
  -7  -4   1    2.14    0.25
  -7  -4   1    2.24    0.29
  -7  -4   1    2.58    0.28
  -7  -4   1    1.62    0.38
  -7  -4   1    1.85    0.23
  -7  -4   1    2.02    0.22
  -6  -4   1    0.11    0.19
  -6  -4   1   -0.10    0.16
  -6  -4   1   -0.01    0.19
  -6  -4   1   -0.09    0.12
  -6  -4   1   -0.06    0.22
  -6  -4   1   -0.17    0.16
  -6  -4   1    0.04    0.04
  -5  -4   1    2.41    0.24
  -5  -4   1    2.62    0.32
  -5  -4   1    1.94    0.33
  -5  -4   1    2.39    0.26
  -5  -4   1    2.24    0.18
  -5  -4   1    2.33    0.25
  -5  -4   1    2.40    0.24
  -4  -4   1    6.01    0.45
  -4  -4   1    6.22    0.54
  -4  -4   1    5.74    0.49
  -3  -4   1    6.17    0.46
  -3  -4   1    5.18    0.52
  -3  -4   1    6.41    0.51
  -3  -4   1    6.07    0.52
  -2  -4   1    1.47    0.20
  -2  -4   1    1.12    0.15
  -2  -4   1    1.48    0.19
  -2  -4   1    1.45    0.20
  -2  -4   1    1.15    0.15
  -2  -4   1    0.87    0.20
   1   4  -1    0.75    0.14
   1   4  -1    0.83    0.15
  -1  -4   1    1.12    0.16
  -1  -4   1    0.78    0.13
  -1  -4   1    0.68    0.14
  -1  -4   1    0.77    0.14
  -1  -4   1    0.95    0.19
   0   4  -1    5.39    0.42
   0   4  -1    4.79    0.45
   0   4  -1    5.32    0.42
   0   4  -1    4.86    0.38
   0   4  -1    4.97    0.42
   0  -4   1    5.38    0.41
   0  -4   1    5.07    0.42
   0  -4   1    5.23    0.41
   0  -4   1    5.69    0.43
   0  -4   1    4.81    0.47
  -1   4  -1   97.16    6.27
  -1   4  -1   94.42    6.18
  -1   4  -1   93.45    6.18
  -1   4  -1   89.06    6.72
  -1   4  -1   92.04    6.28
   1  -4   1   95.11    6.27
   1  -4   1   87.80    6.28
   1  -4   1   91.06    6.18
   1  -4   1   83.89    6.72
   1  -4   1   93.85    6.18
  -2   4  -1    0.53    0.15
  -2   4  -1    0.70    0.19
  -2   4  -1    0.48    0.12
  -2   4  -1    0.46    0.14
  -2   4  -1    0.37    0.11
   2  -4   1    0.42    0.15
   2  -4   1    0.49    0.15
  -3   4  -1    0.04    0.14
  -3   4  -1   -0.04    0.11
  -3   4  -1   -0.19    0.17
  -4   4  -1   52.46    3.54
  -4   4  -1   46.68    3.59
  -4   4  -1   52.23    3.57
  -4   4  -1   53.86    3.80
  -5   4  -1    1.44    0.14
  -5   4  -1    1.52    0.25
  -5   4  -1    1.40    0.15
  -5   4  -1    0.98    0.24
  -5   4  -1    1.38    0.13
  -5   4  -1    1.05    0.11
  -5   4  -1    1.32    0.22
  -5   4  -1    1.15    0.16
  -5   4  -1    1.35    0.20
  -5   4  -1    1.22    0.23
  -6   4  -1    0.54    0.22
  -6   4  -1    0.56    0.16
  -6   4  -1    0.48    0.23
  -6   4  -1    0.54    0.12
  -6   4  -1    0.39    0.11
  -6   4  -1    0.36    0.23
  -6   4  -1    0.45    0.20
  -6   4  -1    0.54    0.10
  -6   4  -1    0.50    0.10
  -7   4  -1   19.20    1.52
  -7   4  -1   20.70    1.27
  -7   4  -1   18.20    1.52
  -7   4  -1   22.75    1.49
  -7   4  -1   21.48    1.41
  -7   4  -1   20.09    1.44
  -8   4  -1    0.03    0.14
  -8   4  -1    0.18    0.25
  -8   4  -1   -0.06    0.15
  -8   4  -1    0.26    0.10
  -9   4  -1    0.91    0.16
  -9   4  -1    1.11    0.20
 -10   4  -1    1.68    0.20
 -10   4  -1    1.35    0.17
 -10  -3   1    0.80    0.19
 -10  -3   1    1.03    0.15
  -9  -3   1   24.78    1.52
  -9  -3   1   19.60    1.56
  -9  -3   1   19.70    1.63
  -9  -3   1   23.70    1.43
  -8  -3   1    3.85    0.35
  -8  -3   1    4.10    0.43
  -8  -3   1    2.94    0.35
  -8  -3   1    3.70    0.37
  -8  -3   1    4.45    0.34
  -8  -3   1    3.55    0.37
  -7  -3   1    7.44    0.55
  -7  -3   1    7.92    0.59
  -7  -3   1    5.95    0.53
  -7  -3   1    7.04    0.50
  -7  -3   1    6.40    0.54
  -7  -3   1    6.89    0.57
  -6  -3   1    4.22    0.35
  -6  -3   1    4.48    0.41
  -6  -3   1    4.48    0.41
  -6  -3   1    5.08    0.54
  -6  -3   1    4.16    0.36
  -6  -3   1    3.55    0.34
  -6  -3   1    3.56    0.46
  -6  -3   1    3.67    0.36
  -5  -3   1    9.68    0.80
  -5  -3   1   10.29    0.83
  -4  -3   1   28.42    2.50
  -4  -3   1   32.97    2.20
  -4  -3   1   31.88    2.18
   3   3  -1   63.29    4.36
  -3  -3   1   65.74    4.42
  -3  -3   1   72.43    4.50
  -3  -3   1   61.64    4.36
  -3  -3   1   62.23    4.74
  -3  -3   1   61.51    4.42
  -3  -3   1   61.78    5.19
  -3  -3   1   68.44    4.47
  -3  -3   1   68.36    4.74
  -3  -3   1   64.19    4.36
   2   3  -1   38.87    2.52
   2   3  -1   38.13    2.52
  -2  -3   1   39.97    2.56
  -2  -3   1   36.84    2.52
  -2  -3   1   34.56    2.56
  -2  -3   1   35.53    2.74
  -2  -3   1   39.88    2.59
  -2  -3   1   40.65    2.75
  -2  -3   1   31.84    3.00
  -2  -3   1   37.07    2.52
   1   3  -1    4.14    0.34
   1   3  -1    4.52    0.34
   1   3  -1    4.75    0.34
   1   3  -1    3.86    0.36
  -1  -3   1    4.45    0.35
  -1  -3   1    4.15    0.34
  -1  -3   1    4.33    0.38
  -1  -3   1    3.52    0.35
  -1  -3   1    4.59    0.35
   0   3  -1   10.80    0.80
   0   3  -1   11.42    0.87
   0   3  -1   11.71    0.81
   0   3  -1   11.35    0.82
   0   3  -1   12.15    0.81
   0  -3   1   11.79    0.81
   0  -3   1   11.61    0.82
   0  -3   1   11.31    0.81
   0  -3   1   11.31    0.81
   0  -3   1   11.28    0.88
  -1   3  -1   24.65    1.65
  -1   3  -1   24.49    1.63
  -1   3  -1   23.50    1.65
  -1   3  -1   24.21    1.77
  -1   3  -1   23.64    1.63
   1  -3   1   23.25    1.64
   1  -3   1   24.39    1.66
   1  -3   1   22.59    1.78
   1  -3   1   23.59    1.63
   1  -3   1   24.41    1.64
  -2   3  -1   52.25    3.37
  -2   3  -1   52.67    3.36
  -2   3  -1   52.18    3.31
  -2   3  -1   47.40    3.31
  -2   3  -1   52.89    3.61
   2  -3   1   45.80    3.36
   2  -3   1   42.75    3.35
   2  -3   1   47.24    3.31
   2  -3   1   54.52    3.32
   2  -3   1   43.24    3.60
  -3   3  -1   71.86    4.69
  -3   3  -1   72.88    5.03
  -3   3  -1   72.87    4.71
  -3   3  -1   64.22    4.62
  -3   3  -1   63.23    4.61
   3  -3   1   69.88    4.62
   3  -3   1   65.09    4.62
  -4   3  -1    0.68    0.16
  -4   3  -1    0.62    0.15
  -4   3  -1    0.88    0.17
  -4   3  -1    0.66    0.22
  -5   3  -1    8.15    0.64
  -5   3  -1    7.94    0.71
  -5   3  -1    8.22    0.67
  -5   3  -1    8.73    0.68
  -6   3  -1    8.33    0.63
  -6   3  -1    7.20    0.52
  -6   3  -1    7.81    0.62
  -6   3  -1    7.91    0.51
  -6   3  -1    8.23    0.59
  -6   3  -1    7.31    0.64
  -6   3  -1    8.77    0.70
  -6   3  -1    8.69    0.58
  -6   3  -1    7.59    0.63
  -6   3  -1    7.60    0.72
  -7   3  -1    1.71    0.26
  -7   3  -1    1.42    0.19
  -7   3  -1    1.62    0.15
  -7   3  -1    1.77    0.18
  -7   3  -1    1.41    0.22
  -7   3  -1    1.19    0.30
  -8   3  -1    0.46    0.18
  -8   3  -1    0.29    0.09
  -8   3  -1    0.16    0.25
  -8   3  -1    0.14    0.15
  -8   3  -1    0.23    0.16
  -9   3  -1    0.23    0.17
  -9   3  -1    0.60    0.16
  -9   3  -1    0.63    0.19
 -10   3  -1    0.54    0.11
 -10   3  -1    0.49    0.16
 -10  -2   1    3.64    0.36
 -10  -2   1    3.24    0.28
 -10  -2   1    2.99    0.30
  -9  -2   1    0.68    0.18
  -9  -2   1    0.79    0.14
  -9  -2   1    0.51    0.24
  -9  -2   1    0.81    0.21
  -9  -2   1    0.58    0.14
  -9  -2   1    0.73    0.15
  -8  -2   1   -0.25    0.14
  -8  -2   1    0.02    0.13
  -8  -2   1   -0.12    0.17
  -8  -2   1    0.07    0.14
  -8  -2   1    0.17    0.20
  -8  -2   1   -0.03    0.15
  -8  -2   1   -0.09    0.22
  -7  -2   1    3.27    0.30
  -7  -2   1    2.95    0.31
  -7  -2   1    3.09    0.28
  -7  -2   1    2.14    0.29
  -7  -2   1    3.06    0.29
  -7  -2   1    3.21    0.36
  -7  -2   1    2.91    0.35
  -7  -2   1    2.69    0.40
  -7  -2   1    2.48    0.25
  -6  -2   1   39.98    3.05
  -6  -2   1   41.91    3.03
  -6  -2   1   45.17    3.29
  -6  -2   1   49.06    3.17
  -6  -2   1   45.69    3.14
  -6  -2   1   46.72    3.05
  -6  -2   1   50.20    3.15
  -6  -2   1   43.86    2.87
  -6  -2   1   41.97    3.27
  -6  -2   1   45.65    3.11
  -5  -2   1   18.12    1.26
  -5  -2   1   16.30    1.42
  -5  -2   1   18.83    1.26
  -5  -2   1   15.81    1.23
  -4  -2   1   12.39    1.06
  -4  -2   1   11.98    0.91
  -4  -2   1   12.94    0.94
  -4  -2   1   13.04    0.93
   3   2  -1  154.71   10.75
  -3  -2   1  167.54   11.70
  -3  -2   1  157.18   10.97
  -3  -2   1  167.62   11.70
  -3  -2   1  168.09   10.99
  -3  -2   1  148.86   12.80
  -3  -2   1  162.08   10.75
  -3  -2   1  159.19   10.92
  -3  -2   1  159.45   11.04
  -3  -2   1  162.66   10.92
   2   2  -1  273.75   16.67
   2   2  -1  270.26   16.69
  -2  -2   1  241.76   16.93
  -2  -2   1  258.44   17.10
  -2  -2   1  254.94   17.01
  -2  -2   1  240.50   18.14
  -2  -2   1  247.30   16.96
  -2  -2   1  264.41   16.69
  -2  -2   1  253.65   18.17
  -2  -2   1  216.26   16.66
  -2  -2   1  221.01   19.82
   1   2  -1   10.66    0.68
   1   2  -1   10.31    0.68
  -1  -2   1    9.51    0.73
  -1  -2   1    9.90    0.74
  -1  -2   1    9.81    0.69
  -1  -2   1    9.37    0.68
  -1  -2   1    9.44    0.69
  -1  -2   1    9.02    0.68
  -1  -2   1    9.96    0.68
   0   2  -1  436.33   31.96
   0   2  -1  457.60   31.88
   0   2  -1  454.16   34.20
   0   2  -1  504.14   31.43
   0   2  -1  495.28   31.43
   0  -2   1  489.34   31.42
   0  -2   1  495.62   31.43
   0  -2   1  455.87   31.89
   0  -2   1  452.32   32.01
   0  -2   1  447.76   34.20
  -1   2  -1  171.96   11.04
  -1   2  -1  157.04   11.25
  -1   2  -1  160.54   11.24
  -1   2  -1  177.26   11.11
  -1   2  -1  164.38   12.02
   1  -2   1  171.44   11.08
   1  -2   1  156.60   12.02
   1  -2   1  146.77   11.26
   1  -2   1  184.12   11.12
   1  -2   1  162.00   11.22
  -2   2  -1    3.56    0.28
  -2   2  -1    3.54    0.28
  -2   2  -1    3.50    0.31
  -2   2  -1    3.50    0.28
   2  -2   1    3.35    0.28
   2  -2   1    3.72    0.28
   2  -2   1    2.98    0.31
  -3   2  -1   29.47    1.93
  -3   2  -1   29.97    2.04
  -3   2  -1   27.66    1.88
  -3   2  -1   29.40    1.91
  -3   2  -1   27.61    1.88
  -3   2  -1   24.34    1.90
  -3   2  -1   27.52    1.95
  -3   2  -1   25.02    2.04
   3  -2   1   28.10    1.88
   3  -2   1   27.62    1.88
  -4   2  -1   54.12    3.78
  -4   2  -1   50.36    3.98
  -4   2  -1   58.56    3.75
  -4   2  -1   50.31    3.65
  -4   2  -1   58.94    3.98
  -4   2  -1   59.12    3.72
  -4   2  -1   48.89    3.71
  -5   2  -1   10.89    0.80
  -5   2  -1   10.35    0.75
  -5   2  -1    9.57    0.83
  -5   2  -1   10.35    0.79
  -6   2  -1   23.52    1.84
  -6   2  -1   25.03    1.69
  -6   2  -1   24.83    1.75
  -6   2  -1   23.81    1.80
  -6   2  -1   24.53    1.53
  -6   2  -1   26.78    1.79
  -6   2  -1   24.57    1.81
  -6   2  -1   24.64    1.73
  -7   2  -1    3.05    0.35
  -7   2  -1    2.71    0.37
  -7   2  -1    3.25    0.38
  -7   2  -1    2.64    0.29
  -7   2  -1    2.64    0.30
  -7   2  -1    2.74    0.21
  -8   2  -1    1.94    0.36
  -8   2  -1    2.46    0.24
  -8   2  -1    2.45    0.32
  -8   2  -1    2.39    0.29
  -8   2  -1    2.00    0.27
  -9   2  -1    0.21    0.14
  -9   2  -1   -0.50    0.25
  -9   2  -1    0.14    0.11
 -10   2  -1    0.54    0.11
 -10   2  -1    0.46    0.15
 -10   2  -1    0.46    0.17
 -11   2  -1    0.22    0.12
 -10  -1   1    1.62    0.17
 -10  -1   1    1.46    0.20
 -10  -1   1    1.64    0.20
  -9  -1   1    0.27    0.13
  -9  -1   1    0.41    0.17
  -9  -1   1    0.19    0.17
  -9  -1   1    0.34    0.13
  -9  -1   1    0.38    0.16
  -9  -1   1    0.24    0.14
  -8  -1   1    1.97    0.21
  -8  -1   1    2.08    0.24
  -8  -1   1    2.24    0.25
  -8  -1   1    2.18    0.23
  -8  -1   1    2.51    0.28
  -8  -1   1    2.56    0.29
  -8  -1   1    2.26    0.26
  -8  -1   1    2.09    0.23
  -7  -1   1    7.70    0.60
  -7  -1   1    8.23    0.63
  -7  -1   1    5.97    0.64
  -7  -1   1    7.18    0.54
  -7  -1   1    8.56    0.62
  -7  -1   1    7.84    0.56
  -7  -1   1    7.13    0.58
  -7  -1   1    8.51    0.60
  -7  -1   1    7.08    0.55
  -6  -1   1    0.91    0.22
  -6  -1   1    1.33    0.14
  -6  -1   1    1.30    0.19
  -6  -1   1    1.75    0.21
  -6  -1   1    1.40    0.17
  -6  -1   1    0.89    0.23
  -6  -1   1    1.16    0.16
  -6  -1   1    1.25    0.24
  -6  -1   1    1.08    0.25
  -5  -1   1   16.34    1.16
  -5  -1   1   16.09    1.17
  -5  -1   1   15.85    1.34
  -5  -1   1   15.98    1.16
  -4  -1   1  161.28   12.82
  -4  -1   1  158.82   11.00
  -4  -1   1  159.19   11.00
  -4  -1   1  164.39   11.06
  -3  -1   1   32.19    2.58
  -3  -1   1   31.71    2.22
  -3  -1   1   32.13    2.21
  -3  -1   1   32.13    2.23
   2   1  -1    2.49    0.16
   2   1  -1    2.80    0.17
  -2  -1   1    2.06    0.21
  -2  -1   1    2.35    0.17
  -2  -1   1    2.02    0.17
  -2  -1   1    2.22    0.20
  -2  -1   1    2.28    0.25
  -2  -1   1    2.34    0.18
  -2  -1   1    2.40    0.17
  -2  -1   1    2.13    0.18
  -2  -1   1    2.25    0.21
  -2  -1   1    2.10    0.17
   1   1  -1  120.86    7.46
   1   1  -1  115.14    7.45
  -1  -1   1   95.09    8.85
  -1  -1   1  114.69    7.46
  -1  -1   1  114.49    8.11
  -1  -1   1  106.98    7.55
  -1  -1   1  111.39    8.11
  -1  -1   1  111.28    7.57
  -1  -1   1  109.88    7.59
  -1  -1   1  112.06    7.45
   0   1  -1   34.18    2.08
   0   1  -1   31.70    2.08
   0   1  -1   28.82    2.11
   0   1  -1   28.77    2.27
   0  -1   1   29.29    2.11
   0  -1   1   31.26    2.08
   0  -1   1   30.04    2.27
   0  -1   1   29.05    2.12
   0  -1   1   32.93    2.08
  -1   1  -1   31.15    2.11
  -1   1  -1   32.56    2.08
  -1   1  -1   30.66    2.26
  -1   1  -1   29.65    2.12
  -1   1  -1   27.97    2.26
   1  -1   1   33.12    2.08
   1  -1   1   28.93    2.26
   1  -1   1   30.18    2.11
   1  -1   1   33.21    2.08
  -2   1  -1   49.39    3.60
  -2   1  -1   48.60    3.81
  -2   1  -1   46.37    3.55
  -2   1  -1   51.03    3.50
  -2   1  -1   53.90    3.81
  -2   1  -1   50.87    3.57
  -2   1  -1   52.85    3.55
  -2   1  -1   55.76    3.50
   2  -1   1   58.02    3.50
   2  -1   1   53.22    3.50
  -3   1  -1    4.55    0.36
  -3   1  -1    4.06    0.32
  -3   1  -1    4.43    0.33
  -3   1  -1    4.24    0.36
  -3   1  -1    4.45    0.32
  -3   1  -1    4.57    0.34
  -3   1  -1    3.93    0.31
  -3   1  -1    4.40    0.40
  -3   1  -1    4.11    0.35
   3  -1   1    4.63    0.33
   3  -1   1    4.63    0.32
  -4   1  -1    4.82    0.41
  -4   1  -1    4.88    0.37
  -4   1  -1    4.31    0.37
  -4   1  -1    4.39    0.33
  -4   1  -1    4.55    0.43
  -4   1  -1    4.19    0.35
  -4   1  -1    4.47    0.37
  -4   1  -1    4.74    0.34
   4  -1   1    4.39    0.34
  -5   1  -1    2.51    0.33
  -5   1  -1    2.59    0.21
  -5   1  -1    1.85    0.25
  -5   1  -1    2.41    0.19
  -6   1  -1    0.46    0.12
  -6   1  -1    0.37    0.12
  -6   1  -1    0.16    0.22
  -6   1  -1    0.40    0.07
  -6   1  -1    0.48    0.11
  -6   1  -1    0.24    0.18
  -6   1  -1    0.31    0.21
  -6   1  -1    0.29    0.12
  -7   1  -1    3.26    0.29
  -7   1  -1    3.22    0.32
  -7   1  -1    3.69    0.44
  -7   1  -1    2.96    0.21
  -7   1  -1    3.06    0.31
  -7   1  -1    2.83    0.37
  -7   1  -1    2.36    0.39
  -7   1  -1    3.43    0.38
  -8   1  -1   18.96    1.34
  -8   1  -1   19.66    1.46
  -8   1  -1   19.72    1.41
  -8   1  -1   18.90    1.37
  -9   1  -1    2.79    0.30
  -9   1  -1    2.09    0.29
  -9   1  -1    2.36    0.27
 -10   1  -1    0.50    0.17
 -10   1  -1    0.27    0.17
 -10   1  -1    0.28    0.14
 -11   1  -1    0.35    0.17
 -11   0   1   -0.07    0.11
 -10   0   1    0.59    0.23
 -10   0   1    0.66    0.12
 -10   0   1    0.88    0.13
  -9   0   1   -0.11    0.15
  -9   0   1    0.13    0.12
  -9   0   1   -0.20    0.23
  -9   0   1   -0.02    0.14
  -9   0   1    0.14    0.17
  -8   0   1   -0.11    0.16
  -8   0   1   -0.10    0.15
  -8   0   1    0.17    0.13
  -8   0   1   -0.05    0.15
  -8   0   1    0.02    0.21
  -8   0   1   -0.03    0.31
  -8   0   1    0.40    0.18
  -7   0   1   22.40    1.66
  -7   0   1   25.26    1.60
  -7   0   1   21.21    1.55
  -7   0   1   24.27    1.62
  -7   0   1   20.81    1.66
  -7   0   1   20.30    1.68
  -7   0   1   24.43    1.56
  -6   0   1    7.41    0.67
  -6   0   1    7.99    0.64
  -6   0   1    8.77    0.70
  -6   0   1    9.82    0.81
  -6   0   1    8.08    0.65
  -6   0   1    8.53    0.60
  -6   0   1    8.33    0.62
  -5   0   1    3.63    0.36
  -5   0   1    3.79    0.41
  -5   0   1    3.10    0.34
  -5   0   1    3.71    0.35
  -4   0   1   10.92    0.83
  -4   0   1   11.51    0.83
  -4   0   1   11.96    0.97
  -4   0   1   11.07    0.82
  -3   0   1    9.81    0.71
  -3   0   1   10.43    0.71
  -3   0   1    9.01    0.71
  -3   0   1    9.80    0.83
   2   0  -1   67.81    4.48
   2   0  -1   75.14    4.48
  -2   0   1   66.54    5.34
  -2   0   1   68.25    4.48
  -2   0   1   66.17    4.55
  -2   0   1   67.56    4.58
  -2   0   1   69.00    4.88
  -2   0   1   61.81    4.87
  -2   0   1   62.95    4.58
  -2   0   1   71.66    4.48
  -2   0   1   66.89    4.55
  -2   0   1   59.26    4.60
   1   0  -1  116.08    7.53
  -1   0   1  112.04    7.66
  -1   0   1  116.69    7.55
  -1   0   1  116.96    8.20
  -1   0   1  100.81    8.93
  -1   0   1  112.46    7.65
  -1   0   1  118.18    7.54
  -1   0   1  111.65    8.19
  -1   0   1  104.84    7.63
   0   0  -1   40.06    2.90
   0   0  -1   40.36    2.67
   0   0  -1   40.37    2.71
   0   0  -1   43.35    2.67
   0   0   1   38.70    2.67
   0   0   1   39.80    2.90
   0   0   1   42.01    2.67
   0   0   1   33.34    3.17
   0   0   1   39.16    2.71
  -1   0  -1    7.59    0.61
  -1   0  -1    8.70    0.64
  -1   0  -1    8.19    0.60
  -1   0  -1    7.45    0.60
  -1   0  -1    8.72    0.61
  -1   0  -1    8.85    0.60
  -1   0  -1    8.58    0.60
  -1   0  -1    7.24    0.64
   1   0   1    9.68    0.60
   1   0   1    8.54    0.60
   1   0   1    8.33    0.64
  -2   0  -1   11.03    0.84
  -2   0  -1   13.14    0.90
  -2   0  -1   12.41    0.86
  -2   0  -1   13.03    0.83
  -2   0  -1   11.85    0.84
  -2   0  -1   11.71    0.88
  -2   0  -1   12.62    0.85
  -2   0  -1   10.91    0.90
  -2   0  -1   11.14    0.85
   2   0   1   12.35    0.83
   2   0   1   13.23    0.83
  -3   0  -1   30.86    2.04
  -3   0  -1   30.65    2.08
  -3   0  -1   31.25    2.13
  -3   0  -1   32.48    2.22
  -3   0  -1   29.52    2.05
  -3   0  -1   32.30    2.11
  -3   0  -1   28.56    2.22
  -3   0  -1   28.92    2.07
  -3   0  -1   28.79    2.09
   3   0   1   30.52    2.04
   3   0   1   29.97    2.04
  -4   0  -1    1.60    0.15
  -4   0  -1    1.27    0.12
  -4   0  -1    1.20    0.15
  -4   0  -1    1.57    0.22
  -4   0  -1    1.42    0.13
  -4   0  -1    1.31    0.19
   4   0   1    1.23    0.11
   4   0   1    1.24    0.12
  -5   0  -1    4.35    0.44
  -5   0  -1    4.91    0.47
  -6   0  -1   -0.04    0.16
  -6   0  -1    0.35    0.29
  -6   0  -1    0.03    0.06
  -6   0  -1    0.20    0.11
  -6   0  -1   -0.18    0.14
  -6   0  -1    0.15    0.22
  -6   0  -1   -0.02    0.09
  -6   0  -1    0.18    0.19
  -7   0  -1   14.52    1.09
  -7   0  -1   13.44    1.11
  -7   0  -1   13.66    1.04
  -7   0  -1   14.63    1.17
  -7   0  -1   16.03    1.15
  -7   0  -1   15.77    1.07
  -7   0  -1   16.58    1.05
  -8   0  -1    1.20    0.17
  -8   0  -1    1.48    0.22
  -8   0  -1    1.34    0.19
  -8   0  -1    1.40    0.21
  -8   0  -1    1.58    0.20
  -9   0  -1    6.97    0.57
  -9   0  -1    8.09    0.66
  -9   0  -1    8.32    0.66
 -10   0  -1    1.35    0.21
 -10   0  -1    1.45    0.19
 -10   0  -1    1.58    0.19
 -11   0  -1    0.24    0.12
 -11   1   1    4.62    0.37
 -11   1   1    4.03    0.33
 -10   1   1    1.45    0.19
 -10   1   1    1.33    0.25
 -10   1   1    1.12    0.18
  -9   1   1    0.10    0.23
  -9   1   1    0.04    0.15
  -9   1   1   -0.08    0.16
  -8   1   1    2.90    0.31
  -8   1   1    2.21    0.30
  -8   1   1    2.71    0.32
  -8   1   1    3.14    0.29
  -8   1   1    3.00    0.34
  -8   1   1    2.02    0.37
  -7   1   1    4.79    0.41
  -7   1   1    4.51    0.44
  -7   1   1    3.41    0.40
  -7   1   1    4.91    0.40
  -7   1   1    4.46    0.41
  -7   1   1    4.97    0.39
  -7   1   1    3.82    0.47
  -6   1   1    2.98    0.31
  -6   1   1    3.50    0.29
  -6   1   1    4.35    0.39
  -6   1   1    2.97    0.22
  -6   1   1    3.21    0.32
  -6   1   1    2.95    0.34
  -5   1   1   24.78    1.95
  -5   1   1   28.19    1.96
  -5   1   1   30.77    2.29
   4  -1  -1   50.30    3.42
   4  -1  -1   47.28    3.42
  -4   1   1   47.61    3.52
  -4   1   1   48.22    3.42
  -4   1   1   48.87    3.72
  -4   1   1   53.55    3.47
  -4   1   1   57.97    4.11
  -4   1   1   54.71    3.52
   3  -1  -1  210.60   13.45
   3  -1  -1  208.53   13.45
  -3   1   1  179.91   14.64
  -3   1   1  193.17   13.66
  -3   1   1  212.00   14.69
  -3   1   1  202.29   13.45
  -3   1   1  213.35   16.01
  -3   1   1  200.17   13.73
  -3   1   1  202.54   13.45
  -3   1   1  186.10   13.79
  -3   1   1  203.86   13.67
   2  -1  -1   14.68    0.92
   2  -1  -1   13.99    0.92
  -2   1   1   12.27    0.93
  -2   1   1   13.30    1.10
  -2   1   1   13.78    0.91
  -2   1   1   13.07    0.94
  -2   1   1   13.85    0.93
  -2   1   1   13.97    0.92
  -2   1   1   13.80    0.99
  -2   1   1   12.32    0.93
  -2   1   1   11.66    0.99
   1  -1  -1    0.80    0.13
   1  -1  -1    0.98    0.14
   1  -1  -1    0.92    0.13
   1  -1  -1    1.11    0.13
  -1   1   1    1.10    0.13
  -1   1   1    0.96    0.13
  -1   1   1    1.10    0.13
  -1   1   1    0.92    0.16
  -1   1   1    1.23    0.13
  -1   1   1    1.06    0.14
   0  -1  -1   55.46    3.99
   0  -1  -1   58.59    4.28
   0  -1  -1   63.18    3.94
   0  -1  -1   59.05    3.93
   0  -1  -1   56.27    4.03
   0   1   1   59.23    4.28
   0   1   1   54.49    3.99
   0   1   1   57.23    4.67
   0   1   1   58.94    3.94
   0   1   1   61.41    3.93
  -1  -1  -1  595.15   41.82
  -1  -1  -1  601.34   44.82
  -1  -1  -1  646.60   41.20
  -1  -1  -1  575.76   42.22
   1   1   1  559.20   44.80
   1   1   1  665.24   41.21
   1   1   1  663.00   41.20
  -2  -1  -1   59.24    4.06
  -2  -1  -1   58.66    3.79
  -2  -1  -1   54.39    3.84
  -2  -1  -1   48.04    3.73
  -2  -1  -1   54.92    3.81
  -2  -1  -1   48.61    3.79
  -2  -1  -1   51.26    4.06
  -2  -1  -1   60.63    3.73
   2   1   1   64.32    3.73
   2   1   1   55.58    3.74
  -3  -1  -1   13.15    0.91
  -3  -1  -1   12.88    0.85
  -3  -1  -1   12.25    0.87
  -3  -1  -1   12.05    0.83
  -3  -1  -1   12.22    0.91
  -3  -1  -1   12.11    0.90
  -3  -1  -1   11.04    0.85
  -3  -1  -1   10.89    0.83
   3   1   1   12.49    0.83
   3   1   1   11.97    0.84
  -4  -1  -1    7.25    0.53
  -4  -1  -1    7.01    0.49
  -4  -1  -1    7.38    0.48
  -4  -1  -1    7.19    0.59
  -4  -1  -1    6.62    0.48
  -4  -1  -1    6.72    0.54
  -4  -1  -1    7.30    0.52
  -4  -1  -1    6.74    0.48
   4   1   1    6.22    0.47
  -5  -1  -1    4.97    0.45
  -5  -1  -1    5.71    0.53
  -6  -1  -1    1.94    0.19
  -6  -1  -1    2.79    0.40
  -6  -1  -1    2.00    0.25
  -6  -1  -1    2.09    0.20
  -6  -1  -1    2.08    0.15
  -6  -1  -1    2.46    0.26
  -6  -1  -1    2.12    0.26
  -6  -1  -1    1.96    0.21
  -7  -1  -1   17.70    1.21
  -7  -1  -1   18.10    1.25
  -7  -1  -1   16.59    1.33
  -7  -1  -1   18.25    1.30
  -7  -1  -1   16.29    1.18
  -7  -1  -1   15.46    1.18
  -8  -1  -1    2.01    0.21
  -8  -1  -1    2.16    0.23
  -8  -1  -1    1.24    0.39
  -8  -1  -1    1.97    0.28
  -8  -1  -1    1.90    0.30
  -9  -1  -1    4.96    0.47
  -9  -1  -1    3.96    0.41
  -9  -1  -1    4.09    0.37
  -9  -1  -1    4.85    0.38
 -10  -1  -1   -0.02    0.18
 -10  -1  -1   -0.31    0.22
 -11   2   1   -0.13    0.11
 -10   2   1   -0.08    0.20
 -10   2   1    0.01    0.14
 -10   2   1    0.02    0.10
  -9   2   1    4.72    0.42
  -9   2   1    5.01    0.44
  -9   2   1    5.81    0.49
  -8   2   1    0.67    0.16
  -8   2   1    0.55    0.28
  -8   2   1    0.79    0.17
  -8   2   1    0.91    0.20
  -8   2   1    0.79    0.25
  -7   2   1    0.10    0.13
  -7   2   1    0.18    0.16
  -7   2   1    0.73    0.29
  -7   2   1    0.00    0.07
  -7   2   1   -0.03    0.13
  -7   2   1    0.36    0.14
  -6   2   1    7.34    0.47
  -6   2   1    7.31    0.66
  -6   2   1    7.51    0.56
  -6   2   1    7.51    0.59
  -6   2   1    7.11    0.59
  -6   2   1    7.56    0.54
  -5   2   1    0.51    0.17
  -5   2   1    0.56    0.12
  -4   2   1    9.24    0.72
  -4   2   1    9.14    0.74
  -4   2   1   11.67    0.78
  -4   2   1   10.90    0.73
  -4   2   1   11.10    0.78
  -4   2   1    9.81    0.77
  -4   2   1    9.48    0.72
   3  -2  -1  141.96    9.24
   3  -2  -1  140.39    9.24
  -3   2   1  139.89    9.24
  -3   2   1  142.77    9.38
  -3   2   1  120.49    9.46
  -3   2   1  140.61    9.24
  -3   2   1  153.77   11.00
  -3   2   1  136.87    9.43
  -3   2   1  119.82    9.38
  -3   2   1  142.24   10.06
   2  -2  -1    0.74    0.15
   2  -2  -1    0.82    0.16
   2  -2  -1    0.62    0.14
   2  -2  -1    0.86    0.15
  -2   2   1    0.53    0.12
  -2   2   1    0.83    0.14
  -2   2   1    0.90    0.15
  -2   2   1    0.97    0.14
  -2   2   1    1.09    0.17
  -2   2   1    0.89    0.13
   1  -2  -1   33.26    2.48
   1  -2  -1   39.20    2.45
   1  -2  -1   38.37    2.45
   1  -2  -1   31.08    2.66
  -1   2   1   38.62    2.45
  -1   2   1   38.73    2.45
  -1   2   1   34.57    2.66
  -1   2   1   35.82    2.48
   0  -2  -1    2.43    0.27
   0  -2  -1    2.48    0.25
   0  -2  -1    2.21    0.24
   0  -2  -1    2.31    0.24
   0   2   1    2.60    0.25
   0   2   1    2.33    0.23
   0   2   1    2.48    0.25
   0   2   1    2.43    0.23
  -1  -2  -1  525.45   44.79
  -1  -2  -1  665.66   44.92
  -1  -2  -1  608.05   42.28
  -1  -2  -1  637.00   41.87
  -1  -2  -1  602.09   41.21
  -1  -2  -1  632.23   41.25
   1   2   1  582.83   41.83
   1   2   1  582.96   44.85
   1   2   1  633.01   41.25
   1   2   1  689.68   41.27
  -2  -2  -1   36.12    2.46
  -2  -2  -1   38.32    2.50
  -2  -2  -1   32.99    2.68
  -2  -2  -1   35.11    2.52
  -2  -2  -1   37.85    2.68
  -2  -2  -1   35.60    2.47
  -2  -2  -1   37.28    2.54
   2   2   1   38.77    2.46
   2   2   1   36.08    2.47
  -3  -2  -1  130.14    8.14
  -3  -2  -1  100.00    7.96
  -3  -2  -1  119.52    7.96
  -3  -2  -1  131.49    8.08
  -3  -2  -1  131.90    8.67
  -3  -2  -1  115.05    8.66
  -3  -2  -1  129.08    8.19
  -3  -2  -1  101.92    8.08
   3   2   1  105.93    7.96
   3   2   1  123.08    7.96
  -4  -2  -1   14.87    0.97
  -4  -2  -1   14.69    1.05
  -4  -2  -1   12.35    0.97
  -4  -2  -1   13.37    1.04
  -4  -2  -1   14.74    1.05
  -4  -2  -1   13.98    1.03
  -5  -2  -1    2.23    0.36
  -5  -2  -1    2.33    0.29
  -6  -2  -1    9.56    0.75
  -6  -2  -1    8.60    0.81
  -6  -2  -1    8.90    0.66
  -6  -2  -1    9.79    0.69
  -6  -2  -1    8.74    0.57
  -6  -2  -1    9.73    0.73
  -6  -2  -1    8.61    0.63
  -7  -2  -1    2.83    0.29
  -7  -2  -1    2.45    0.31
  -7  -2  -1    2.39    0.29
  -7  -2  -1    2.41    0.30
  -7  -2  -1    2.33    0.42
  -7  -2  -1    2.37    0.24
  -8  -2  -1    0.63    0.18
  -8  -2  -1    0.76    0.18
  -8  -2  -1    0.90    0.17
  -8  -2  -1    0.62    0.17
  -8  -2  -1    0.88    0.19
  -9  -2  -1    2.67    0.29
  -9  -2  -1    2.61    0.30
  -9  -2  -1    2.10    0.32
 -10  -2  -1    3.03    0.31
 -10  -2  -1    3.26    0.28
 -10  -2  -1    2.72    0.31
 -10   3   1    3.72    0.39
 -10   3   1    3.98    0.35
  -9   3   1    0.07    0.23
  -9   3   1    0.13    0.16
  -9   3   1   -0.15    0.15
  -8   3   1    1.66    0.20
  -8   3   1    1.46    0.28
  -8   3   1    1.26    0.20
  -8   3   1    1.52    0.16
  -7   3   1    2.54    0.33
  -7   3   1    2.64    0.31
  -7   3   1    2.78    0.30
  -7   3   1    2.86    0.31
  -7   3   1    2.60    0.22
  -7   3   1    2.58    0.37
  -6   3   1   11.18    0.83
  -6   3   1   12.19    0.87
  -6   3   1   11.48    0.80
  -6   3   1   10.77    0.87
  -6   3   1   10.62    0.74
  -6   3   1   12.04    0.91
  -6   3   1   11.82    0.86
  -6   3   1   11.55    0.72
  -6   3   1   11.16    0.82
  -5   3   1    1.28    0.17
  -5   3   1    1.45    0.26
  -5   3   1    1.38    0.20
  -5   3   1    1.14    0.11
  -4   3   1   84.97    5.57
  -4   3   1   79.88    5.61
  -4   3   1   79.62    5.97
  -3   3   1   66.16    4.66
  -3   3   1   68.44    4.76
  -3   3   1   71.29    5.07
  -3   3   1   70.68    4.73
   2  -3  -1   13.04    0.94
   2  -3  -1   11.48    0.95
   2  -3  -1   13.34    0.94
  -2   3   1   14.11    0.95
  -2   3   1   13.71    1.02
  -2   3   1   13.29    0.95
  -2   3   1   13.24    0.93
  -2   3   1   13.36    0.93
   1  -3  -1    8.56    0.76
   1  -3  -1    9.89    0.70
   1  -3  -1    9.26    0.71
   1  -3  -1    9.45    0.70
  -1   3   1    9.47    0.76
  -1   3   1   10.20    0.71
  -1   3   1   10.04    0.70
  -1   3   1    9.92    0.70
   0  -3  -1    4.82    0.43
   0  -3  -1    4.84    0.37
   0  -3  -1    4.47    0.39
   0  -3  -1    4.67    0.37
   0   3   1    4.38    0.36
   0   3   1    4.32    0.37
   0   3   1    4.94    0.39
   0   3   1    4.17    0.41
  -1  -3  -1   13.47    1.03
  -1  -3  -1   15.01    1.03
  -1  -3  -1   16.24    1.06
  -1  -3  -1   15.28    1.05
  -1  -3  -1   14.57    1.06
  -1  -3  -1   15.33    1.13
   1   3   1   13.20    1.04
   1   3   1   15.80    1.03
   1   3   1   14.38    1.04
   1   3   1   14.07    1.12
  -2  -3  -1   35.23    2.25
  -2  -3  -1   30.68    2.21
  -2  -3  -1   32.27    2.27
  -2  -3  -1   34.55    2.41
  -2  -3  -1   32.99    2.28
  -2  -3  -1   29.89    2.21
   2   3   1   31.81    2.21
  -3  -3  -1    4.26    0.41
  -3  -3  -1    4.22    0.42
  -3  -3  -1    4.34    0.36
  -3  -3  -1    4.08    0.46
  -4  -3  -1   53.33    3.78
  -4  -3  -1   54.56    4.00
  -4  -3  -1   54.85    3.81
  -4  -3  -1   54.90    3.72
  -5  -3  -1   12.10    0.86
  -5  -3  -1   12.39    0.99
  -5  -3  -1   13.62    1.03
  -5  -3  -1   13.08    1.00
  -5  -3  -1   12.88    0.81
  -5  -3  -1   14.10    0.97
  -5  -3  -1   12.88    0.91
  -6  -3  -1    3.80    0.28
  -6  -3  -1    4.50    0.45
  -6  -3  -1    5.33    0.57
  -6  -3  -1    4.19    0.35
  -6  -3  -1    4.92    0.46
  -6  -3  -1    4.57    0.38
  -7  -3  -1    4.96    0.40
  -7  -3  -1    5.20    0.51
  -7  -3  -1    5.35    0.52
  -7  -3  -1    3.68    0.56
  -7  -3  -1    5.21    0.43
  -8  -3  -1    7.59    0.55
  -8  -3  -1    7.63    0.63
  -8  -3  -1    6.51    0.51
  -8  -3  -1    6.27    0.57
  -9  -3  -1    0.71    0.17
  -9  -3  -1    0.37    0.23
 -10  -3  -1   -0.02    0.12
 -10  -3  -1   -0.12    0.13
 -10   4   1    8.98    0.66
  -9   4   1    0.48    0.15
  -9   4   1    0.45    0.17
  -9   4   1    0.21    0.16
  -8   4   1    8.60    0.53
  -8   4   1    7.65    0.61
  -8   4   1    8.28    0.65
  -8   4   1    8.24    0.61
  -7   4   1    3.18    0.37
  -7   4   1    2.50    0.22
  -7   4   1    1.40    0.35
  -7   4   1    2.75    0.30
  -7   4   1    2.41    0.26
  -6   4   1    0.15    0.12
  -6   4   1    0.47    0.24
  -6   4   1    0.14    0.10
  -6   4   1    0.48    0.10
  -6   4   1    0.16    0.19
  -6   4   1    0.24    0.10
  -6   4   1    0.23    0.21
  -6   4   1    0.44    0.21
  -5   4   1    2.68    0.26
  -5   4   1    2.32    0.23
  -5   4   1    3.11    0.33
  -5   4   1    3.30    0.33
  -5   4   1    3.53    0.35
  -5   4   1    2.75    0.24
  -5   4   1    3.44    0.36
  -5   4   1    2.45    0.23
  -5   4   1    2.47    0.19
  -4   4   1   27.84    2.16
  -4   4   1   29.02    2.05
  -4   4   1   29.55    2.02
  -3   4   1   21.53    1.52
  -3   4   1   20.53    1.62
  -3   4   1   21.82    1.51
   2  -4  -1    1.10    0.19
  -2   4   1    1.15    0.19
  -2   4   1    1.88    0.23
  -2   4   1    1.42    0.19
  -2   4   1    1.12    0.23
   1  -4  -1    1.46    0.21
   1  -4  -1    1.62    0.26
   1  -4  -1    1.29    0.21
   1  -4  -1    1.33    0.20
  -1   4   1    1.38    0.19
  -1   4   1    1.35    0.23
  -1   4   1    1.65    0.22
  -1   4   1    1.12    0.19
   0  -4  -1    2.60    0.31
   0  -4  -1    2.54    0.26
   0  -4  -1    2.76    0.28
   0  -4  -1    2.22    0.25
   0   4   1    2.40    0.27
   0   4   1    2.25    0.27
   0   4   1    2.37    0.26
   0   4   1    2.33    0.26
  -1  -4  -1    2.32    0.25
  -1  -4  -1    2.26    0.28
  -1  -4  -1    1.68    0.22
  -1  -4  -1    2.04    0.24
   1   4   1    1.40    0.22
  -2  -4  -1   18.33    1.28
  -2  -4  -1   18.03    1.38
  -2  -4  -1   17.60    1.30
  -3  -4  -1   15.27    1.12
  -3  -4  -1   15.17    1.18
  -3  -4  -1   14.75    1.09
  -3  -4  -1   15.38    1.16
  -4  -4  -1    9.88    0.76
  -4  -4  -1    9.39    0.79
  -4  -4  -1    9.60    0.66
  -4  -4  -1   10.06    0.71
  -4  -4  -1    9.79    0.61
  -4  -4  -1    8.37    0.78
  -4  -4  -1   10.44    0.81
  -4  -4  -1    9.30    0.68
  -4  -4  -1    9.08    0.62
  -5  -4  -1    0.16    0.04
  -5  -4  -1    0.20    0.15
  -5  -4  -1    0.08    0.10
  -5  -4  -1    0.09    0.19
  -5  -4  -1    0.55    0.31
  -5  -4  -1    0.08    0.27
  -5  -4  -1   -0.01    0.13
  -5  -4  -1    0.14    0.13
  -5  -4  -1    0.15    0.09
  -5  -4  -1    0.14    0.15
  -6  -4  -1    8.40    0.63
  -6  -4  -1    8.61    0.54
  -6  -4  -1    7.41    0.80
  -6  -4  -1    8.36    0.77
  -6  -4  -1    7.93    0.66
  -6  -4  -1    8.65    0.60
  -6  -4  -1    8.58    0.72
  -7  -4  -1    1.61    0.30
  -7  -4  -1    2.09    0.24
  -7  -4  -1    2.38    0.24
  -8  -4  -1    9.48    0.65
  -8  -4  -1    8.12    0.73
  -8  -4  -1    9.56    0.68
  -9  -4  -1    1.06    0.17
  -9  -4  -1    1.06    0.15
  -9  -4  -1    1.12    0.19
 -10  -4  -1    0.65    0.14
 -10   5   1    2.91    0.24
 -10   5   1    2.41    0.24
  -9   5   1    0.32    0.15
  -9   5   1    0.25    0.10
  -8   5   1    2.65    0.31
  -8   5   1    2.39    0.22
  -8   5   1    1.95    0.23
  -8   5   1    1.95    0.20
  -7   5   1    2.26    0.24
  -7   5   1    2.63    0.27
  -7   5   1    2.02    0.24
  -7   5   1    2.26    0.20
  -7   5   1    2.38    0.24
  -6   5   1    1.20    0.17
  -6   5   1    0.67    0.26
  -6   5   1    1.00    0.15
  -6   5   1    1.63    0.20
  -6   5   1    0.82    0.29
  -6   5   1    1.04    0.16
  -6   5   1    1.39    0.15
  -5   5   1    1.93    0.17
  -5   5   1    2.98    0.32
  -5   5   1    1.57    0.29
  -5   5   1    2.12    0.24
  -5   5   1    1.68    0.34
  -5   5   1    2.41    0.23
  -5   5   1    1.92    0.24
  -4   5   1   -0.02    0.12
  -4   5   1    0.15    0.12
  -4   5   1    0.02    0.22
  -4   5   1    0.02    0.08
  -4   5   1    0.06    0.21
  -4   5   1    0.05    0.12
  -4   5   1   -0.02    0.18
  -3   5   1   45.40    3.14
  -3   5   1   47.52    3.16
  -3   5   1   42.51    3.36
  -2   5   1   28.31    2.11
  -2   5   1   31.84    2.11
  -2   5   1   29.73    2.26
   1  -5  -1    0.06    0.14
  -1   5   1    0.27    0.19
  -1   5   1    0.22    0.14
  -1   5   1    0.28    0.20
   0  -5  -1    3.07    0.33
   0  -5  -1    2.67    0.31
   0  -5  -1    3.09    0.40
  -1  -5  -1    8.11    0.68
  -1  -5  -1    8.31    0.70
  -1  -5  -1    7.99    0.67
  -2  -5  -1    0.04    0.19
  -2  -5  -1    0.14    0.21
  -2  -5  -1    0.56    0.25
  -3  -5  -1   10.47    0.70
  -3  -5  -1    9.95    0.67
  -3  -5  -1   10.46    0.82
  -3  -5  -1   10.17    0.67
  -3  -5  -1   10.96    0.81
  -3  -5  -1   10.66    0.72
  -3  -5  -1   11.82    0.88
  -3  -5  -1   10.67    0.87
  -4  -5  -1   15.71    1.14
  -4  -5  -1   12.13    1.12
  -4  -5  -1   13.58    0.91
  -4  -5  -1   14.70    1.04
  -4  -5  -1   14.59    1.00
  -4  -5  -1   14.15    0.94
  -4  -5  -1   15.59    0.90
  -4  -5  -1   12.02    0.99
  -4  -5  -1   15.28    1.09
  -5  -5  -1    0.45    0.28
  -5  -5  -1    0.79    0.23
  -5  -5  -1    0.48    0.19
  -5  -5  -1    0.98    0.08
  -5  -5  -1    0.73    0.18
  -5  -5  -1    0.88    0.15
  -5  -5  -1    0.73    0.17
  -5  -5  -1    1.09    0.13
  -5  -5  -1    0.61    0.15
  -6  -5  -1   10.98    1.17
  -6  -5  -1   15.17    0.97
  -6  -5  -1   14.71    0.90
  -6  -5  -1   14.05    1.02
  -6  -5  -1   15.16    1.12
  -7  -5  -1    2.18    0.31
  -7  -5  -1    2.39    0.25
  -7  -5  -1    2.25    0.25
  -8  -5  -1    0.20    0.17
  -8  -5  -1    0.21    0.18
  -8  -5  -1    0.25    0.22
  -9  -5  -1    1.01    0.17
  -9  -5  -1    1.28    0.17
  -9   6   1    0.44    0.13
  -9   6   1    0.33    0.11
  -8   6   1    4.83    0.44
  -8   6   1    4.07    0.38
  -8   6   1    4.54    0.32
  -7   6   1    1.17    0.18
  -7   6   1    1.79    0.27
  -7   6   1    1.66    0.16
  -7   6   1    1.77    0.19
  -6   6   1    2.22    0.29
  -6   6   1    1.82    0.19
  -6   6   1    2.48    0.24
  -6   6   1    2.28    0.21
  -5   6   1    8.69    0.57
  -5   6   1    7.95    0.52
  -5   6   1    7.69    0.70
  -5   6   1    7.56    0.70
  -5   6   1    7.77    0.55
  -5   6   1    7.38    0.59
  -4   6   1    4.19    0.35
  -4   6   1    4.65    0.47
  -4   6   1    4.03    0.33
  -4   6   1    4.27    0.51
  -4   6   1    3.97    0.50
  -4   6   1    4.37    0.35
  -4   6   1    4.57    0.32
  -3   6   1    4.68    0.49
  -3   6   1    4.23    0.52
  -3   6   1    4.50    0.36
  -3   6   1    4.57    0.34
  -3   6   1    4.74    0.52
  -2   6   1    0.91    0.13
  -2   6   1    1.05    0.23
   1  -6  -1   14.22    1.08
  -1   6   1   14.88    1.08
   0  -6  -1    2.41    0.39
   0  -6  -1    1.80    0.31
   0  -6  -1    2.28    0.31
   0  -6  -1    2.13    0.19
   0   6   1    2.05    0.25
  -1  -6  -1    0.15    0.12
  -1  -6  -1   -0.06    0.30
  -1  -6  -1   -0.04    0.10
  -1  -6  -1   -0.15    0.20
  -1  -6  -1    0.09    0.23
  -2  -6  -1    0.28    0.30
  -2  -6  -1    0.09    0.21
  -2  -6  -1   -0.10    0.11
  -2  -6  -1   -0.10    0.08
  -2  -6  -1    0.15    0.25
  -2  -6  -1    0.17    0.11
  -2  -6  -1    0.01    0.13
  -3  -6  -1    2.19    0.20
  -3  -6  -1    2.01    0.31
  -3  -6  -1    1.53    0.34
  -3  -6  -1    1.86    0.21
  -3  -6  -1    1.91    0.34
  -3  -6  -1    1.61    0.15
  -3  -6  -1    2.09    0.23
  -4  -6  -1    1.24    0.18
  -4  -6  -1    1.48    0.17
  -4  -6  -1    1.06    0.26
  -4  -6  -1    1.44    0.34
  -4  -6  -1    1.14    0.18
  -4  -6  -1    1.34    0.15
  -4  -6  -1    0.94    0.32
  -4  -6  -1    1.39    0.21
  -5  -6  -1    0.56    0.13
  -5  -6  -1    0.34    0.07
  -5  -6  -1    0.65    0.38
  -5  -6  -1    0.58    0.18
  -5  -6  -1    0.08    0.23
  -5  -6  -1    0.11    0.18
  -5  -6  -1    0.39    0.18
  -6  -6  -1   -0.26    0.19
  -6  -6  -1   -0.01    0.11
  -6  -6  -1   -0.09    0.15
  -6  -6  -1    0.06    0.16
  -7  -6  -1    2.34    0.24
  -7  -6  -1    1.95    0.23
  -8  -6  -1    0.70    0.18
  -8  -6  -1    0.56    0.12
  -9   7   1    3.63    0.29
  -8   7   1    0.22    0.10
  -8   7   1    0.13    0.14
  -7   7   1    0.26    0.10
  -7   7   1    0.09    0.12
  -7   7   1    0.11    0.22
  -7   7   1    0.30    0.12
  -6   7   1    8.91    0.61
  -6   7   1    9.04    0.71
  -6   7   1    8.39    0.59
  -5   7   1    3.95    0.33
  -5   7   1    3.97    0.29
  -5   7   1    3.51    0.32
  -4   7   1    2.95    0.25
  -4   7   1    2.95    0.30
  -4   7   1    2.61    0.37
  -3   7   1   22.43    1.76
  -3   7   1   25.78    1.55
  -2   7   1    3.29    0.28
   1  -7  -1    7.76    0.55
   0  -7  -1    0.47    0.11
   0  -7  -1    0.47    0.21
  -1  -7  -1    8.39    0.78
  -1  -7  -1    8.36    0.61
  -1  -7  -1    7.98    0.58
  -1  -7  -1    8.64    0.77
  -1  -7  -1    8.91    0.57
  -2  -7  -1   11.51    0.81
  -2  -7  -1   12.43    0.82
  -2  -7  -1   12.11    1.02
  -2  -7  -1   12.51    0.78
  -2  -7  -1   11.29    0.78
  -2  -7  -1   11.58    0.97
  -3  -7  -1   10.56    0.69
  -3  -7  -1   11.50    0.74
  -3  -7  -1   11.14    0.73
  -3  -7  -1   10.87    0.82
  -3  -7  -1   11.44    0.75
  -3  -7  -1    9.27    0.92
  -4  -7  -1    3.72    0.40
  -4  -7  -1    3.80    0.36
  -4  -7  -1    3.89    0.32
  -4  -7  -1    3.83    0.31
  -5  -7  -1    1.25    0.14
  -5  -7  -1    1.05    0.22
  -5  -7  -1    0.87    0.16
  -5  -7  -1    1.91    0.22
  -6  -7  -1    7.83    0.51
  -6  -7  -1    7.59    0.58
  -7  -7  -1    0.42    0.18
  -7  -7  -1    0.41    0.13
  -8  -7  -1   -0.04    0.11
  -8  -7  -1    0.08    0.09
  -8   8   1    0.57    0.10
  -8   8   1    0.37    0.11
  -7   8   1    6.51    0.42
  -7   8   1    5.55    0.47
  -6   8   1    4.68    0.34
  -6   8   1    4.28    0.39
  -6   8   1    4.28    0.34
  -5   8   1    0.19    0.15
  -5   8   1   -0.02    0.08
  -5   8   1   -0.01    0.18
  -5   8   1    0.22    0.14
  -4   8   1    1.74    0.22
  -4   8   1    2.44    0.24
  -3   8   1    3.32    0.32
  -2   8   1    0.46    0.13
   1  -8  -1    5.48    0.41
   0  -8  -1   14.14    0.92
  -1  -8  -1    2.29    0.22
  -1  -8  -1    2.48    0.25
  -1  -8  -1    2.07    0.22
  -1  -8  -1    1.37    0.35
  -2  -8  -1   10.92    0.77
  -2  -8  -1   12.28    0.79
  -2  -8  -1   10.06    0.75
  -2  -8  -1   12.08    0.74
  -3  -8  -1    0.66    0.18
  -3  -8  -1    0.50    0.16
  -3  -8  -1    0.24    0.22
  -3  -8  -1    0.66    0.16
  -4  -8  -1    4.67    0.40
  -4  -8  -1    4.78    0.35
  -4  -8  -1    4.76    0.36
  -4  -8  -1    4.66    0.44
  -5  -8  -1    6.31    0.48
  -5  -8  -1    6.20    0.43
  -6  -8  -1    0.01    0.08
  -6  -8  -1   -0.05    0.12
  -7  -8  -1    0.25    0.14
  -7   9   1    1.59    0.15
  -7   9   1    1.36    0.16
  -6   9   1    0.00    0.12
  -6   9   1   -0.03    0.12
  -6   9   1    0.13    0.12
  -5   9   1    0.99    0.16
  -5   9   1    1.11    0.17
  -4   9   1    3.46    0.26
  -4   9   1    3.34    0.32
  -3   9   1    7.54    0.53
   2  -9  -1    0.31    0.14
  -2   9   1    0.05    0.13
   1  -9  -1   12.67    0.84
   0  -9  -1    0.58    0.18
   0  -9  -1    0.66    0.16
  -1  -9  -1   -0.12    0.16
  -1  -9  -1    0.09    0.11
  -2  -9  -1    0.16    0.22
  -2  -9  -1   -0.03    0.14
  -2  -9  -1   -0.10    0.14
  -2  -9  -1    0.06    0.12
  -3  -9  -1   -0.03    0.13
  -3  -9  -1    0.12    0.14
  -3  -9  -1    0.22    0.20
  -3  -9  -1    0.00    0.13
  -4  -9  -1    2.84    0.26
  -4  -9  -1    3.29    0.32
  -4  -9  -1    3.78    0.27
  -5  -9  -1    0.35    0.11
  -5  -9  -1    0.24    0.13
  -5  10   1    3.10    0.29
  -5  10   1    3.68    0.27
  -4  10   1    0.10    0.14
  -4  10   1    0.12    0.08
  -4  10   1    0.13    0.16
   3 -10  -1    3.65    0.31
  -3  10   1    5.07    0.32
   2 -10  -1   22.90    1.41
  -2  10   1   21.10    1.40
   1 -10  -1    0.05    0.11
  -1  10   1    0.26    0.13
   0 -10  -1    2.29    0.22
   0 -10  -1    2.46    0.22
  -1 -10  -1    5.00    0.39
  -1 -10  -1    5.26    0.45
  -2 -10  -1    0.17    0.18
  -2 -10  -1    0.12    0.10
  -2 -10  -1    0.27    0.12
  -3 -10  -1   -0.11    0.12
  -3 -10  -1    0.11    0.11
  -3 -10  -1   -0.07    0.09
  -4 -10  -1    1.32    0.14
   2 -11  -1    4.36    0.33
  -2  11   1    5.46    0.34
   1 -11  -1    2.18    0.16
  -1  11   1    1.63    0.16
   0 -11  -1    2.61    0.22
   0 -11  -1    1.87    0.21
  -1 -11  -1    0.11    0.14
  -1 -11  -1    0.31    0.09
  -4 -11   2    0.06    0.10
  -4 -11   2    0.08    0.08
  -3 -11   2    0.13    0.11
  -3 -11   2   -0.14    0.17
  -2 -11   2    1.57    0.16
  -1 -11   2    1.49    0.18
   0 -11   2   -0.03    0.14
   0 -11   2    0.13    0.12
  -1  11  -2    1.99    0.22
   1 -11   2    2.01    0.19
   2 -11   2    0.87    0.13
  -3  11  -2    0.97    0.17
  -4  11  -2    1.05    0.17
  -4  11  -2    1.50    0.14
  -4  11  -2    1.14    0.10
  -5 -10   2    0.94    0.15
  -5 -10   2    0.93    0.12
  -4 -10   2    0.20    0.12
  -4 -10   2    0.26    0.15
  -3 -10   2    5.10    0.44
  -3 -10   2    5.55    0.39
  -3 -10   2    5.60    0.39
  -2 -10   2    1.97    0.20
  -2 -10   2    2.15    0.21
  -2 -10   2    2.10    0.27
  -1 -10   2    0.51    0.09
  -1 -10   2    0.34    0.20
   0 -10   2    1.98    0.21
   0 -10   2    1.69    0.21
   1 -10   2   -0.03    0.11
  -2  10  -2    0.13    0.13
   2 -10   2    0.26    0.12
  -4  10  -2    0.21    0.13
  -5  10  -2   -0.16    0.17
  -6  10  -2    3.66    0.31
  -7  -9   2    0.21    0.12
  -6  -9   2    4.54    0.39
  -6  -9   2    4.18    0.34
  -5  -9   2    0.53    0.12
  -5  -9   2    0.29    0.22
  -5  -9   2    0.45    0.11
  -4  -9   2    0.93    0.15
  -4  -9   2    0.73    0.16
  -4  -9   2    0.61    0.25
  -3  -9   2    2.74    0.26
  -3  -9   2    2.94    0.27
  -3  -9   2    2.95    0.32
  -2  -9   2    1.42    0.15
  -2  -9   2    1.54    0.20
  -2  -9   2    1.47    0.18
  -2  -9   2    1.77    0.21
  -1  -9   2    2.11    0.22
  -1  -9   2    1.91    0.21
   0  -9   2   10.64    0.68
   0  -9   2    9.56    0.70
   1  -9   2    3.75    0.31
  -2   9  -2    0.39    0.13
   2  -9   2    0.25    0.12
  -3   9  -2    0.94    0.14
  -4   9  -2    5.63    0.41
  -4   9  -2    5.70    0.48
  -5   9  -2    0.31    0.20
  -6   9  -2    1.02    0.17
  -7   9  -2    0.28    0.12
  -8  -8   2    1.03    0.15
  -7  -8   2    1.91    0.21
  -7  -8   2    1.74    0.20
  -7  -8   2    2.13    0.22
  -6  -8   2    0.24    0.10
  -6  -8   2    0.01    0.11
  -6  -8   2    0.14    0.14
  -6  -8   2    0.29    0.22
  -5  -8   2    0.08    0.16
  -5  -8   2    0.03    0.11
  -5  -8   2   -0.40    0.23
  -5  -8   2    0.10    0.15
  -4  -8   2    9.40    0.62
  -4  -8   2    9.12    0.66
  -4  -8   2    8.83    0.62
  -4  -8   2   10.41    0.73
  -3  -8   2    4.04    0.32
  -3  -8   2    3.21    0.44
  -3  -8   2    3.41    0.31
  -3  -8   2    4.08    0.32
  -3  -8   2    3.74    0.35
  -2  -8   2    6.15    0.44
  -2  -8   2    5.68    0.62
  -2  -8   2    5.62    0.43
  -2  -8   2    5.38    0.58
  -2  -8   2    5.93    0.40
  -1  -8   2   16.45    1.00
  -1  -8   2   14.24    1.17
  -1  -8   2   15.66    1.21
  -1  -8   2   16.91    1.04
  -1  -8   2   13.13    1.27
   0  -8   2    0.20    0.11
   1  -8   2    0.47    0.11
  -2   8  -2   23.70    1.52
  -3   8  -2    1.35    0.15
  -4   8  -2   21.50    1.46
  -4   8  -2   23.04    1.43
  -5   8  -2   -0.09    0.20
  -5   8  -2   -0.06    0.13
  -5   8  -2    0.05    0.14
  -6   8  -2    3.82    0.31
  -6   8  -2    3.61    0.31
  -6   8  -2    3.69    0.41
  -7   8  -2    0.21    0.20
  -7   8  -2    0.21    0.12
  -8   8  -2    1.23    0.17
  -8  -7   2    2.48    0.25
  -8  -7   2    1.62    0.19
  -8  -7   2    1.93    0.21
  -7  -7   2    1.63    0.20
  -7  -7   2    1.32    0.20
  -7  -7   2    1.68    0.20
  -6  -7   2    3.78    0.41
  -6  -7   2    3.25    0.34
  -6  -7   2    3.36    0.25
  -6  -7   2    3.52    0.33
  -5  -7   2    0.63    0.24
  -5  -7   2    0.64    0.15
  -5  -7   2    0.86    0.16
  -5  -7   2    0.91    0.12
  -4  -7   2    0.82    0.30
  -4  -7   2    0.88    0.11
  -4  -7   2    0.86    0.21
  -4  -7   2    0.61    0.14
  -4  -7   2    0.80    0.14
  -4  -7   2    1.15    0.24
  -4  -7   2    0.55    0.11
  -3  -7   2    5.37    0.42
  -3  -7   2    4.43    0.37
  -3  -7   2    4.21    0.32
  -3  -7   2    4.26    0.52
  -3  -7   2    5.16    0.47
  -3  -7   2    4.49    0.49
  -3  -7   2    4.07    0.28
  -3  -7   2    4.38    0.34
  -2  -7   2   20.98    1.59
  -2  -7   2   19.92    1.30
  -2  -7   2   20.73    1.28
  -2  -7   2   21.85    1.49
  -2  -7   2   19.20    1.27
  -2  -7   2   21.87    1.50
  -2  -7   2   17.76    1.30
  -1  -7   2    4.48    0.45
  -1  -7   2    4.27    0.51
  -1  -7   2    3.78    0.34
  -1  -7   2    3.97    0.30
  -1  -7   2    3.82    0.47
   0  -7   2    3.24    0.45
   0  -7   2    2.95    0.34
   0  -7   2    2.63    0.33
   0  -7   2    2.80    0.23
  -2   7  -2    0.37    0.12
  -3   7  -2   10.29    0.68
  -4   7  -2   84.21    5.08
  -4   7  -2   78.76    5.58
  -4   7  -2   84.80    5.14
  -4   7  -2   74.22    5.98
  -5   7  -2   15.05    0.98
  -5   7  -2   14.21    0.95
  -5   7  -2   15.20    1.09
  -5   7  -2   14.61    0.96
  -6   7  -2    5.41    0.42
  -6   7  -2    5.29    0.51
  -6   7  -2    5.72    0.43
  -7   7  -2    1.76    0.22
  -7   7  -2    1.54    0.17
  -8   7  -2    1.31    0.19
  -9   7  -2    1.00    0.15
  -9  -6   2    0.73    0.11
  -9  -6   2    0.65    0.12
  -8  -6   2    0.84    0.20
  -8  -6   2    0.76    0.13
  -8  -6   2    0.72    0.18
  -7  -6   2    0.96    0.19
  -7  -6   2    0.95    0.17
  -7  -6   2    0.81    0.24
  -6  -6   2    0.47    0.30
  -6  -6   2    0.42    0.08
  -6  -6   2    0.18    0.17
  -6  -6   2    0.03    0.15
  -6  -6   2    0.05    0.21
  -5  -6   2    5.91    0.62
  -5  -6   2    6.17    0.49
  -5  -6   2    6.09    0.53
  -5  -6   2    6.39    0.47
  -5  -6   2    6.65    0.42
  -4  -6   2   18.78    1.20
  -4  -6   2   19.10    1.27
  -4  -6   2   18.54    1.26
  -4  -6   2   16.46    1.39
  -4  -6   2   18.95    1.30
  -4  -6   2   18.43    1.14
  -4  -6   2   18.41    1.37
  -4  -6   2   17.39    1.17
  -3  -6   2    6.58    0.59
  -3  -6   2    6.06    0.46
  -3  -6   2    7.20    0.54
  -3  -6   2    6.16    0.43
  -3  -6   2    6.30    0.40
  -3  -6   2    6.19    0.43
  -3  -6   2    5.65    0.47
  -3  -6   2    6.03    0.50
  -3  -6   2    6.59    0.57
  -2  -6   2   10.79    0.71
  -2  -6   2   11.90    0.87
  -2  -6   2   11.30    0.84
  -2  -6   2   11.52    0.91
  -2  -6   2    9.43    1.00
  -1  -6   2    3.67    0.45
  -1  -6   2    3.57    0.40
  -1  -6   2    3.40    0.38
   0  -6   2   13.83    1.05
   0  -6   2   14.32    1.14
   0  -6   2   13.84    1.03
  -2   6  -2    1.48    0.29
  -2   6  -2    1.23    0.25
  -3   6  -2   36.00    2.54
  -3   6  -2   34.14    2.30
  -3   6  -2   37.84    2.74
  -3   6  -2   37.89    2.56
  -4   6  -2    0.59    0.13
  -4   6  -2    0.59    0.10
  -4   6  -2    0.22    0.25
  -4   6  -2    0.75    0.24
  -4   6  -2    0.55    0.18
  -4   6  -2    0.56    0.12
  -5   6  -2    0.99    0.20
  -5   6  -2    0.64    0.11
  -5   6  -2    0.90    0.28
  -5   6  -2    0.52    0.27
  -5   6  -2    0.68    0.29
  -5   6  -2    1.13    0.15
  -6   6  -2    0.66    0.12
  -6   6  -2    1.01    0.23
  -6   6  -2    0.83    0.31
  -6   6  -2    0.62    0.19
  -6   6  -2    0.92    0.12
  -7   6  -2    4.76    0.45
  -7   6  -2    4.31    0.35
  -8   6  -2    0.96    0.14
  -8   6  -2    0.89    0.19
  -9   6  -2    0.28    0.15
  -9  -5   2    3.94    0.31
  -8  -5   2    0.39    0.15
  -8  -5   2    0.36    0.21
  -8  -5   2    0.20    0.17
  -8  -5   2    0.10    0.15
  -7  -5   2    0.36    0.22
  -7  -5   2    0.24    0.15
  -7  -5   2    0.10    0.16
  -7  -5   2   -0.08    0.20
  -6  -5   2    0.98    0.23
  -6  -5   2    1.10    0.11
  -6  -5   2    0.51    0.28
  -6  -5   2    0.99    0.16
  -6  -5   2    1.10    0.17
  -6  -5   2    0.83    0.21
  -5  -5   2    1.11    0.21
  -5  -5   2    0.96    0.15
  -5  -5   2    0.32    0.24
  -5  -5   2    1.04    0.10
  -5  -5   2    0.94    0.14
  -5  -5   2    1.07    0.19
  -4  -5   2   31.93    2.01
  -4  -5   2   30.62    1.93
  -4  -5   2   29.86    2.13
  -4  -5   2   31.84    2.23
  -4  -5   2   34.33    2.31
  -4  -5   2   32.15    2.13
  -4  -5   2   31.25    2.16
  -4  -5   2   29.05    1.99
  -4  -5   2   30.74    2.32
  -3  -5   2   96.56    6.27
  -3  -5   2   91.34    6.65
  -3  -5   2   96.44    6.21
  -3  -5   2   79.02    7.27
  -2  -5   2    6.80    0.73
  -2  -5   2    7.30    0.60
  -2  -5   2    8.37    0.62
  -2  -5   2    8.01    0.66
  -1  -5   2    0.98    0.18
  -1  -5   2    1.12    0.19
  -1  -5   2    1.11    0.24
   0   5  -2   14.38    1.09
   0  -5   2   15.50    1.09
   0  -5   2   16.18    1.11
   0  -5   2   14.23    1.09
   0  -5   2   16.17    1.20
  -1   5  -2    0.18    0.10
  -1   5  -2    0.05    0.15
  -1   5  -2    0.01    0.11
  -1   5  -2    0.04    0.14
   1  -5   2    0.12    0.12
   1  -5   2    0.06    0.17
   1  -5   2    0.22    0.15
   1  -5   2    0.04    0.08
  -2   5  -2    0.25    0.15
  -2   5  -2    0.85    0.19
  -2   5  -2    0.72    0.19
  -2   5  -2    0.59    0.14
  -3   5  -2   44.56    3.36
  -3   5  -2   46.37    3.13
  -3   5  -2   44.50    3.13
  -4   5  -2   31.43    2.26
  -4   5  -2   30.94    2.11
  -4   5  -2   28.54    1.89
  -4   5  -2   31.48    2.12
  -4   5  -2   27.61    1.91
  -5   5  -2    0.56    0.09
  -5   5  -2    0.28    0.35
  -5   5  -2    0.33    0.23
  -5   5  -2    0.64    0.13
  -5   5  -2    0.69    0.26
  -5   5  -2    0.67    0.12
  -5   5  -2    0.59    0.22
  -5   5  -2    0.73    0.18
  -6   5  -2    2.77    0.34
  -6   5  -2    2.52    0.26
  -6   5  -2    2.57    0.25
  -6   5  -2    2.75    0.25
  -6   5  -2    2.77    0.29
  -6   5  -2    2.10    0.35
  -6   5  -2    2.05    0.33
  -6   5  -2    2.34    0.35
  -7   5  -2    0.02    0.19
  -7   5  -2    0.17    0.10
  -7   5  -2    0.38    0.22
  -7   5  -2    0.17    0.13
  -7   5  -2    0.12    0.12
  -8   5  -2    1.14    0.26
  -8   5  -2    0.81    0.19
  -8   5  -2    0.89    0.12
  -8   5  -2    0.94    0.16
  -9   5  -2    8.09    0.56
  -9   5  -2    5.83    0.48
 -10   5  -2    0.60    0.13
 -10  -4   2    1.03    0.15
 -10  -4   2    0.81    0.14
  -9  -4   2    0.01    0.14
  -9  -4   2   -0.15    0.18
  -9  -4   2   -0.26    0.17
  -9  -4   2    0.11    0.11
  -8  -4   2    0.28    0.14
  -8  -4   2    0.15    0.14
  -8  -4   2    0.24    0.21
  -8  -4   2    0.49    0.17
  -7  -4   2    0.06    0.25
  -7  -4   2    0.65    0.15
  -7  -4   2    0.49    0.20
  -7  -4   2    0.77    0.16
  -7  -4   2    0.29    0.14
  -7  -4   2    0.78    0.16
  -6  -4   2    3.02    0.34
  -6  -4   2    2.39    0.36
  -6  -4   2    2.99    0.31
  -6  -4   2    3.05    0.32
  -6  -4   2    3.07    0.30
  -6  -4   2    3.18    0.34
  -5  -4   2    0.53    0.14
  -5  -4   2    0.26    0.19
  -5  -4   2    0.35    0.06
  -5  -4   2    0.34    0.15
  -5  -4   2    0.49    0.14
  -5  -4   2    0.07    0.15
  -5  -4   2    0.13    0.16
  -4  -4   2   18.55    1.25
  -4  -4   2   15.45    1.18
  -4  -4   2   15.59    1.42
  -4  -4   2   16.75    1.26
  -4  -4   2   17.86    1.18
  -4  -4   2   17.94    1.26
  -3  -4   2    1.48    0.27
  -3  -4   2    2.05    0.24
  -3  -4   2    1.86    0.19
  -3  -4   2    1.95    0.25
  -2  -4   2   11.37    0.85
  -2  -4   2   11.52    1.04
  -2  -4   2   12.90    0.95
  -2  -4   2   11.68    0.86
  -2  -4   2   12.66    0.90
  -2  -4   2   13.05    0.88
   1   4  -2   41.01    2.75
   1   4  -2   40.02    2.75
  -1  -4   2   37.42    2.74
  -1  -4   2   41.46    2.75
  -1  -4   2   41.07    2.79
  -1  -4   2   41.21    2.99
  -1  -4   2   41.44    2.80
   0   4  -2   26.16    1.97
   0   4  -2   27.18    1.99
   0   4  -2   30.73    1.96
   0   4  -2   29.15    2.13
   0   4  -2   27.63    1.96
   0  -4   2   29.11    1.99
   0  -4   2   29.50    2.14
   0  -4   2   30.80    1.97
   0  -4   2   27.04    1.96
   0  -4   2   29.67    1.99
  -1   4  -2   67.08    4.52
  -1   4  -2   69.06    4.59
  -1   4  -2   71.05    4.93
  -1   4  -2   65.99    4.59
  -1   4  -2   64.76    4.52
   1  -4   2   63.95    4.59
   1  -4   2   66.14    4.59
   1  -4   2   64.01    4.52
   1  -4   2   68.40    4.93
   1  -4   2   69.86    4.53
  -2   4  -2    4.01    0.34
  -2   4  -2    4.20    0.37
  -2   4  -2    3.49    0.33
  -2   4  -2    3.92    0.35
  -2   4  -2    4.19    0.39
   2  -4   2    4.16    0.36
   2  -4   2    3.90    0.35
  -3   4  -2    9.72    0.71
  -3   4  -2    9.21    0.77
  -3   4  -2    9.35    0.70
  -4   4  -2    4.50    0.45
  -4   4  -2    4.26    0.43
  -4   4  -2    4.89    0.43
  -4   4  -2    4.07    0.49
  -5   4  -2   17.02    1.18
  -5   4  -2   18.92    1.34
  -5   4  -2   19.10    1.31
  -5   4  -2   18.63    1.32
  -5   4  -2   19.01    1.41
  -5   4  -2   18.77    1.42
  -5   4  -2   18.70    1.14
  -5   4  -2   18.12    1.29
  -5   4  -2   18.52    1.26
  -5   4  -2   16.74    1.15
  -6   4  -2    5.61    0.68
  -6   4  -2    6.09    0.48
  -6   4  -2    5.95    0.43
  -6   4  -2    6.18    0.55
  -6   4  -2    6.81    0.58
  -6   4  -2    6.37    0.47
  -6   4  -2    6.41    0.56
  -6   4  -2    5.62    0.49
  -6   4  -2    5.39    0.54
  -6   4  -2    6.61    0.42
  -7   4  -2   19.19    1.26
  -7   4  -2   17.01    1.07
  -7   4  -2   15.79    1.30
  -7   4  -2   16.90    1.21
  -7   4  -2   16.29    1.30
  -8   4  -2    9.52    0.62
  -8   4  -2    9.26    0.71
  -8   4  -2    9.15    0.77
  -8   4  -2   10.30    0.77
  -9   4  -2   -0.11    0.16
  -9   4  -2   -0.03    0.12
  -9   4  -2   -0.01    0.13
 -10   4  -2    3.08    0.27
 -10   4  -2    2.63    0.23
 -10  -3   2    8.62    0.61
  -9  -3   2    0.12    0.14
  -9  -3   2    0.00    0.19
  -9  -3   2    0.13    0.15
  -9  -3   2   -0.12    0.17
  -9  -3   2    0.00    0.10
  -8  -3   2    3.23    0.34
  -8  -3   2    3.53    0.42
  -8  -3   2    3.81    0.35
  -8  -3   2    4.48    0.34
  -8  -3   2    3.73    0.39
  -8  -3   2    3.66    0.40
  -8  -3   2    3.69    0.37
  -7  -3   2    1.20    0.22
  -7  -3   2    1.40    0.17
  -7  -3   2    1.30    0.18
  -7  -3   2    1.32    0.17
  -7  -3   2    1.50    0.22
  -7  -3   2    1.33    0.21
  -7  -3   2    0.79    0.25
  -7  -3   2    1.19    0.17
  -6  -3   2    0.38    0.12
  -6  -3   2    0.28    0.11
  -6  -3   2    0.34    0.17
  -6  -3   2    0.27    0.15
  -6  -3   2   -0.04    0.18
  -6  -3   2    0.20    0.16
  -6  -3   2    0.22    0.12
  -5  -3   2    7.17    0.60
  -5  -3   2    6.54    0.64
  -4  -3   2    8.05    0.77
  -4  -3   2    9.49    0.70
   3   3  -2    7.26    0.53
   3   3  -2    7.06    0.53
  -3  -3   2    7.25    0.53
  -3  -3   2    8.10    0.58
  -3  -3   2    7.09    0.53
  -3  -3   2    7.81    0.69
  -3  -3   2    7.44    0.53
  -3  -3   2    7.84    0.58
  -3  -3   2    7.64    0.54
  -3  -3   2    7.79    0.58
   2   3  -2   35.80    2.36
   2   3  -2   35.63    2.36
  -2  -3   2   34.30    2.57
  -2  -3   2   31.23    2.39
  -2  -3   2   34.19    2.36
  -2  -3   2   36.67    2.57
  -2  -3   2   34.55    2.36
  -2  -3   2   38.10    2.43
  -2  -3   2   37.34    2.40
  -2  -3   2   31.75    2.83
   1   3  -2    3.56    0.28
   1   3  -2    3.41    0.28
   1   3  -2    3.13    0.30
   1   3  -2    2.84    0.27
  -1  -3   2    3.64    0.29
  -1  -3   2    2.68    0.29
  -1  -3   2    3.59    0.33
  -1  -3   2    3.86    0.29
  -1  -3   2    3.20    0.28
   0   3  -2   19.12    1.22
   0   3  -2   16.50    1.32
   0   3  -2   16.52    1.21
   0   3  -2   16.17    1.23
   0   3  -2   18.35    1.21
   0  -3   2   16.93    1.23
   0  -3   2   17.58    1.33
   0  -3   2   18.85    1.22
   0  -3   2   18.88    1.22
   0  -3   2   17.76    1.23
  -1   3  -2    3.93    0.31
  -1   3  -2    4.17    0.33
  -1   3  -2    3.98    0.31
  -1   3  -2    3.76    0.30
  -1   3  -2    4.07    0.36
   1  -3   2    3.59    0.29
   1  -3   2    3.43    0.36
   1  -3   2    3.88    0.33
   1  -3   2    3.78    0.33
   1  -3   2    4.09    0.32
  -2   3  -2   32.56    2.35
  -2   3  -2   31.65    2.16
  -2   3  -2   32.99    2.19
  -2   3  -2   31.63    2.16
  -2   3  -2   33.25    2.19
   2  -3   2   29.40    2.19
   2  -3   2   32.40    2.16
   2  -3   2   29.14    2.35
   2  -3   2   32.38    2.16
  -3   3  -2    2.96    0.34
  -3   3  -2    3.33    0.30
  -3   3  -2    2.78    0.28
  -3   3  -2    2.69    0.29
   3  -3   2    2.83    0.28
  -4   3  -2    4.26    0.40
  -4   3  -2    4.44    0.52
  -4   3  -2    4.13    0.40
  -4   3  -2    4.39    0.41
  -5   3  -2    4.34    0.34
  -5   3  -2    4.94    0.43
  -5   3  -2    4.33    0.44
  -5   3  -2    4.65    0.43
  -5   3  -2    5.01    0.52
  -6   3  -2    1.23    0.29
  -6   3  -2    1.22    0.15
  -6   3  -2    0.95    0.20
  -6   3  -2    0.88    0.14
  -6   3  -2    0.81    0.36
  -6   3  -2    0.74    0.12
  -6   3  -2    0.94    0.19
  -6   3  -2    0.98    0.22
  -6   3  -2    0.99    0.11
  -6   3  -2    1.26    0.20
  -7   3  -2    1.28    0.13
  -7   3  -2    1.71    0.26
  -7   3  -2    1.28    0.24
  -7   3  -2    1.14    0.36
  -7   3  -2    1.23    0.18
  -7   3  -2    1.35    0.18
  -7   3  -2    1.31    0.30
  -8   3  -2   11.64    0.76
  -8   3  -2   13.05    0.93
  -8   3  -2   11.94    0.96
  -8   3  -2   11.79    0.88
  -9   3  -2    0.13    0.24
  -9   3  -2    0.05    0.20
  -9   3  -2    0.21    0.11
 -10   3  -2    2.02    0.20
 -10   3  -2    2.52    0.26
 -10   3  -2    1.65    0.23
 -10  -2   2    0.09    0.14
 -10  -2   2    0.16    0.12
 -10  -2   2   -0.08    0.13
  -9  -2   2    0.96    0.16
  -9  -2   2    1.42    0.21
  -9  -2   2    1.32    0.19
  -9  -2   2    1.06    0.17
  -9  -2   2    1.08    0.20
  -9  -2   2    1.06    0.18
  -9  -2   2    1.16    0.23
  -9  -2   2    1.41    0.16
  -8  -2   2   21.67    1.57
  -8  -2   2   19.59    1.49
  -8  -2   2   20.36    1.47
  -8  -2   2   22.09    1.53
  -8  -2   2   20.84    1.46
  -8  -2   2   21.60    1.39
  -8  -2   2   21.28    1.46
  -8  -2   2   22.03    1.59
  -7  -2   2    0.07    0.18
  -7  -2   2    0.04    0.13
  -7  -2   2   -0.06    0.13
  -7  -2   2    0.07    0.10
  -7  -2   2    0.56    0.21
  -7  -2   2    0.10    0.16
  -7  -2   2    0.13    0.13
  -7  -2   2    0.01    0.12
  -6  -2   2   15.26    1.07
  -6  -2   2   15.24    1.00
  -6  -2   2   14.95    1.31
  -6  -2   2   15.21    1.06
  -6  -2   2   16.11    1.07
  -6  -2   2   15.05    1.10
  -6  -2   2   15.59    1.14
  -6  -2   2   13.93    1.08
  -6  -2   2   16.00    1.15
  -6  -2   2   15.28    1.14
  -6  -2   2   15.56    1.13
  -5  -2   2    2.27    0.27
  -5  -2   2    2.43    0.32
  -5  -2   2    1.95    0.24
  -5  -2   2    1.70    0.23
  -4  -2   2   17.75    1.28
  -4  -2   2   16.72    1.26
  -4  -2   2   18.47    1.28
  -4  -2   2   18.91    1.50
   3   2  -2   39.48    2.56
   3   2  -2   34.81    2.56
  -3  -2   2   37.08    2.60
  -3  -2   2   36.28    2.62
  -3  -2   2   38.03    2.56
  -3  -2   2   40.53    2.79
  -3  -2   2   38.61    2.64
  -3  -2   2   38.62    3.09
  -3  -2   2   37.51    2.56
  -3  -2   2   39.81    2.60
  -3  -2   2   39.19    2.79
   2   2  -2   52.54    3.36
   2   2  -2   54.24    3.36
  -2  -2   2   49.67    3.66
  -2  -2   2   50.90    3.41
  -2  -2   2   43.86    4.01
  -2  -2   2   54.42    3.36
  -2  -2   2   51.43    3.36
  -2  -2   2   50.48    3.66
  -2  -2   2   45.52    3.41
  -2  -2   2   50.85    3.44
  -2  -2   2   46.25    3.42
   1   2  -2   24.59    1.97
   1   2  -2   27.56    1.81
   1   2  -2   29.26    1.81
  -1  -2   2   25.94    1.85
  -1  -2   2   25.94    1.97
  -1  -2   2   27.81    1.81
  -1  -2   2   27.52    1.97
  -1  -2   2   26.91    1.81
  -1  -2   2   27.51    1.83
  -1  -2   2   24.18    1.83
   0   2  -2  249.54   15.59
   0   2  -2  233.82   16.89
   0   2  -2  239.10   15.51
   0   2  -2  223.38   15.75
   0   2  -2  213.05   15.81
   0  -2   2  221.08   15.85
   0  -2   2  238.31   15.61
   0  -2   2  234.20   15.54
   0  -2   2  228.24   15.79
   0  -2   2  238.53   16.96
  -1   2  -2   79.73    5.88
  -1   2  -2   83.13    5.40
  -1   2  -2   79.22    5.50
  -1   2  -2   80.69    5.40
  -1   2  -2   81.08    5.48
   1  -2   2   82.47    5.40
   1  -2   2   79.04    5.88
   1  -2   2   76.78    5.48
   1  -2   2   82.14    5.40
  -2   2  -2   56.69    3.66
  -2   2  -2   58.57    3.91
  -2   2  -2   52.16    3.59
  -2   2  -2   56.88    3.65
  -2   2  -2   46.54    3.90
  -2   2  -2   55.87    3.59
   2  -2   2   53.58    3.59
   2  -2   2   45.41    3.64
   2  -2   2   49.04    3.91
   2  -2   2   58.24    3.59
  -3   2  -2   28.10    1.90
  -3   2  -2   27.68    1.78
  -3   2  -2   26.56    1.82
  -3   2  -2   21.75    1.76
  -3   2  -2   22.29    1.89
  -3   2  -2   25.19    1.74
  -3   2  -2   24.96    1.75
  -3   2  -2   27.09    1.79
   3  -2   2   25.86    1.75
   3  -2   2   26.80    1.75
  -4   2  -2   80.86    5.53
  -4   2  -2   79.13    5.62
  -4   2  -2   82.08    5.56
  -4   2  -2   81.45    5.92
  -5   2  -2    5.88    0.49
  -5   2  -2    5.38    0.49
  -5   2  -2    6.18    0.58
  -5   2  -2    5.97    0.50
  -6   2  -2    0.21    0.18
  -6   2  -2   -0.03    0.32
  -6   2  -2    0.45    0.12
  -6   2  -2    0.14    0.18
  -6   2  -2    0.23    0.11
  -6   2  -2    0.36    0.11
  -6   2  -2    0.35    0.09
  -6   2  -2    0.14    0.22
  -7   2  -2   16.31    1.31
  -7   2  -2   17.41    1.20
  -7   2  -2   17.28    1.32
  -7   2  -2   18.72    1.24
  -7   2  -2   17.58    1.26
  -7   2  -2   17.08    1.08
  -7   2  -2   15.39    1.34
  -8   2  -2    1.04    0.24
  -8   2  -2    0.77    0.26
  -8   2  -2    0.98    0.10
  -8   2  -2    1.06    0.18
  -9   2  -2    4.78    0.42
  -9   2  -2    4.25    0.37
  -9   2  -2    4.70    0.42
 -10   2  -2    0.29    0.13
 -10   2  -2    0.36    0.10
 -10   2  -2    0.01    0.16
 -10  -1   2    0.32    0.13
 -10  -1   2    0.34    0.11
 -10  -1   2    0.45    0.14
  -9  -1   2    0.06    0.17
  -9  -1   2    0.12    0.14
  -9  -1   2   -0.01    0.15
  -9  -1   2   -0.15    0.20
  -9  -1   2   -0.22    0.18
  -9  -1   2    0.12    0.16
  -8  -1   2    9.10    0.70
  -8  -1   2    7.66    0.71
  -8  -1   2    8.47    0.61
  -8  -1   2    7.99    0.64
  -8  -1   2    9.43    0.71
  -8  -1   2    8.73    0.67
  -8  -1   2    9.76    0.67
  -8  -1   2    9.97    0.65
  -7  -1   2    2.69    0.31
  -7  -1   2    1.79    0.36
  -7  -1   2    2.71    0.26
  -7  -1   2    2.40    0.29
  -7  -1   2    2.42    0.27
  -7  -1   2    2.57    0.32
  -7  -1   2    2.29    0.26
  -7  -1   2    2.48    0.25
  -7  -1   2    2.28    0.25
  -6  -1   2   31.02    2.28
  -6  -1   2   31.79    2.08
  -6  -1   2   32.00    2.25
  -6  -1   2   33.33    2.20
  -6  -1   2   29.21    2.27
  -6  -1   2   33.01    2.20
  -6  -1   2   33.99    2.66
  -6  -1   2   33.82    2.36
  -5  -1   2   75.96    5.85
  -5  -1   2   73.39    5.02
  -5  -1   2   73.43    5.01
  -5  -1   2   68.65    5.03
  -4  -1   2    8.94    0.70
  -4  -1   2   10.00    0.83
  -4  -1   2    9.92    0.70
  -4  -1   2    8.62    0.69
   3   1  -2    9.68    0.65
   3   1  -2    9.61    0.65
  -3  -1   2    9.79    0.69
  -3  -1   2   10.45    0.71
  -3  -1   2    9.19    0.69
  -3  -1   2    9.16    0.66
  -3  -1   2   10.50    0.66
  -3  -1   2    9.43    0.83
  -3  -1   2    9.26    0.65
  -3  -1   2    9.58    0.65
  -3  -1   2    9.53    0.70
  -3  -1   2    9.44    0.71
   2   1  -2   58.66    3.78
   2   1  -2   56.52    3.78
  -2  -1   2   57.97    3.84
  -2  -1   2   55.72    4.51
  -2  -1   2   55.22    3.78
  -2  -1   2   57.63    3.86
  -2  -1   2   54.92    3.84
  -2  -1   2   61.26    4.11
  -2  -1   2   54.65    3.78
  -2  -1   2   57.52    4.11
  -2  -1   2   49.69    3.85
   1   1  -2    0.05    0.10
   1   1  -2    0.04    0.08
   1   1  -2    0.13    0.09
  -1  -1   2    0.04    0.08
  -1  -1   2    0.08    0.09
  -1  -1   2    0.16    0.09
  -1  -1   2    0.18    0.08
  -1  -1   2    0.12    0.07
  -1  -1   2    0.01    0.08
  -1  -1   2    0.08    0.10
  -1  -1   2    0.07    0.09
   0   1  -2   53.92    4.16
   0   1  -2   56.89    3.83
   0   1  -2   52.45    3.88
   0   1  -2   61.02    3.83
   0  -1   2   55.44    3.88
   0  -1   2   58.13    4.16
   0  -1   2   59.35    3.83
   0  -1   2   58.61    3.83
  -1   1  -2  412.20   29.21
  -1   1  -2  406.38   26.85
  -1   1  -2  397.99   26.83
  -1   1  -2  391.16   27.23
  -1   1  -2  379.40   27.30
   1  -1   2  415.63   26.85
   1  -1   2  400.25   29.18
   1  -1   2  382.56   27.21
   1  -1   2  414.48   26.85
  -2   1  -2   15.41    1.02
  -2   1  -2   13.56    1.09
  -2   1  -2   15.49    1.03
  -2   1  -2   14.50    1.01
  -2   1  -2   14.82    1.06
  -2   1  -2   15.83    1.10
  -2   1  -2   15.43    1.03
  -2   1  -2   12.67    1.02
   2  -1   2   14.61    1.01
   2  -1   2   12.71    1.09
   2  -1   2   15.43    1.01
  -3   1  -2   48.05    3.34
  -3   1  -2   53.69    3.41
  -3   1  -2   51.81    3.63
  -3   1  -2   51.01    3.45
  -3   1  -2   42.03    3.38
  -3   1  -2   52.90    3.39
  -3   1  -2   50.87    3.33
  -3   1  -2   44.11    3.38
  -3   1  -2   45.80    3.63
   3  -1   2   53.57    3.34
   3  -1   2   51.08    3.34
  -4   1  -2    9.13    0.65
  -4   1  -2    7.90    0.61
  -4   1  -2    7.45    0.66
  -4   1  -2    7.87    0.60
  -4   1  -2    9.76    0.67
  -4   1  -2    9.16    0.65
  -4   1  -2    9.14    0.74
  -5   1  -2   50.64    3.51
  -5   1  -2   47.33    3.28
  -5   1  -2   48.45    3.33
  -5   1  -2   50.83    3.37
  -5   1  -2   42.45    3.26
  -6   1  -2    6.73    0.65
  -6   1  -2    6.16    0.43
  -6   1  -2    6.55    0.57
  -6   1  -2    5.90    0.48
  -6   1  -2    6.95    0.48
  -6   1  -2    6.74    0.52
  -6   1  -2    6.62    0.54
  -6   1  -2    6.58    0.61
  -7   1  -2    7.79    0.64
  -7   1  -2    9.15    0.66
  -7   1  -2    8.38    0.81
  -7   1  -2    9.02    0.71
  -7   1  -2    9.12    0.64
  -7   1  -2    9.47    0.73
  -7   1  -2    8.33    0.56
  -8   1  -2    2.29    0.31
  -8   1  -2    2.54    0.31
  -8   1  -2    1.96    0.23
  -9   1  -2    3.58    0.39
  -9   1  -2    3.89    0.39
  -9   1  -2    4.62    0.38
 -10   1  -2    0.16    0.19
 -10   1  -2    0.24    0.16
 -11   0   2    0.17    0.12
 -10   0   2    0.00    0.13
 -10   0   2    0.15    0.11
 -10   0   2   -0.07    0.14
  -9   0   2    2.36    0.26
  -9   0   2    1.88    0.24
  -9   0   2    1.76    0.26
  -9   0   2    1.69    0.22
  -8   0   2    3.16    0.37
  -8   0   2    3.11    0.35
  -8   0   2    3.32    0.32
  -8   0   2    3.06    0.34
  -8   0   2    3.61    0.36
  -7   0   2   16.96    1.15
  -7   0   2   16.49    1.20
  -7   0   2   14.72    1.05
  -7   0   2   15.82    1.13
  -7   0   2   16.63    1.17
  -7   0   2   15.97    1.23
  -7   0   2   16.34    1.13
  -6   0   2   36.50    2.66
  -6   0   2   40.75    2.68
  -6   0   2   38.71    2.73
  -6   0   2   41.61    3.22
  -6   0   2   39.26    2.87
  -6   0   2   39.31    2.76
  -5   0   2   -0.08    0.21
  -5   0   2   -0.08    0.17
  -4   0   2    8.02    0.58
  -4   0   2    6.48    0.55
  -4   0   2    8.38    0.69
   3   0  -2  224.08   13.87
  -3   0   2  209.27   14.08
  -3   0   2  185.95   14.22
  -3   0   2  203.26   14.09
  -3   0   2  193.87   15.10
  -3   0   2  218.55   13.87
  -3   0   2  221.86   16.51
  -3   0   2  212.04   13.87
  -3   0   2  204.97   15.10
  -3   0   2  199.92   14.15
   2   0  -2   95.78    6.25
   2   0  -2   99.22    6.25
  -2   0   2   84.99    6.80
  -2   0   2   93.68    7.44
  -2   0   2   86.85    6.34
  -2   0   2   92.43    6.25
  -2   0   2   95.69    6.34
  -2   0   2   95.43    6.80
  -2   0   2  101.08    6.25
  -2   0   2   87.49    6.37
   1   0  -2    7.81    0.66
   1   0  -2    8.42    0.61
   1   0  -2    8.65    0.62
  -1   0   2    8.31    0.61
  -1   0   2    9.30    0.66
  -1   0   2    8.62    0.72
  -1   0   2    9.75    0.61
   0   0  -2   83.04    5.09
   0   0  -2   71.32    5.53
   0   0  -2   71.97    5.20
   0   0  -2   74.97    5.16
   0   0  -2   81.47    5.08
   0   0   2   72.71    5.16
   0   0   2   73.54    5.53
   0   0   2   79.72    5.08
   0   0   2   66.22    6.03
   0   0   2   80.41    5.08
  -1   0  -2  116.17    8.73
  -1   0  -2  129.76    8.52
  -1   0  -2  125.67    8.52
  -1   0  -2  127.62    9.27
  -1   0  -2  131.56    8.65
   1   0   2  116.11    8.65
   1   0   2  139.98    8.52
   1   0   2  134.23    8.52
   1   0   2  123.37    9.27
  -2   0  -2  181.81   12.22
  -2   0  -2  191.94   13.30
  -2   0  -2  180.27   12.53
  -2   0  -2  166.18   12.21
  -2   0  -2  199.62   12.41
  -2   0  -2  159.35   13.29
   2   0   2  188.01   12.22
   2   0   2  192.91   12.22
  -3   0  -2   16.96    1.13
  -3   0  -2   17.38    1.19
  -3   0  -2   16.87    1.11
  -3   0  -2   14.14    1.18
  -3   0  -2   15.55    1.09
  -3   0  -2   15.13    1.08
  -3   0  -2   17.22    1.16
  -3   0  -2   15.04    1.10
  -3   0  -2   13.60    1.10
   3   0   2   16.00    1.09
   3   0   2   16.18    1.09
  -4   0  -2    5.42    0.43
  -4   0  -2    6.17    0.51
  -4   0  -2    4.92    0.37
  -4   0  -2    4.86    0.38
  -4   0  -2    4.89    0.40
  -4   0  -2    5.92    0.43
   4   0   2    4.28    0.38
  -5   0  -2   53.31    3.58
  -5   0  -2   52.10    3.71
  -5   0  -2   47.92    3.71
  -5   0  -2   53.28    3.46
  -5   0  -2   47.87    3.46
  -6   0  -2    3.35    0.37
  -6   0  -2    3.22    0.33
  -6   0  -2    2.99    0.29
  -6   0  -2    3.39    0.38
  -6   0  -2    3.62    0.47
  -6   0  -2    3.04    0.27
  -6   0  -2    3.07    0.24
  -7   0  -2    5.01    0.34
  -7   0  -2    5.62    0.63
  -7   0  -2    5.38    0.44
  -7   0  -2    5.22    0.46
  -7   0  -2    5.24    0.44
  -7   0  -2    4.76    0.49
  -8   0  -2    0.50    0.25
  -8   0  -2    0.49    0.25
  -8   0  -2    0.61    0.14
  -8   0  -2    0.56    0.16
  -9   0  -2    0.05    0.11
  -9   0  -2    0.22    0.17
  -9   0  -2    0.40    0.18
  -9   0  -2    0.32    0.13
 -10   0  -2    0.45    0.20
 -10   0  -2    0.23    0.16
 -11   1   2    0.53    0.13
 -10   1   2    2.20    0.24
 -10   1   2    1.90    0.21
 -10   1   2    2.29    0.23
  -9   1   2    0.24    0.16
  -9   1   2    0.27    0.19
  -9   1   2    0.29    0.17
  -9   1   2    0.38    0.16
  -8   1   2   -0.16    0.15
  -8   1   2   -0.18    0.14
  -8   1   2    0.32    0.18
  -8   1   2   -0.01    0.24
  -8   1   2    0.25    0.20
  -7   1   2    9.21    0.66
  -7   1   2    7.98    0.56
  -7   1   2    9.71    0.68
  -7   1   2    8.15    0.75
  -7   1   2   10.10    0.70
  -7   1   2    9.19    0.71
  -7   1   2    9.72    0.72
  -6   1   2   30.54    2.19
  -6   1   2   32.06    2.25
  -6   1   2   31.59    2.10
  -6   1   2   35.16    2.55
  -6   1   2   29.66    2.14
  -6   1   2   29.25    1.89
  -6   1   2   29.14    2.16
  -6   1   2   29.04    2.08
  -5   1   2    6.74    0.63
  -5   1   2    5.95    0.52
   4  -1  -2  120.94    8.57
  -4   1   2  137.68    9.34
  -4   1   2  131.69    8.71
  -4   1   2  138.72   10.23
  -4   1   2  136.62    8.77
  -4   1   2  116.58    9.33
  -4   1   2  117.57    8.58
  -4   1   2  135.39    8.71
  -4   1   2  117.89    8.57
   3  -1  -2   11.65    0.82
   3  -1  -2   11.76    0.81
  -3   1   2   11.04    0.82
  -3   1   2   11.73    0.99
  -3   1   2   12.63    0.82
  -3   1   2   12.93    0.89
  -3   1   2   10.51    0.88
  -3   1   2   10.11    0.82
  -3   1   2   11.85    0.81
  -3   1   2   12.32    0.84
   2  -1  -2    1.08    0.14
   2  -1  -2    0.93    0.13
  -2   1   2    0.76    0.13
  -2   1   2    0.95    0.13
  -2   1   2    0.77    0.12
  -2   1   2    0.77    0.12
  -2   1   2    0.81    0.15
  -2   1   2    0.73    0.15
  -2   1   2    0.82    0.13
  -2   1   2    0.79    0.12
   1  -1  -2   79.26    6.09
   1  -1  -2   92.92    6.00
   1  -1  -2   85.90    6.53
   1  -1  -2   95.28    6.01
  -1   1   2   87.54    6.09
  -1   1   2   91.62    6.53
  -1   1   2   94.29    6.00
  -1   1   2   91.73    7.13
  -1   1   2   86.45    6.00
   0  -1  -2   57.46    3.82
   0  -1  -2   55.84    3.87
   0  -1  -2   61.11    3.82
   0  -1  -2   54.54    3.90
   0  -1  -2   53.46    4.15
   0   1   2   59.87    3.82
   0   1   2   52.80    4.51
   0   1   2   55.38    4.15
   0   1   2   60.82    3.81
   0   1   2   54.75    3.87
  -1  -1  -2  959.78   63.83
  -1  -1  -2  928.89   62.83
  -1  -1  -2  876.60   64.38
  -1  -1  -2  960.88   68.40
  -1  -1  -2  963.81   62.87
   1   1   2 1000.00   62.85
   1   1   2  894.69   68.37
   1   1   2  924.71   63.78
  -2  -1  -2    9.99    0.72
  -2  -1  -2    7.84    0.69
  -2  -1  -2    7.60    0.65
  -2  -1  -2    8.99    0.65
  -2  -1  -2    8.99    0.69
  -2  -1  -2    9.85    0.66
  -2  -1  -2    8.96    0.65
   2   1   2    9.61    0.66
   2   1   2    9.75    0.65
  -3  -1  -2    0.67    0.12
  -3  -1  -2    0.70    0.12
  -3  -1  -2    0.68    0.18
  -3  -1  -2    0.52    0.12
  -3  -1  -2    0.82    0.15
  -3  -1  -2    0.46    0.11
  -3  -1  -2    0.73    0.13
  -3  -1  -2    0.46    0.19
   3   1   2    0.57    0.13
   3   1   2    0.57    0.11
  -4  -1  -2   16.19    1.12
  -4  -1  -2   16.22    1.04
  -4  -1  -2   14.22    1.11
  -4  -1  -2   12.61    1.03
  -4  -1  -2   15.34    1.12
  -4  -1  -2   14.41    1.07
  -5  -1  -2    1.74    0.23
  -5  -1  -2    1.69    0.18
  -5  -1  -2    1.69    0.18
  -5  -1  -2    1.66    0.15
  -5  -1  -2    1.79    0.15
  -5  -1  -2    1.64    0.31
  -6  -1  -2    1.94    0.42
  -6  -1  -2    1.69    0.16
  -6  -1  -2    1.75    0.25
  -6  -1  -2    1.46    0.18
  -6  -1  -2    1.42    0.18
  -6  -1  -2    1.74    0.25
  -7  -1  -2    0.01    0.06
  -7  -1  -2    0.08    0.23
  -7  -1  -2    0.11    0.43
  -7  -1  -2    0.05    0.23
  -7  -1  -2   -0.13    0.13
  -7  -1  -2    0.06    0.14
  -8  -1  -2    0.82    0.17
  -8  -1  -2    0.85    0.26
  -8  -1  -2    1.22    0.27
  -8  -1  -2    0.74    0.17
  -9  -1  -2    0.01    0.16
  -9  -1  -2    0.27    0.24
  -9  -1  -2    0.55    0.15
 -10  -1  -2    0.16    0.14
 -10  -1  -2    0.04    0.15
 -10   2   2    9.94    0.70
 -10   2   2    9.41    0.68
 -10   2   2    8.76    0.71
  -9   2   2    4.46    0.43
  -9   2   2    4.38    0.38
  -9   2   2    4.33    0.41
  -8   2   2    0.61    0.17
  -8   2   2    0.67    0.20
  -8   2   2    0.65    0.16
  -8   2   2    0.70    0.17
  -7   2   2    6.19    0.50
  -7   2   2    6.64    0.52
  -7   2   2    5.99    0.52
  -7   2   2    5.58    0.39
  -7   2   2    6.90    0.53
  -7   2   2    5.78    0.59
  -6   2   2    0.76    0.09
  -6   2   2    0.67    0.14
  -6   2   2    0.63    0.13
  -6   2   2    0.66    0.12
  -6   2   2    0.64    0.27
  -6   2   2    0.70    0.15
  -5   2   2    0.15    0.21
  -5   2   2    0.24    0.19
  -5   2   2    0.01    0.11
  -5   2   2    0.08    0.13
  -4   2   2   17.04    1.34
  -4   2   2   18.06    1.24
  -4   2   2   17.33    1.28
  -4   2   2   18.40    1.49
   3  -2  -2   48.62    3.49
   3  -2  -2   49.07    3.49
  -3   2   2   52.07    3.57
  -3   2   2   48.31    3.48
  -3   2   2   54.87    3.54
  -3   2   2   56.87    4.16
   2  -2  -2  107.61    7.51
   2  -2  -2   99.61    8.17
   2  -2  -2  115.42    7.51
  -2   2   2  112.06    7.62
  -2   2   2  104.81    7.51
  -2   2   2  124.21    8.92
  -2   2   2  113.52    7.50
  -2   2   2  117.36    8.17
   1  -2  -2   13.89    1.11
   1  -2  -2   14.90    1.10
   1  -2  -2   15.52    1.10
   1  -2  -2   15.72    1.19
  -1   2   2   15.96    1.11
  -1   2   2   15.11    1.09
  -1   2   2   17.13    1.28
  -1   2   2   17.22    1.18
  -1   2   2   15.34    1.09
   0  -2  -2  182.13   12.51
   0  -2  -2  185.44   12.22
   0  -2  -2  178.46   12.40
   0  -2  -2  185.85   13.30
   0  -2  -2  178.47   12.22
   0   2   2  185.14   12.22
   0   2   2  181.15   12.40
  -1  -2  -2  323.21   21.64
  -1  -2  -2  323.33   21.64
  -1  -2  -2  331.20   23.56
  -1  -2  -2  343.75   21.98
  -1  -2  -2  319.37   22.18
   1   2   2  305.23   23.56
   1   2   2  338.76   21.64
   1   2   2  318.16   21.64
   1   2   2  307.79   21.98
  -2  -2  -2   39.03    2.59
  -2  -2  -2   39.86    2.56
  -2  -2  -2   34.38    2.52
  -2  -2  -2   40.74    2.74
  -2  -2  -2   32.15    2.52
   2   2   2   37.30    2.53
   2   2   2   36.15    2.52
  -3  -2  -2   21.55    1.61
  -3  -2  -2   20.84    1.52
  -3  -2  -2   20.70    1.55
  -3  -2  -2   22.21    1.49
  -4  -2  -2   28.17    2.00
  -4  -2  -2   28.62    1.93
  -4  -2  -2   28.12    1.97
  -4  -2  -2   26.48    2.07
  -5  -2  -2    0.23    0.05
  -5  -2  -2    0.24    0.09
  -5  -2  -2    0.19    0.11
  -5  -2  -2    0.26    0.13
  -5  -2  -2    0.22    0.30
  -5  -2  -2    0.46    0.18
  -5  -2  -2    0.20    0.09
  -5  -2  -2    0.12    0.18
  -5  -2  -2    0.08    0.19
  -5  -2  -2    0.24    0.12
  -6  -2  -2   29.18    1.89
  -6  -2  -2   25.58    1.95
  -6  -2  -2   26.28    1.63
  -6  -2  -2   25.04    1.85
  -6  -2  -2   27.00    1.81
  -6  -2  -2   25.08    1.71
  -6  -2  -2   26.96    1.99
  -7  -2  -2    0.14    0.05
  -7  -2  -2    0.14    0.23
  -7  -2  -2   -0.01    0.16
  -7  -2  -2    0.18    0.23
  -7  -2  -2    0.09    0.37
  -7  -2  -2   -0.01    0.15
  -8  -2  -2    1.29    0.28
  -8  -2  -2    1.06    0.28
  -8  -2  -2    1.45    0.20
  -9  -2  -2    0.39    0.18
  -9  -2  -2    0.50    0.17
  -9  -2  -2    0.54    0.18
 -10  -2  -2    2.27    0.27
 -10  -2  -2    2.73    0.25
 -10   3   2    0.24    0.10
 -10   3   2    0.13    0.15
 -10   3   2    0.24    0.13
  -9   3   2    0.15    0.15
  -9   3   2    0.19    0.21
  -9   3   2    0.04    0.17
  -8   3   2    8.23    0.65
  -8   3   2    7.16    0.57
  -8   3   2    7.90    0.62
  -8   3   2    8.12    0.50
  -7   3   2    4.29    0.39
  -7   3   2    3.84    0.30
  -7   3   2    5.47    0.56
  -7   3   2    4.26    0.42
  -7   3   2    4.01    0.42
  -7   3   2    4.25    0.36
  -6   3   2    0.48    0.15
  -6   3   2    0.18    0.16
  -6   3   2    0.27    0.12
  -6   3   2    0.14    0.22
  -6   3   2    0.24    0.11
  -6   3   2    0.45    0.08
  -6   3   2    0.31    0.09
  -6   3   2    0.46    0.13
  -6   3   2    0.38    0.18
  -5   3   2    0.43    0.15
  -5   3   2    0.62    0.14
  -5   3   2    0.69    0.20
  -5   3   2    0.53    0.11
  -5   3   2    0.53    0.16
  -5   3   2    0.57    0.10
  -5   3   2    0.19    0.22
  -5   3   2    0.45    0.10
  -5   3   2    0.61    0.10
  -4   3   2    2.47    0.31
  -4   3   2    3.03    0.32
  -3   3   2   47.98    3.41
  -3   3   2   49.46    3.63
  -3   3   2   50.19    3.39
   2  -3  -2    6.80    0.59
  -2   3   2    6.84    0.58
  -2   3   2    8.48    0.64
  -2   3   2    7.42    0.57
  -2   3   2    8.49    0.62
  -2   3   2    8.49    0.60
   1  -3  -2    4.63    0.44
   1  -3  -2    5.00    0.44
   1  -3  -2    5.23    0.48
   1  -3  -2    4.91    0.44
  -1   3   2    4.74    0.43
  -1   3   2    5.77    0.43
  -1   3   2    5.68    0.45
  -1   3   2    5.92    0.46
   0  -3  -2   42.58    2.93
   0  -3  -2   42.71    2.97
   0  -3  -2   46.80    3.19
   0  -3  -2   40.39    2.93
   0   3   2   44.42    2.93
   0   3   2   41.58    2.97
  -1  -3  -2   29.90    2.13
  -1  -3  -2   31.49    2.01
  -1  -3  -2   26.76    1.95
  -1  -3  -2   30.39    1.98
  -1  -3  -2   26.73    1.95
   1   3   2   25.93    1.96
   1   3   2   27.91    1.95
  -2  -3  -2    0.57    0.20
  -2  -3  -2    0.28    0.18
  -2  -3  -2    0.28    0.14
  -2  -3  -2    0.28    0.17
  -3  -3  -2    0.28    0.24
  -3  -3  -2    0.09    0.22
  -3  -3  -2    0.34    0.17
  -3  -3  -2    0.02    0.15
  -4  -3  -2   71.19    4.71
  -4  -3  -2   67.48    4.81
  -4  -3  -2   69.64    4.78
  -4  -3  -2   63.28    5.06
  -4  -3  -2   72.44    4.80
  -5  -3  -2    9.06    0.78
  -5  -3  -2    9.09    0.65
  -5  -3  -2    9.04    0.74
  -5  -3  -2    8.62    0.59
  -5  -3  -2    9.48    0.67
  -5  -3  -2    9.57    0.64
  -5  -3  -2    7.73    0.71
  -5  -3  -2    9.00    0.58
  -5  -3  -2   10.60    0.73
  -5  -3  -2    9.38    0.81
  -6  -3  -2    0.85    0.19
  -6  -3  -2    0.85    0.17
  -6  -3  -2    0.72    0.37
  -6  -3  -2    0.81    0.18
  -6  -3  -2    0.81    0.11
  -6  -3  -2    1.16    0.23
  -7  -3  -2    0.40    0.16
  -7  -3  -2    0.42    0.07
  -7  -3  -2    0.26    0.17
  -7  -3  -2    0.36    0.18
  -7  -3  -2    0.06    0.23
  -8  -3  -2    0.30    0.24
  -8  -3  -2    0.43    0.16
  -8  -3  -2    0.41    0.13
  -8  -3  -2    0.23    0.25
  -9  -3  -2   -0.01    0.16
  -9  -3  -2    0.02    0.22
 -10  -3  -2    3.03    0.27
 -10   4   2    0.00    0.10
 -10   4   2   -0.07    0.13
  -9   4   2    4.14    0.38
  -9   4   2    4.43    0.35
  -9   4   2    5.14    0.40
  -8   4   2    0.16    0.13
  -8   4   2    0.20    0.16
  -8   4   2    0.05    0.10
  -8   4   2    0.18    0.11
  -7   4   2   16.28    0.99
  -7   4   2   15.55    1.14
  -7   4   2   15.26    1.09
  -7   4   2   13.81    1.22
  -7   4   2   16.48    1.13
  -6   4   2   14.31    1.32
  -6   4   2   18.09    1.25
  -6   4   2   18.31    1.23
  -6   4   2   19.11    1.09
  -6   4   2   15.68    1.20
  -6   4   2   17.36    1.25
  -6   4   2   17.81    1.32
  -6   4   2   17.76    1.12
  -5   4   2    0.93    0.24
  -5   4   2    1.30    0.19
  -5   4   2    1.11    0.13
  -5   4   2    1.19    0.26
  -5   4   2    0.90    0.24
  -5   4   2    0.92    0.10
  -5   4   2    0.83    0.14
  -5   4   2    1.06    0.13
  -5   4   2    0.76    0.12
  -4   4   2    2.28    0.20
  -4   4   2    2.92    0.34
  -4   4   2    2.43    0.24
  -4   4   2    3.62    0.36
  -4   4   2    2.50    0.24
  -3   4   2   38.61    2.75
  -3   4   2   40.10    2.94
  -3   4   2   39.65    2.76
  -2   4   2   23.33    1.64
  -2   4   2   23.12    1.75
  -2   4   2   22.52    1.63
   1  -4  -2   11.26    0.87
   1  -4  -2   12.39    0.95
   1  -4  -2    9.59    0.85
  -1   4   2   12.44    0.93
  -1   4   2   12.44    0.87
   0  -4  -2    2.35    0.31
   0  -4  -2    1.99    0.26
   0  -4  -2    1.40    0.23
  -1  -4  -2   45.84    3.38
  -1  -4  -2   44.62    3.17
  -1  -4  -2   46.12    3.15
  -2  -4  -2   -0.05    0.23
  -2  -4  -2    0.44    0.19
  -2  -4  -2    0.01    0.20
  -3  -4  -2   40.18    2.73
  -3  -4  -2   38.03    2.88
  -3  -4  -2   39.14    2.74
  -3  -4  -2   36.91    2.43
  -3  -4  -2   41.04    2.68
  -3  -4  -2   37.04    2.46
  -4  -4  -2    1.86    0.32
  -4  -4  -2    2.48    0.29
  -4  -4  -2    2.38    0.26
  -4  -4  -2    2.07    0.25
  -4  -4  -2    1.83    0.20
  -4  -4  -2    2.09    0.36
  -4  -4  -2    2.06    0.35
  -4  -4  -2    2.28    0.23
  -4  -4  -2    2.54    0.23
  -5  -4  -2   -0.07    0.20
  -5  -4  -2    0.08    0.21
  -5  -4  -2    0.19    0.25
  -5  -4  -2   -0.01    0.07
  -5  -4  -2   -0.13    0.13
  -5  -4  -2   -0.03    0.13
  -5  -4  -2    0.11    0.15
  -5  -4  -2   -0.05    0.11
  -5  -4  -2    0.57    0.34
  -6  -4  -2   11.68    0.81
  -6  -4  -2    9.05    0.91
  -6  -4  -2    9.86    0.97
  -6  -4  -2   11.51    0.70
  -6  -4  -2   10.57    0.86
  -6  -4  -2   11.68    0.77
  -7  -4  -2    3.74    0.37
  -7  -4  -2    4.05    0.36
  -7  -4  -2    3.60    0.25
  -7  -4  -2    3.40    0.45
  -8  -4  -2    0.13    0.17
  -8  -4  -2    0.01    0.24
  -8  -4  -2   -0.19    0.17
  -9  -4  -2    1.72    0.26
  -9  -4  -2    2.45    0.26
 -10   5   2    0.04    0.07
  -9   5   2    7.78    0.62
  -9   5   2    8.12    0.60
  -8   5   2    0.01    0.12
  -8   5   2    0.05    0.12
  -8   5   2    0.04    0.15
  -8   5   2   -0.13    0.15
  -7   5   2   10.79    0.86
  -7   5   2   13.02    0.79
  -7   5   2   11.51    0.88
  -7   5   2   13.59    0.94
  -7   5   2   12.51    0.79
  -6   5   2    0.42    0.12
  -6   5   2    0.29    0.14
  -6   5   2    0.37    0.27
  -6   5   2    0.16    0.14
  -6   5   2    0.48    0.20
  -5   5   2    2.42    0.26
  -5   5   2    2.53    0.27
  -5   5   2    2.44    0.20
  -5   5   2    2.38    0.37
  -5   5   2    2.48    0.34
  -5   5   2    2.74    0.37
  -5   5   2    2.42    0.26
  -4   5   2    1.45    0.17
  -4   5   2    1.83    0.33
  -4   5   2    1.60    0.17
  -4   5   2    1.48    0.14
  -4   5   2    1.57    0.18
  -4   5   2    1.72    0.30
  -3   5   2    2.08    0.28
  -3   5   2    2.93    0.34
  -3   5   2    2.39    0.34
  -3   5   2    2.27    0.21
  -3   5   2    2.01    0.19
  -2   5   2    0.85    0.25
  -2   5   2    0.45    0.23
  -2   5   2    1.04    0.23
   0  -5  -2    1.46    0.27
   0  -5  -2    2.12    0.29
   0  -5  -2    1.71    0.33
  -1  -5  -2    2.69    0.41
  -1  -5  -2    3.58    0.42
  -1  -5  -2    3.20    0.38
  -2  -5  -2    0.06    0.09
  -2  -5  -2   -0.01    0.13
  -2  -5  -2    0.11    0.23
  -2  -5  -2   -0.12    0.14
  -2  -5  -2    0.07    0.28
  -2  -5  -2    0.04    0.19
  -3  -5  -2   18.87    1.29
  -3  -5  -2   18.40    1.10
  -3  -5  -2   16.97    1.14
  -3  -5  -2   17.26    1.10
  -3  -5  -2   16.66    1.38
  -3  -5  -2   19.32    1.33
  -3  -5  -2   16.76    1.31
  -3  -5  -2   17.39    1.13
  -3  -5  -2   15.43    1.20
  -4  -5  -2   -0.33    0.31
  -4  -5  -2   -0.18    0.21
  -4  -5  -2   -0.04    0.19
  -4  -5  -2   -0.06    0.12
  -4  -5  -2    0.16    0.11
  -4  -5  -2   -0.17    0.25
  -4  -5  -2   -0.05    0.14
  -4  -5  -2    0.24    0.13
  -5  -5  -2   35.10    2.45
  -5  -5  -2   31.15    2.58
  -5  -5  -2   36.93    2.65
  -5  -5  -2   38.08    2.32
  -5  -5  -2   35.95    2.28
  -5  -5  -2   32.49    2.47
  -5  -5  -2   39.89    2.22
  -6  -5  -2   -0.05    0.19
  -6  -5  -2   -0.22    0.15
  -6  -5  -2   -0.06    0.10
  -6  -5  -2   -0.32    0.23
  -7  -5  -2    1.46    0.12
  -7  -5  -2    1.19    0.18
  -7  -5  -2    0.85    0.20
  -7  -5  -2    1.13    0.20
  -8  -5  -2    1.44    0.17
  -8  -5  -2    1.49    0.20
  -8  -5  -2    1.37    0.20
  -9  -5  -2    0.29    0.13
  -9   6   2   -0.11    0.10
  -9   6   2    0.03    0.10
  -8   6   2    2.01    0.19
  -8   6   2    1.60    0.19
  -8   6   2    1.76    0.21
  -7   6   2    1.71    0.21
  -7   6   2    2.32    0.20
  -7   6   2    1.74    0.19
  -7   6   2    1.75    0.27
  -6   6   2    2.35    0.29
  -6   6   2    2.69    0.30
  -6   6   2    2.66    0.27
  -6   6   2    2.44    0.25
  -5   6   2   10.77    0.68
  -5   6   2   10.86    0.68
  -5   6   2   10.15    0.77
  -5   6   2    9.87    0.71
  -4   6   2    4.99    0.60
  -4   6   2    5.46    0.42
  -4   6   2    6.05    0.47
  -4   6   2    5.18    0.42
  -4   6   2    5.97    0.57
  -4   6   2    5.81    0.39
  -3   6   2   10.10    0.73
  -3   6   2   10.40    0.67
  -3   6   2   10.46    0.83
  -3   6   2    9.68    0.70
  -3   6   2    9.54    0.85
  -2   6   2    4.69    0.35
  -2   6   2    5.25    0.48
   1  -6  -2   13.31    1.07
  -1   6   2   14.55    1.06
   0  -6  -2    8.26    0.68
   0  -6  -2    6.93    0.50
  -1  -6  -2    1.42    0.33
  -1  -6  -2    1.93    0.35
  -1  -6  -2    1.75    0.15
  -1  -6  -2    1.46    0.18
  -1  -6  -2    0.94    0.37
  -2  -6  -2    9.48    0.67
  -2  -6  -2   10.07    0.84
  -2  -6  -2    9.99    0.64
  -2  -6  -2    9.71    0.66
  -2  -6  -2    9.36    0.64
  -2  -6  -2    8.79    0.87
  -2  -6  -2   10.03    0.81
  -3  -6  -2    0.26    0.28
  -3  -6  -2   -0.09    0.14
  -3  -6  -2    0.03    0.16
  -3  -6  -2   -0.03    0.07
  -3  -6  -2    0.11    0.14
  -3  -6  -2    0.04    0.26
  -3  -6  -2    0.07    0.32
  -4  -6  -2    2.94    0.32
  -4  -6  -2    2.99    0.26
  -4  -6  -2    2.73    0.26
  -4  -6  -2    2.50    0.28
  -4  -6  -2    3.04    0.52
  -5  -6  -2    5.94    0.52
  -5  -6  -2    6.21    0.51
  -5  -6  -2    7.07    0.45
  -5  -6  -2    6.28    0.42
  -6  -6  -2    0.01    0.16
  -6  -6  -2   -0.03    0.20
  -6  -6  -2    0.13    0.11
  -7  -6  -2    4.03    0.38
  -7  -6  -2    4.97    0.40
  -8  -6  -2   -0.14    0.09
  -8  -6  -2    0.01    0.15
  -8   7   2    3.02    0.30
  -8   7   2    2.78    0.26
  -8   7   2    3.19    0.23
  -7   7   2    1.43    0.16
  -7   7   2    1.92    0.20
  -7   7   2    1.48    0.18
  -7   7   2    1.49    0.14
  -6   7   2    0.07    0.12
  -6   7   2   -0.03    0.11
  -6   7   2    0.03    0.17
  -6   7   2   -0.07    0.14
  -5   7   2    1.37    0.18
  -5   7   2    1.36    0.13
  -5   7   2    1.33    0.18
  -5   7   2    1.57    0.21
  -4   7   2   10.18    0.68
  -4   7   2   10.21    0.72
  -3   7   2    1.11    0.29
  -3   7   2    1.83    0.17
  -2   7   2    9.78    0.67
   1  -7  -2    0.44    0.16
   0  -7  -2    0.66    0.27
   0  -7  -2    1.15    0.16
  -1  -7  -2    8.08    0.77
  -1  -7  -2    8.39    0.60
  -1  -7  -2    8.27    0.80
  -1  -7  -2    8.96    0.59
  -1  -7  -2    8.56    0.61
  -2  -7  -2   -0.01    0.10
  -2  -7  -2   -0.03    0.14
  -2  -7  -2    0.08    0.15
  -2  -7  -2   -0.42    0.28
  -2  -7  -2    0.33    0.18
  -3  -7  -2    5.78    0.49
  -3  -7  -2    5.51    0.45
  -3  -7  -2    6.02    0.44
  -3  -7  -2    5.24    0.42
  -4  -7  -2    3.96    0.39
  -4  -7  -2    4.59    0.34
  -4  -7  -2    3.93    0.36
  -5  -7  -2    0.94    0.16
  -5  -7  -2    0.61    0.15
  -6  -7  -2    2.69    0.28
  -6  -7  -2    2.63    0.27
  -6  -7  -2    3.27    0.24
  -7  -7  -2    0.16    0.11
  -7  -7  -2    0.35    0.16
  -7   8   2    0.95    0.18
  -7   8   2    0.71    0.13
  -6   8   2    1.12    0.16
  -6   8   2    0.95    0.13
  -6   8   2    1.02    0.21
  -5   8   2    3.62    0.26
  -5   8   2    4.29    0.40
  -5   8   2    4.36    0.33
  -4   8   2    0.31    0.20
  -4   8   2    0.47    0.13
  -3   8   2   -0.22    0.14
  -2   8   2   12.79    0.84
   1  -8  -2    0.50    0.17
   0  -8  -2    6.07    0.44
  -1  -8  -2    2.85    0.33
  -1  -8  -2    3.16    0.30
  -1  -8  -2    3.53    0.29
  -2  -8  -2    7.53    0.57
  -2  -8  -2    7.89    0.52
  -2  -8  -2    8.55    0.56
  -2  -8  -2    7.06    0.54
  -3  -8  -2    0.26    0.15
  -3  -8  -2   -0.29    0.15
  -3  -8  -2   -0.03    0.19
  -3  -8  -2    0.12    0.13
  -4  -8  -2    0.00    0.13
  -4  -8  -2    0.04    0.11
  -4  -8  -2   -0.07    0.16
  -5  -8  -2    2.36    0.20
  -5  -8  -2    1.95    0.22
  -6  -8  -2    1.72    0.18
  -6  -8  -2    1.70    0.14
  -6   9   2    9.52    0.57
  -6   9   2    7.80    0.63
  -6   9   2    8.39    0.56
  -5   9   2    0.05    0.13
  -5   9   2    0.23    0.12
  -4   9   2    0.01    0.09
  -4   9   2    0.05    0.15
  -3   9   2    0.57    0.13
   2  -9  -2    5.74    0.45
  -2   9   2    6.76    0.45
   1  -9  -2    4.59    0.35
  -1   9   2    4.22    0.35
   0  -9  -2    2.17    0.22
   0  -9  -2    2.09    0.24
  -1  -9  -2    2.49    0.22
  -1  -9  -2    2.51    0.29
  -2  -9  -2    4.83    0.34
  -2  -9  -2    4.07    0.34
  -2  -9  -2    3.75    0.34
  -2  -9  -2    3.88    0.35
  -3  -9  -2    1.22    0.15
  -3  -9  -2    1.56    0.16
  -3  -9  -2    1.07    0.17
  -3  -9  -2    1.23    0.17
  -4  -9  -2   -0.11    0.14
  -4  -9  -2   -0.16    0.14
  -5  -9  -2    0.04    0.09
  -5  -9  -2    0.02    0.11
  -4  10   2    3.60    0.30
  -4  10   2    3.65    0.27
   3 -10  -2    1.73    0.20
  -3  10   2    1.87    0.16
   2 -10  -2   16.57    0.99
  -2  10   2   14.30    0.98
   1 -10  -2    0.24    0.10
  -1  10   2    0.08    0.12
   0 -10  -2    0.41    0.15
   0 -10  -2    0.18    0.09
  -1 -10  -2    1.92    0.22
  -1 -10  -2    2.40    0.23
  -2 -10  -2    0.13    0.13
  -2 -10  -2    0.23    0.10
  -2 -10  -2    0.09    0.13
  -3 -10  -2   -0.05    0.10
  -1 -12   3    3.05    0.25
   0 -12   3    4.67    0.35
  -4 -11   3    0.06    0.11
  -3 -11   3    1.85    0.19
  -2 -11   3    1.12    0.21
  -2 -11   3    1.38    0.17
  -1 -11   3    0.28    0.12
   0 -11   3    0.53    0.15
   0 -11   3    0.26    0.17
   1 -11   3    2.39    0.28
  -3  11  -3    0.21    0.10
  -4  11  -3    1.64    0.17
  -5 -10   3    7.29    0.54
  -4 -10   3   31.00    1.96
  -4 -10   3   26.47    1.77
  -3 -10   3    1.51    0.20
  -3 -10   3    1.45    0.17
  -2 -10   3    0.35    0.14
  -2 -10   3    0.13    0.20
  -2 -10   3    0.06    0.16
  -1 -10   3    2.89    0.24
  -1 -10   3    2.01    0.27
   0 -10   3    0.32    0.12
   0 -10   3    0.61    0.20
   1 -10   3   -0.01    0.13
  -2  10  -3    1.29    0.16
   2 -10   3    1.15    0.15
  -3  10  -3    0.57    0.13
  -4  10  -3    2.39    0.26
  -5  10  -3    0.11    0.11
  -6  10  -3    1.04    0.13
  -7  -9   3    0.02    0.11
  -7  -9   3    0.15    0.11
  -6  -9   3    5.40    0.45
  -6  -9   3    5.01    0.39
  -5  -9   3    3.28    0.29
  -5  -9   3    3.14    0.26
  -5  -9   3    3.53    0.38
  -4  -9   3    0.69    0.24
  -4  -9   3    1.02    0.16
  -4  -9   3    0.85    0.14
  -3  -9   3    1.44    0.16
  -3  -9   3    1.08    0.14
  -3  -9   3    1.34    0.24
  -2  -9   3   10.37    0.75
  -2  -9   3   12.55    0.85
  -2  -9   3   11.70    0.78
  -1  -9   3    0.49    0.15
  -1  -9   3    0.32    0.11
   0  -9   3    0.88    0.16
   0  -9   3    0.38    0.11
   1  -9   3    7.85    0.55
  -2   9  -3    0.41    0.16
   2  -9   3    0.33    0.12
  -3   9  -3    6.17    0.45
  -4   9  -3    2.76    0.32
  -4   9  -3    2.94    0.36
  -4   9  -3    3.24    0.27
  -5   9  -3    0.38    0.14
  -6   9  -3    0.64    0.19
  -7   9  -3    1.31    0.16
  -8  -8   3    0.97    0.15
  -8  -8   3    1.14    0.18
  -7  -8   3    0.95    0.17
  -7  -8   3    1.13    0.17
  -6  -8   3    1.83    0.16
  -6  -8   3    1.51    0.19
  -6  -8   3    1.57    0.19
  -6  -8   3    1.52    0.21
  -5  -8   3    7.70    0.62
  -5  -8   3    9.62    0.68
  -5  -8   3    8.20    0.55
  -5  -8   3    8.37    0.59
  -4  -8   3    0.16    0.22
  -4  -8   3    0.16    0.16
  -4  -8   3    0.10    0.10
  -4  -8   3    0.17    0.10
  -4  -8   3    0.20    0.13
  -3  -8   3    6.46    0.49
  -3  -8   3    7.27    0.49
  -3  -8   3    7.20    0.47
  -3  -8   3    5.81    0.64
  -3  -8   3    6.94    0.56
  -2  -8   3    1.63    0.31
  -2  -8   3    0.99    0.14
  -2  -8   3    1.13    0.11
  -2  -8   3    0.76    0.25
  -2  -8   3    1.22    0.17
  -2  -8   3    1.36    0.20
  -2  -8   3    0.72    0.36
  -1  -8   3    0.81    0.14
  -1  -8   3    0.90    0.31
  -1  -8   3    1.05    0.12
  -1  -8   3    0.87    0.40
   0  -8   3   14.92    0.97
   1  -8   3    5.85    0.42
  -2   8  -3   13.47    0.88
  -3   8  -3    5.16    0.38
  -4   8  -3    3.85    0.30
  -4   8  -3    3.42    0.38
  -4   8  -3    3.47    0.34
  -5   8  -3    2.27    0.27
  -5   8  -3    2.24    0.25
  -5   8  -3    2.68    0.23
  -6   8  -3    0.43    0.20
  -6   8  -3    0.30    0.13
  -6   8  -3    0.51    0.14
  -7   8  -3    0.91    0.14
  -7   8  -3    1.00    0.16
  -8   8  -3    0.07    0.12
  -9  -7   3    1.32    0.15
  -8  -7   3    2.26    0.24
  -8  -7   3    1.80    0.25
  -8  -7   3    1.92    0.21
  -7  -7   3    0.03    0.15
  -7  -7   3    0.26    0.22
  -7  -7   3    0.20    0.11
  -6  -7   3    4.27    0.37
  -6  -7   3    4.29    0.29
  -6  -7   3    3.59    0.34
  -6  -7   3    4.88    0.44
  -5  -7   3    1.08    0.17
  -5  -7   3    1.12    0.17
  -5  -7   3    1.15    0.40
  -5  -7   3    1.54    0.24
  -5  -7   3    1.19    0.13
  -4  -7   3    0.67    0.29
  -4  -7   3    0.83    0.21
  -4  -7   3    0.42    0.13
  -4  -7   3    0.74    0.12
  -4  -7   3    0.98    0.27
  -4  -7   3    0.68    0.11
  -4  -7   3    0.50    0.13
  -4  -7   3    0.83    0.20
  -3  -7   3    8.54    0.70
  -3  -7   3    8.67    0.57
  -3  -7   3    9.62    0.65
  -3  -7   3    8.55    0.58
  -3  -7   3    7.91    0.63
  -3  -7   3    8.30    0.77
  -3  -7   3    8.92    0.77
  -3  -7   3    8.23    0.60
  -2  -7   3   10.46    0.70
  -2  -7   3   10.62    0.70
  -2  -7   3   11.71    0.94
  -2  -7   3   10.63    0.88
  -2  -7   3   10.59    0.73
  -2  -7   3   11.44    0.86
  -1  -7   3    3.85    0.32
  -1  -7   3    4.69    0.47
  -1  -7   3    3.91    0.30
  -1  -7   3    3.54    0.34
  -1  -7   3    4.71    0.54
  -1  -7   3    3.89    0.43
   0  -7   3    8.22    0.68
   0  -7   3    7.81    0.54
   0  -7   3    9.04    0.79
  -2   7  -3    1.27    0.13
  -3   7  -3   18.90    1.22
  -4   7  -3    5.11    0.36
  -4   7  -3    4.72    0.38
  -4   7  -3    3.57    0.49
  -5   7  -3    0.81    0.14
  -5   7  -3    0.86    0.11
  -5   7  -3    0.72    0.14
  -5   7  -3    1.09    0.17
  -6   7  -3    2.35    0.29
  -6   7  -3    2.51    0.29
  -6   7  -3    2.40    0.25
  -6   7  -3    2.36    0.25
  -7   7  -3    1.24    0.15
  -7   7  -3    1.66    0.20
  -7   7  -3    1.34    0.21
  -8   7  -3    0.08    0.20
  -8   7  -3    0.09    0.10
  -9   7  -3   -0.05    0.10
  -9  -6   3    0.08    0.16
  -9  -6   3    0.23    0.15
  -9  -6   3    0.26    0.09
  -8  -6   3    3.06    0.34
  -8  -6   3    3.02    0.29
  -8  -6   3    2.18    0.24
  -7  -6   3    7.83    0.55
  -7  -6   3    7.03    0.58
  -7  -6   3    7.91    0.62
  -6  -6   3    0.86    0.31
  -6  -6   3    1.08    0.10
  -6  -6   3    0.80    0.17
  -6  -6   3    0.91    0.17
  -6  -6   3    1.06    0.22
  -5  -6   3   -0.05    0.09
  -5  -6   3    0.02    0.15
  -5  -6   3   -0.09    0.13
  -5  -6   3   -0.24    0.25
  -5  -6   3    0.11    0.18
  -4  -6   3   16.37    1.12
  -4  -6   3   16.26    1.05
  -4  -6   3   16.83    1.13
  -4  -6   3   13.19    1.20
  -4  -6   3   16.12    1.22
  -4  -6   3   17.05    1.00
  -4  -6   3   16.11    1.03
  -4  -6   3   16.26    1.15
  -4  -6   3   15.86    1.23
  -3  -6   3    0.49    0.17
  -3  -6   3    0.51    0.20
  -3  -6   3    0.61    0.10
  -3  -6   3    0.53    0.06
  -3  -6   3    0.39    0.15
  -3  -6   3    0.28    0.24
  -3  -6   3    0.45    0.11
  -3  -6   3    0.63    0.13
  -3  -6   3    0.54    0.20
  -3  -6   3    0.42    0.10
  -3  -6   3    0.59    0.26
  -2  -6   3    0.39    0.29
  -2  -6   3   -0.05    0.17
  -2  -6   3   -0.05    0.19
  -2  -6   3    0.00    0.27
  -2  -6   3    0.05    0.07
  -1  -6   3   14.49    1.15
  -1  -6   3   14.28    1.07
  -1  -6   3   13.81    1.05
   0  -6   3    4.00    0.50
   0  -6   3    4.57    0.44
   0  -6   3    3.89    0.38
  -2   6  -3    5.30    0.52
  -2   6  -3    5.39    0.52
  -3   6  -3   10.67    0.77
  -3   6  -3    8.64    0.60
  -3   6  -3    8.59    0.82
  -4   6  -3    3.39    0.33
  -4   6  -3    3.57    0.43
  -4   6  -3    3.89    0.34
  -4   6  -3    4.13    0.37
  -4   6  -3    3.76    0.50
  -4   6  -3    4.20    0.31
  -4   6  -3    4.74    0.45
  -5   6  -3  145.19    8.55
  -5   6  -3  146.73    9.67
  -5   6  -3  130.53   10.21
  -5   6  -3  142.03    8.75
  -5   6  -3  140.99    8.83
  -5   6  -3  131.07    9.53
  -5   6  -3  136.71    9.57
  -6   6  -3    2.69    0.43
  -6   6  -3    4.38    0.45
  -6   6  -3    4.29    0.37
  -6   6  -3    4.06    0.32
  -6   6  -3    4.89    0.36
  -7   6  -3    0.55    0.21
  -7   6  -3    0.15    0.21
  -7   6  -3    0.37    0.11
  -7   6  -3    0.40    0.13
  -8   6  -3    1.17    0.21
  -8   6  -3    1.47    0.15
  -8   6  -3    1.34    0.20
  -9   6  -3    0.03    0.13
  -9  -5   3    1.16    0.21
  -9  -5   3    1.25    0.15
  -9  -5   3    1.41    0.19
  -8  -5   3    0.76    0.17
  -8  -5   3    0.46    0.18
  -8  -5   3    0.72    0.16
  -7  -5   3    0.50    0.16
  -7  -5   3    0.71    0.21
  -7  -5   3    0.74    0.16
  -7  -5   3    0.65    0.16
  -6  -5   3    2.22    0.21
  -6  -5   3    2.25    0.26
  -6  -5   3    2.43    0.27
  -6  -5   3    2.05    0.16
  -6  -5   3    1.53    0.33
  -6  -5   3    1.98    0.23
  -6  -5   3    1.78    0.25
  -5  -5   3    4.43    0.35
  -5  -5   3    4.01    0.29
  -5  -5   3    4.79    0.43
  -5  -5   3    4.48    0.38
  -5  -5   3    3.96    0.38
  -5  -5   3    4.33    0.51
  -5  -5   3    4.30    0.40
  -4  -5   3    3.07    0.24
  -4  -5   3    3.20    0.30
  -4  -5   3    3.26    0.32
  -4  -5   3    3.16    0.38
  -4  -5   3    3.47    0.30
  -4  -5   3    3.25    0.32
  -4  -5   3    3.02    0.27
  -4  -5   3    2.91    0.42
  -4  -5   3    2.93    0.23
  -3  -5   3    1.79    0.35
  -3  -5   3    2.20    0.28
  -3  -5   3    2.21    0.25
  -3  -5   3    2.39    0.29
  -2  -5   3   16.00    1.18
  -2  -5   3   16.22    1.25
  -2  -5   3   15.51    1.39
  -2  -5   3   17.09    1.17
  -1  -5   3    7.73    0.61
  -1  -5   3    6.93    0.60
  -1  -5   3    8.42    0.67
   0   5  -3    8.94    0.75
   0  -5   3   10.58    0.75
   0  -5   3   11.18    0.78
   0  -5   3   11.33    0.86
   0  -5   3    9.02    0.76
  -1   5  -3    0.52    0.17
  -1   5  -3    0.41    0.16
  -1   5  -3    0.32    0.11
   1  -5   3    0.42    0.20
   1  -5   3    0.42    0.18
   1  -5   3    0.34    0.14
  -2   5  -3   27.90    1.93
  -2   5  -3   27.34    2.07
  -2   5  -3   26.68    1.90
  -3   5  -3    0.17    0.15
  -3   5  -3    0.18    0.18
  -3   5  -3    0.07    0.21
  -4   5  -3   45.22    2.98
  -4   5  -3   45.89    3.30
  -4   5  -3   45.36    3.01
  -4   5  -3   51.08    3.30
  -4   5  -3   46.34    2.92
  -4   5  -3   49.20    3.29
  -4   5  -3   48.63    3.53
  -5   5  -3    6.41    0.44
  -5   5  -3    5.80    0.60
  -5   5  -3    5.90    0.59
  -5   5  -3    6.28    0.43
  -5   5  -3    6.38    0.56
  -5   5  -3    5.84    0.41
  -5   5  -3    5.98    0.51
  -5   5  -3    6.79    0.69
  -6   5  -3    0.05    0.09
  -6   5  -3   -0.11    0.24
  -6   5  -3    0.02    0.19
  -6   5  -3   -0.62    0.20
  -6   5  -3    0.09    0.27
  -6   5  -3    0.17    0.22
  -6   5  -3    0.10    0.13
  -6   5  -3    0.38    0.45
  -7   5  -3   10.58    0.71
  -7   5  -3    9.96    0.84
  -7   5  -3   11.35    0.83
  -7   5  -3   10.42    0.78
  -7   5  -3   11.72    0.70
  -8   5  -3    1.22    0.19
  -8   5  -3    0.96    0.22
  -8   5  -3    1.08    0.16
  -8   5  -3    0.79    0.11
  -9   5  -3    1.17    0.15
  -9   5  -3    1.14    0.16
  -9   5  -3    1.55    0.23
 -10   5  -3    1.09    0.14
 -10  -4   3    0.26    0.12
  -9  -4   3   -0.08    0.13
  -9  -4   3    0.05    0.19
  -9  -4   3    0.17    0.15
  -8  -4   3   11.10    0.77
  -8  -4   3   10.97    0.74
  -8  -4   3   10.73    0.80
  -8  -4   3   11.67    0.85
  -8  -4   3    8.87    0.81
  -7  -4   3    0.06    0.19
  -7  -4   3    0.15    0.18
  -7  -4   3    0.01    0.25
  -7  -4   3   -0.09    0.13
  -7  -4   3    0.02    0.15
  -7  -4   3   -0.15    0.18
  -7  -4   3   -0.09    0.17
  -6  -4   3   11.08    0.76
  -6  -4   3   11.05    0.82
  -6  -4   3    9.65    0.86
  -6  -4   3   10.64    0.71
  -6  -4   3   11.05    0.74
  -6  -4   3    8.60    0.78
  -5  -4   3    1.02    0.24
  -5  -4   3    0.78    0.17
  -5  -4   3    1.01    0.26
  -5  -4   3    0.72    0.13
  -5  -4   3    0.99    0.14
  -5  -4   3    0.78    0.18
  -5  -4   3    0.81    0.08
  -5  -4   3    0.63    0.15
  -4  -4   3   20.51    1.36
  -4  -4   3   19.38    1.45
  -4  -4   3   20.22    1.42
  -4  -4   3   19.38    1.45
  -4  -4   3   18.14    1.35
  -4  -4   3   20.22    1.65
  -3  -4   3    3.58    0.39
  -3  -4   3    3.75    0.32
  -3  -4   3    3.77    0.35
  -3  -4   3    3.56    0.49
  -2  -4   3  111.65    7.23
  -2  -4   3  112.58    7.75
  -2  -4   3  108.35    7.27
  -2  -4   3   93.34    7.11
  -2  -4   3  103.76    8.48
   1   4  -3    1.06    0.15
   1   4  -3    1.01    0.16
  -1  -4   3    0.94    0.14
  -1  -4   3    1.01    0.16
  -1  -4   3    1.22    0.21
  -1  -4   3    1.18    0.17
  -1  -4   3    1.25    0.17
   0   4  -3   84.50    6.24
   0   4  -3   80.72    5.82
   0   4  -3   83.24    5.74
   0   4  -3   87.09    5.74
   0  -4   3   89.33    5.82
   0  -4   3   90.36    6.25
   0  -4   3   84.95    5.74
   0  -4   3   80.84    5.74
   0  -4   3   85.71    5.83
  -1   4  -3  117.12    8.78
  -1   4  -3  119.91    8.06
  -1   4  -3  120.48    8.07
  -1   4  -3  123.74    8.20
  -1   4  -3  126.83    8.19
   1  -4   3  114.57    8.78
   1  -4   3  115.96    8.20
   1  -4   3  120.57    8.07
   1  -4   3  118.05    8.06
   1  -4   3  122.91    8.19
  -2   4  -3    1.90    0.23
  -2   4  -3    2.15    0.26
  -2   4  -3    2.14    0.24
  -2   4  -3    1.99    0.23
  -2   4  -3    2.30    0.28
   2  -4   3    1.94    0.24
  -3   4  -3   10.02    0.85
  -3   4  -3   10.12    0.77
  -3   4  -3   10.87    0.79
  -4   4  -3   26.89    2.01
  -4   4  -3   27.01    1.94
  -4   4  -3   28.67    2.09
  -4   4  -3   27.77    1.95
  -5   4  -3    6.41    0.71
  -5   4  -3    7.72    0.56
  -5   4  -3    6.57    0.46
  -5   4  -3    7.85    0.62
  -5   4  -3    6.91    0.64
  -5   4  -3    6.76    0.47
  -5   4  -3    6.95    0.49
  -5   4  -3    7.77    0.63
  -5   4  -3    6.59    0.53
  -6   4  -3    6.84    0.46
  -6   4  -3    7.00    0.53
  -6   4  -3    6.17    0.59
  -6   4  -3    6.51    0.60
  -6   4  -3    6.98    0.60
  -6   4  -3    6.21    0.48
  -6   4  -3    7.31    0.56
  -6   4  -3    5.78    0.72
  -6   4  -3    6.48    0.61
  -7   4  -3    1.31    0.15
  -7   4  -3    1.78    0.26
  -7   4  -3    1.01    0.36
  -7   4  -3    1.44    0.18
  -7   4  -3    1.49    0.22
  -8   4  -3    1.01    0.17
  -8   4  -3    0.94    0.12
  -8   4  -3    1.23    0.25
  -8   4  -3    1.04    0.19
  -9   4  -3    0.00    0.14
  -9   4  -3    0.01    0.09
  -9   4  -3   -0.06    0.15
 -10   4  -3    0.78    0.14
 -10   4  -3    0.76    0.15
 -10  -3   3    0.34    0.12
 -10  -3   3    0.20    0.10
  -9  -3   3    1.19    0.17
  -9  -3   3    1.51    0.18
  -9  -3   3    1.78    0.21
  -9  -3   3    1.69    0.19
  -9  -3   3    1.55    0.19
  -8  -3   3    1.09    0.18
  -8  -3   3    0.69    0.20
  -8  -3   3    0.71    0.15
  -8  -3   3    0.90    0.14
  -8  -3   3    0.89    0.16
  -8  -3   3    0.86    0.23
  -8  -3   3    0.96    0.20
  -7  -3   3    2.40    0.25
  -7  -3   3    2.64    0.26
  -7  -3   3    2.36    0.23
  -7  -3   3    2.71    0.26
  -7  -3   3    2.61    0.27
  -7  -3   3    2.86    0.32
  -7  -3   3    1.87    0.32
  -7  -3   3    1.82    0.25
  -6  -3   3   13.13    0.81
  -6  -3   3   12.98    0.85
  -6  -3   3   12.03    0.94
  -6  -3   3   12.38    0.91
  -6  -3   3   11.45    1.06
  -6  -3   3   10.26    0.83
  -6  -3   3   12.41    0.85
  -6  -3   3   10.69    0.89
  -5  -3   3    2.29    0.27
  -5  -3   3    2.35    0.23
  -5  -3   3    2.69    0.35
  -5  -3   3    2.38    0.29
  -4  -3   3   50.03    4.07
  -4  -3   3   50.70    3.50
   3   3  -3   71.97    5.50
  -3  -3   3   84.42    5.64
  -3  -3   3   74.93    5.50
  -3  -3   3   87.34    5.99
  -3  -3   3   78.79    5.58
  -3  -3   3   86.21    6.58
  -3  -3   3   76.11    5.50
  -3  -3   3   87.13    5.99
  -3  -3   3   91.11    5.59
   2   3  -3   10.51    0.69
   2   3  -3    9.69    0.70
  -2  -3   3    9.74    0.69
  -2  -3   3   10.35    0.77
  -2  -3   3   10.46    0.70
  -2  -3   3   10.37    0.71
  -2  -3   3    8.39    0.69
  -2  -3   3    8.98    0.86
  -2  -3   3    9.09    0.75
  -2  -3   3   10.20    0.73
   1   3  -3   40.36    3.09
   1   3  -3   45.96    2.84
   1   3  -3   42.49    2.84
   1   3  -3   36.41    2.88
  -1  -3   3   43.75    2.88
  -1  -3   3   46.54    3.10
  -1  -3   3   41.18    2.89
  -1  -3   3   41.16    2.84
  -1  -3   3   45.18    2.84
  -1  -3   3   37.12    3.09
   0   3  -3  182.71   13.02
   0   3  -3  201.13   12.83
   0   3  -3  183.93   12.82
   0   3  -3  190.04   13.96
   0  -3   3  177.82   12.82
   0  -3   3  191.57   13.06
   0  -3   3  199.61   12.83
   0  -3   3  193.88   13.02
   0  -3   3  202.19   13.96
  -1   3  -3    3.54    0.33
  -1   3  -3    4.41    0.37
  -1   3  -3    3.74    0.29
  -1   3  -3    3.81    0.32
  -1   3  -3    3.85    0.32
   1  -3   3    3.71    0.33
   1  -3   3    3.62    0.33
   1  -3   3    3.72    0.37
   1  -3   3    3.21    0.33
  -2   3  -3    4.60    0.38
  -2   3  -3    4.71    0.39
  -2   3  -3    4.78    0.42
  -2   3  -3    4.23    0.37
  -2   3  -3    4.88    0.36
   2  -3   3    4.36    0.38
   2  -3   3    4.92    0.38
   2  -3   3    4.26    0.42
   2  -3   3    3.95    0.38
  -3   3  -3   21.50    1.46
  -3   3  -3   17.96    1.43
  -3   3  -3   21.68    1.45
  -3   3  -3   21.12    1.56
  -4   3  -3    2.96    0.33
  -4   3  -3    2.57    0.30
  -4   3  -3    2.73    0.37
  -4   3  -3    2.71    0.30
  -5   3  -3    3.98    0.29
  -5   3  -3    4.21    0.32
  -5   3  -3    4.27    0.44
  -5   3  -3    3.17    0.42
  -5   3  -3    3.62    0.37
  -5   3  -3    4.28    0.43
  -5   3  -3    4.60    0.43
  -5   3  -3    4.17    0.53
  -6   3  -3    7.69    0.64
  -6   3  -3    7.32    0.65
  -6   3  -3    8.29    0.71
  -6   3  -3    7.21    0.52
  -6   3  -3    8.25    0.67
  -6   3  -3    7.62    0.51
  -6   3  -3    7.80    0.58
  -6   3  -3    8.06    0.62
  -6   3  -3    7.60    0.84
  -7   3  -3    6.16    0.56
  -7   3  -3    5.67    0.47
  -7   3  -3    4.43    0.57
  -7   3  -3    5.98    0.46
  -7   3  -3    5.19    0.65
  -7   3  -3    5.65    0.39
  -8   3  -3    1.11    0.14
  -8   3  -3    1.08    0.27
  -8   3  -3    1.37    0.18
  -8   3  -3    1.47    0.27
  -9   3  -3   -0.25    0.15
  -9   3  -3   -0.18    0.22
  -9   3  -3   -0.11    0.14
 -10   3  -3    0.26    0.14
 -10   3  -3    0.49    0.17
 -10  -2   3    0.03    0.11
 -10  -2   3    0.01    0.10
  -9  -2   3   12.15    0.83
  -9  -2   3   10.39    0.78
  -9  -2   3   10.42    0.75
  -9  -2   3   10.92    0.76
  -9  -2   3    9.84    0.78
  -9  -2   3   10.04    0.72
  -8  -2   3   12.54    1.01
  -8  -2   3   14.07    0.94
  -8  -2   3   13.46    1.05
  -8  -2   3   11.76    0.99
  -8  -2   3   13.99    0.97
  -8  -2   3   15.95    1.06
  -8  -2   3   14.62    1.00
  -8  -2   3   13.96    0.97
  -7  -2   3    3.24    0.38
  -7  -2   3    3.26    0.36
  -7  -2   3    4.50    0.39
  -7  -2   3    4.04    0.33
  -7  -2   3    3.80    0.35
  -7  -2   3    3.67    0.37
  -7  -2   3    4.85    0.36
  -7  -2   3    4.02    0.39
  -7  -2   3    3.64    0.52
  -6  -2   3   10.57    0.86
  -6  -2   3   11.80    0.80
  -6  -2   3   11.02    0.78
  -6  -2   3   10.70    0.78
  -6  -2   3   12.10    1.02
  -6  -2   3   11.60    0.75
  -6  -2   3    9.91    0.80
  -6  -2   3   11.40    0.85
  -6  -2   3   11.32    0.86
  -5  -2   3    4.86    0.53
  -5  -2   3    4.46    0.45
  -4  -2   3   10.02    0.79
  -4  -2   3   11.26    0.98
  -4  -2   3   12.21    0.84
   3   2  -3    7.63    0.62
   3   2  -3    8.75    0.61
  -3  -2   3    8.99    0.66
  -3  -2   3    9.43    0.67
  -3  -2   3    8.71    0.62
  -3  -2   3    8.50    0.61
  -3  -2   3    7.82    0.62
  -3  -2   3    7.70    0.61
  -3  -2   3    9.53    0.81
  -3  -2   3    9.75    0.63
  -3  -2   3    9.42    0.67
   2   2  -3    0.47    0.13
   2   2  -3    0.36    0.10
  -2  -2   3    0.33    0.13
  -2  -2   3    0.32    0.09
  -2  -2   3    0.34    0.07
  -2  -2   3    0.37    0.11
  -2  -2   3    0.44    0.13
  -2  -2   3    0.41    0.11
  -2  -2   3    0.37    0.11
  -2  -2   3    0.42    0.10
  -2  -2   3    0.39    0.17
   1   2  -3    3.74    0.31
   1   2  -3    3.92    0.32
   1   2  -3    3.82    0.30
   1   2  -3    3.25    0.32
  -1  -2   3    3.00    0.28
  -1  -2   3    3.20    0.37
  -1  -2   3    3.56    0.31
  -1  -2   3    3.68    0.31
  -1  -2   3    3.78    0.30
  -1  -2   3    3.65    0.34
  -1  -2   3    4.04    0.30
   0   2  -3    2.47    0.27
   0   2  -3    2.60    0.27
   0   2  -3    2.36    0.26
   0   2  -3    2.45    0.26
   0  -2   3    2.47    0.25
   0  -2   3    2.47    0.28
   0  -2   3    2.51    0.25
   0  -2   3    2.37    0.25
  -1   2  -3   21.54    1.51
  -1   2  -3   22.11    1.49
  -1   2  -3   22.34    1.62
  -1   2  -3   21.33    1.49
   1  -2   3   21.80    1.62
   1  -2   3   21.06    1.49
   1  -2   3   20.39    1.50
   1  -2   3   21.82    1.49
  -2   2  -3    9.81    0.68
  -2   2  -3    9.71    0.67
  -2   2  -3    9.52    0.74
  -2   2  -3   10.05    0.69
  -2   2  -3    9.57    0.69
   2  -2   3    9.22    0.68
   2  -2   3    8.46    0.73
   2  -2   3    9.19    0.68
   2  -2   3    8.21    0.68
  -3   2  -3   28.08    1.85
  -3   2  -3   24.49    1.81
  -3   2  -3   27.00    1.89
  -3   2  -3   24.06    1.82
  -3   2  -3   27.55    1.85
  -3   2  -3   29.12    1.98
   3  -2   3   24.55    1.81
  -4   2  -3    1.43    0.20
  -4   2  -3    1.96    0.30
  -4   2  -3    1.43    0.23
  -4   2  -3    1.99    0.23
  -5   2  -3   30.13    2.11
  -5   2  -3   28.81    2.09
  -5   2  -3   27.64    2.00
  -5   2  -3   27.15    1.98
  -5   2  -3   29.75    2.06
  -5   2  -3   25.84    1.80
  -5   2  -3   28.39    1.74
  -6   2  -3    0.03    0.20
  -6   2  -3   -0.24    0.20
  -6   2  -3    0.18    0.09
  -6   2  -3    0.50    0.34
  -6   2  -3   -0.12    0.12
  -6   2  -3   -0.11    0.14
  -6   2  -3    0.00    0.15
  -7   2  -3    1.95    0.20
  -7   2  -3    1.72    0.44
  -7   2  -3    2.35    0.27
  -7   2  -3    2.32    0.26
  -7   2  -3    2.15    0.28
  -8   2  -3    0.07    0.15
  -8   2  -3    0.14    0.24
  -8   2  -3   -0.10    0.25
  -8   2  -3   -0.05    0.10
  -9   2  -3    1.16    0.27
  -9   2  -3    1.30    0.20
  -9   2  -3    0.87    0.17
 -10   2  -3    0.01    0.12
 -10   2  -3   -0.03    0.19
 -10  -1   3    1.37    0.15
 -10  -1   3    1.43    0.21
 -10  -1   3    1.55    0.19
  -9  -1   3    0.57    0.19
  -9  -1   3    0.11    0.16
  -9  -1   3   -0.05    0.20
  -9  -1   3   -0.16    0.18
  -9  -1   3    0.00    0.14
  -8  -1   3   -0.08    0.14
  -8  -1   3   -0.40    0.15
  -8  -1   3    0.24    0.19
  -8  -1   3   -0.25    0.18
  -8  -1   3   -0.28    0.17
  -8  -1   3   -0.17    0.13
  -7  -1   3   60.83    4.52
  -7  -1   3   68.67    4.38
  -7  -1   3   70.61    4.72
  -7  -1   3   57.17    4.38
  -7  -1   3   67.30    4.41
  -7  -1   3   64.87    4.15
  -7  -1   3   66.72    5.27
  -7  -1   3   63.43    4.49
  -6  -1   3    7.04    0.54
  -6  -1   3    6.89    0.55
  -6  -1   3    7.65    0.58
  -6  -1   3    6.51    0.54
  -6  -1   3    8.25    0.73
  -6  -1   3    6.71    0.52
  -6  -1   3    6.65    0.60
  -6  -1   3    7.80    0.52
  -5  -1   3    2.17    0.32
  -5  -1   3    1.88    0.24
  -4  -1   3   27.64    1.99
  -4  -1   3   29.93    2.34
  -4  -1   3   28.07    2.00
   3   1  -3    5.75    0.47
   3   1  -3    6.35    0.47
  -3  -1   3    6.72    0.52
  -3  -1   3    7.56    0.51
  -3  -1   3    6.43    0.61
  -3  -1   3    6.29    0.47
  -3  -1   3    7.07    0.48
  -3  -1   3    6.21    0.49
  -3  -1   3    6.31    0.48
  -3  -1   3    6.39    0.47
  -3  -1   3    6.81    0.51
   2   1  -3   85.91    5.79
   2   1  -3   89.67    5.80
  -2  -1   3   89.61    6.30
  -2  -1   3   87.56    6.90
  -2  -1   3   89.30    5.91
  -2  -1   3   87.86    5.79
  -2  -1   3   77.93    5.90
  -2  -1   3   90.12    5.88
  -2  -1   3   88.09    5.79
  -2  -1   3   78.89    5.88
  -2  -1   3   84.46    6.30
   1   1  -3   63.36    4.32
   1   1  -3   57.91    4.69
   1   1  -3   56.24    4.38
   1   1  -3   65.68    4.31
  -1  -1   3   69.68    4.31
  -1  -1   3   66.62    4.69
  -1  -1   3   60.77    5.12
  -1  -1   3   69.73    4.31
  -1  -1   3   62.44    4.69
  -1  -1   3   68.53    4.38
   0   1  -3    5.20    0.44
   0   1  -3    4.96    0.43
   0   1  -3    5.44    0.46
   0   1  -3    5.28    0.45
   0  -1   3    5.51    0.45
   0  -1   3    6.18    0.43
   0  -1   3    5.73    0.43
   0  -1   3    5.19    0.42
  -1   1  -3   30.70    2.13
  -1   1  -3   29.36    2.27
  -1   1  -3   28.61    2.15
  -1   1  -3   31.52    2.10
  -1   1  -3   30.45    2.09
   1  -1   3   29.64    2.27
   1  -1   3   33.58    2.10
   1  -1   3   34.93    2.10
   1  -1   3   27.96    2.12
  -2   1  -3    0.24    0.18
  -2   1  -3    0.25    0.11
  -2   1  -3    0.13    0.13
  -2   1  -3    0.36    0.16
  -2   1  -3    0.33    0.21
  -2   1  -3    0.29    0.17
   2  -1   3    0.11    0.12
   2  -1   3    0.42    0.14
   2  -1   3    0.14    0.13
   2  -1   3    0.11    0.13
  -3   1  -3    1.08    0.20
  -3   1  -3    1.09    0.14
  -3   1  -3    1.24    0.21
  -3   1  -3    1.79    0.22
  -3   1  -3    1.67    0.25
  -3   1  -3    1.23    0.15
   3  -1   3    1.21    0.16
   3  -1   3    1.19    0.16
  -4   1  -3    0.10    0.15
  -4   1  -3    0.25    0.17
  -4   1  -3    0.55    0.23
  -4   1  -3    0.53    0.16
  -5   1  -3    3.62    0.44
  -5   1  -3    3.62    0.37
  -6   1  -3   -0.04    0.10
  -6   1  -3    0.08    0.12
  -6   1  -3    0.01    0.10
  -6   1  -3    0.02    0.20
  -6   1  -3   -0.01    0.04
  -6   1  -3    0.18    0.19
  -6   1  -3   -0.02    0.09
  -6   1  -3   -0.08    0.09
  -6   1  -3   -0.18    0.32
  -7   1  -3    2.25    0.21
  -7   1  -3    2.30    0.26
  -7   1  -3    2.60    0.26
  -7   1  -3    2.48    0.32
  -7   1  -3    2.43    0.30
  -7   1  -3    2.33    0.55
  -8   1  -3    6.29    0.56
  -8   1  -3    5.25    0.43
  -8   1  -3    5.09    0.34
  -8   1  -3    5.99    0.53
  -8   1  -3    5.53    0.46
  -9   1  -3   -0.07    0.16
  -9   1  -3    0.03    0.25
 -10   1  -3    0.57    0.16
 -10   1  -3    0.65    0.21
 -10   0   3    2.57    0.28
 -10   0   3    2.38    0.26
  -9   0   3    6.74    0.48
  -9   0   3    6.33    0.49
  -9   0   3    6.03    0.49
  -9   0   3    4.77    0.46
  -8   0   3    1.49    0.23
  -8   0   3    1.62    0.19
  -8   0   3    1.74    0.23
  -8   0   3    1.39    0.20
  -8   0   3    1.14    0.22
  -7   0   3    0.50    0.17
  -7   0   3   -0.07    0.16
  -7   0   3    0.18    0.13
  -7   0   3    0.38    0.16
  -7   0   3   -0.05    0.19
  -7   0   3    0.07    0.11
  -7   0   3   -0.03    0.17
  -7   0   3    0.03    0.32
  -6   0   3    9.45    0.79
  -6   0   3    7.40    0.48
  -6   0   3    7.25    0.63
  -6   0   3    7.45    0.53
  -6   0   3    7.68    0.58
  -6   0   3    7.62    0.58
  -6   0   3    7.46    0.56
  -6   0   3    8.09    0.62
  -5   0   3   43.78    3.52
  -5   0   3   42.62    3.00
   4   0  -3    7.02    0.56
  -4   0   3    8.79    0.57
  -4   0   3    7.55    0.61
  -4   0   3    9.46    0.75
  -4   0   3    8.41    0.61
  -4   0   3    8.03    0.58
  -4   0   3    8.60    0.62
  -4   0   3    7.12    0.57
   3   0  -3    0.38    0.11
   3   0  -3    0.30    0.12
  -3   0   3    0.51    0.11
  -3   0   3    0.45    0.11
  -3   0   3    0.41    0.10
  -3   0   3    0.48    0.13
  -3   0   3    0.53    0.11
  -3   0   3    0.53    0.13
  -3   0   3    0.38    0.11
  -3   0   3    0.59    0.17
   2   0  -3   25.12    1.75
   2   0  -3   24.06    1.75
  -2   0   3   24.32    1.90
  -2   0   3   22.64    1.77
  -2   0   3   26.13    2.09
  -2   0   3   28.91    1.91
  -2   0   3   25.66    1.75
  -2   0   3   26.13    1.75
  -2   0   3   28.24    1.78
   1   0  -3   36.92    2.78
   1   0  -3   40.52    2.74
   1   0  -3   39.84    2.73
   1   0  -3   36.29    2.97
  -1   0   3   44.84    2.73
  -1   0   3   42.70    2.97
  -1   0   3   40.20    2.73
  -1   0   3   39.55    3.24
  -1   0   3   42.36    2.77
   0   0  -3  181.93   12.75
   0   0  -3  200.39   12.56
   0   0  -3  181.52   13.66
   0   0  -3  170.17   12.86
   0   0  -3  184.83   12.56
   0   0   3  185.28   12.75
   0   0   3  190.87   13.66
   0   0   3  176.90   14.91
   0   0   3  191.08   12.56
   0   0   3  212.27   12.56
  -1   0  -3   26.49    2.02
  -1   0  -3   31.62    2.03
  -1   0  -3   28.99    2.07
  -1   0  -3   31.58    2.06
  -1   0  -3   32.08    2.20
   1   0   3   30.40    2.19
   1   0   3   27.59    2.05
   1   0   3   25.23    2.37
   1   0   3   32.35    2.03
   1   0   3   31.04    2.03
  -2   0  -3    7.94    0.63
  -2   0  -3    8.18    0.61
  -2   0  -3    7.49    0.60
  -2   0  -3    8.16    0.65
   2   0   3    7.14    0.59
   2   0   3    8.28    0.59
  -3   0  -3    0.23    0.24
  -3   0  -3    0.08    0.18
  -3   0  -3   -0.07    0.13
  -3   0  -3    0.10    0.10
  -3   0  -3    0.16    0.10
  -3   0  -3    0.04    0.15
   3   0   3    0.08    0.10
  -4   0  -3    9.23    0.78
  -4   0  -3    7.80    0.65
  -4   0  -3    9.51    0.71
  -5   0  -3    4.00    0.40
  -5   0  -3    4.03    0.33
  -5   0  -3    4.10    0.35
  -5   0  -3    4.02    0.28
  -5   0  -3    3.33    0.28
  -5   0  -3    4.62    0.52
  -5   0  -3    4.00    0.37
  -6   0  -3   15.63    1.03
  -6   0  -3   17.36    1.17
  -6   0  -3   15.59    1.15
  -6   0  -3   16.24    1.20
  -6   0  -3   16.95    1.26
  -6   0  -3   18.00    1.36
  -7   0  -3   13.71    1.00
  -7   0  -3   14.80    1.07
  -7   0  -3   14.30    0.89
  -7   0  -3   13.73    1.09
  -7   0  -3   14.54    1.03
  -7   0  -3   14.19    1.19
  -8   0  -3    2.63    0.29
  -8   0  -3    2.41    0.30
  -8   0  -3    1.97    0.26
  -8   0  -3    2.56    0.34
  -9   0  -3    0.02    0.17
  -9   0  -3    0.02    0.14
  -9   0  -3    0.09    0.17
 -10   0  -3    5.29    0.43
 -10   0  -3    5.19    0.44
 -10   1   3    1.36    0.19
 -10   1   3    1.23    0.18
  -9   1   3    0.52    0.20
  -9   1   3    0.25    0.18
  -9   1   3    0.63    0.18
  -9   1   3    0.55    0.18
  -8   1   3    4.96    0.64
  -8   1   3    8.02    0.60
  -8   1   3    7.31    0.54
  -8   1   3    7.19    0.57
  -8   1   3    6.57    0.56
  -7   1   3    0.09    0.05
  -7   1   3    0.07    0.16
  -7   1   3    0.06    0.13
  -7   1   3    0.11    0.23
  -7   1   3    0.23    0.16
  -7   1   3    0.15    0.14
  -7   1   3    0.35    0.17
  -6   1   3   24.27    1.64
  -6   1   3   20.89    1.69
  -6   1   3   23.83    1.64
  -6   1   3   24.70    1.68
  -6   1   3   24.24    1.76
  -6   1   3   25.66    2.03
  -6   1   3   24.19    1.48
  -6   1   3   24.03    1.73
  -5   1   3    3.14    0.25
  -5   1   3    2.37    0.26
  -5   1   3    3.31    0.42
  -5   1   3    2.44    0.26
  -5   1   3    3.27    0.34
  -5   1   3    2.83    0.27
  -4   1   3    1.72    0.22
  -4   1   3    1.89    0.21
  -4   1   3    1.52    0.26
  -4   1   3    1.81    0.22
   3  -1  -3   60.22    4.21
   3  -1  -3   54.17    4.22
  -3   1   3   65.77    5.02
  -3   1   3   67.33    4.31
  -3   1   3   61.35    4.21
  -3   1   3   55.06    4.21
  -3   1   3   68.42    4.28
  -3   1   3   67.98    4.59
   2  -1  -3   86.30    5.95
   2  -1  -3   81.75    5.95
  -2   1   3   93.87    6.04
  -2   1   3   85.63    5.95
  -2   1   3   89.52    7.07
  -2   1   3   94.15    6.48
   1  -1  -3   37.86    2.48
   1  -1  -3   32.17    2.51
   1  -1  -3   34.69    2.48
   1  -1  -3   35.17    2.70
  -1   1   3   37.20    2.93
  -1   1   3   34.73    2.48
  -1   1   3   39.97    2.70
  -1   1   3   38.60    2.48
  -1   1   3   36.79    2.51
   0  -1  -3    7.24    0.60
   0  -1  -3    7.98    0.61
   0  -1  -3    7.83    0.61
   0  -1  -3    7.87    0.59
   0  -1  -3    8.60    0.66
   0   1   3    8.19    0.61
   0   1   3    8.41    0.65
   0   1   3    8.54    0.60
   0   1   3    7.71    0.67
   0   1   3    7.72    0.60
  -1  -1  -3    8.28    0.63
  -1  -1  -3    7.50    0.57
  -1  -1  -3    7.30    0.59
  -1  -1  -3    7.31    0.57
  -1  -1  -3    7.13    0.57
   1   1   3    7.53    0.60
   1   1   3    8.12    0.58
   1   1   3    6.70    0.56
   1   1   3    7.23    0.56
  -2  -1  -3    5.65    0.49
  -2  -1  -3    5.47    0.45
  -2  -1  -3    6.38    0.51
  -2  -1  -3    5.22    0.45
   2   1   3    5.61    0.46
   2   1   3    5.40    0.44
  -3  -1  -3    5.57    0.50
  -3  -1  -3    5.26    0.45
  -3  -1  -3    5.36    0.50
  -3  -1  -3    4.75    0.44
  -4  -1  -3   16.15    1.23
  -4  -1  -3   16.59    1.16
  -4  -1  -3   16.05    1.18
  -4  -1  -3   15.90    1.25
  -5  -1  -3    0.47    0.19
  -5  -1  -3    0.53    0.13
  -5  -1  -3    0.25    0.14
  -5  -1  -3    0.62    0.15
  -5  -1  -3    0.51    0.19
  -5  -1  -3    0.43    0.19
  -5  -1  -3    0.55    0.08
  -5  -1  -3    0.56    0.11
  -5  -1  -3    0.40    0.29
  -6  -1  -3   24.23    1.85
  -6  -1  -3   25.93    1.84
  -6  -1  -3   24.05    1.52
  -6  -1  -3   24.84    1.72
  -6  -1  -3   24.69    1.69
  -6  -1  -3   23.53    1.74
  -7  -1  -3    0.19    0.15
  -7  -1  -3    0.38    0.24
  -7  -1  -3   -0.20    0.39
  -7  -1  -3    0.14    0.23
  -7  -1  -3    0.10    0.09
  -8  -1  -3    4.42    0.39
  -8  -1  -3    4.64    0.43
  -8  -1  -3    5.62    0.52
  -9  -1  -3    4.05    0.40
  -9  -1  -3    3.83    0.45
  -9  -1  -3    4.66    0.38
 -10  -1  -3    0.16    0.19
 -10  -1  -3    0.09    0.13
 -10   2   3    0.09    0.10
 -10   2   3    0.02    0.11
  -9   2   3    6.40    0.52
  -9   2   3    6.16    0.53
  -9   2   3    7.51    0.52
  -8   2   3    5.84    0.51
  -8   2   3    5.64    0.48
  -8   2   3    5.84    0.46
  -8   2   3    4.77    0.48
  -7   2   3    1.86    0.21
  -7   2   3    2.05    0.23
  -7   2   3    2.04    0.24
  -7   2   3    1.88    0.17
  -7   2   3    2.36    0.35
  -7   2   3    1.95    0.24
  -6   2   3    3.84    0.36
  -6   2   3    4.43    0.36
  -6   2   3    3.93    0.30
  -6   2   3    4.08    0.34
  -6   2   3    3.95    0.27
  -6   2   3    4.00    0.44
  -6   2   3    3.11    0.25
  -6   2   3    4.25    0.37
  -5   2   3    7.52    0.60
  -5   2   3    7.77    0.55
  -5   2   3    6.98    0.50
  -5   2   3    7.15    0.56
  -5   2   3    7.48    0.49
  -5   2   3    7.22    0.62
  -5   2   3    8.20    0.58
  -5   2   3    8.55    0.76
  -5   2   3    8.58    0.64
  -4   2   3   31.75    2.39
  -4   2   3   32.19    2.64
  -4   2   3   32.77    2.27
  -4   2   3   32.13    2.23
  -3   2   3   55.13    4.39
  -3   2   3   55.08    4.02
  -3   2   3   54.58    3.75
  -3   2   3   53.47    3.77
   2  -2  -3    0.76    0.17
   2  -2  -3    0.94    0.17
  -2   2   3    0.86    0.17
  -2   2   3    0.38    0.14
  -2   2   3    0.91    0.17
  -2   2   3    0.66    0.15
  -2   2   3    0.82    0.20
   1  -2  -3   28.61    2.20
   1  -2  -3   30.91    2.17
   1  -2  -3   30.08    2.17
   1  -2  -3   31.58    2.36
  -1   2   3   33.10    2.55
  -1   2   3   30.57    2.17
  -1   2   3   33.89    2.20
  -1   2   3   30.37    2.16
  -1   2   3   35.94    2.36
   0  -2  -3   91.40    6.44
   0  -2  -3   84.82    6.04
   0  -2  -3   87.35    6.01
   0  -2  -3   85.09    5.92
   0  -2  -3   84.65    5.92
   0   2   3   95.03    6.44
   0   2   3   88.86    5.92
   0   2   3   87.08    5.91
   0   2   3   86.41    6.00
  -1  -2  -3  174.11   11.44
  -1  -2  -3  136.71   10.50
  -1  -2  -3  164.58   10.67
  -1  -2  -3  159.15   10.76
  -1  -2  -3  151.41   10.51
   1   2   3  155.55   10.50
   1   2   3  154.43   10.51
  -2  -2  -3   21.24    1.74
  -2  -2  -3   26.32    1.90
  -2  -2  -3   27.18    1.77
  -2  -2  -3   26.13    1.79
  -3  -2  -3   66.64    5.07
  -3  -2  -3   69.64    4.72
  -3  -2  -3   67.84    4.76
  -3  -2  -3   71.53    4.80
  -4  -2  -3    3.58    0.38
  -4  -2  -3    2.57    0.38
  -4  -2  -3    3.21    0.40
  -4  -2  -3    3.39    0.34
  -5  -2  -3    4.52    0.55
  -5  -2  -3    3.81    0.36
  -5  -2  -3    4.60    0.37
  -5  -2  -3    4.25    0.40
  -5  -2  -3    3.87    0.29
  -5  -2  -3    4.58    0.42
  -5  -2  -3    4.31    0.43
  -5  -2  -3    4.59    0.43
  -5  -2  -3    3.54    0.46
  -5  -2  -3    4.23    0.31
  -6  -2  -3    0.55    0.23
  -6  -2  -3    0.43    0.13
  -6  -2  -3    0.50    0.11
  -6  -2  -3    0.39    0.16
  -6  -2  -3    0.57    0.22
  -6  -2  -3    0.14    0.45
  -7  -2  -3    7.65    0.67
  -7  -2  -3    8.25    0.60
  -7  -2  -3    7.59    0.49
  -7  -2  -3    6.84    0.61
  -8  -2  -3    1.07    0.27
  -8  -2  -3    1.15    0.21
  -9  -2  -3    0.13    0.23
  -9  -2  -3    0.07    0.11
 -10  -2  -3    1.04    0.16
 -10  -2  -3    1.55    0.16
 -10   3   3    3.76    0.34
  -9   3   3    3.66    0.35
  -9   3   3    4.04    0.37
  -9   3   3    3.67    0.34
  -8   3   3    0.60    0.15
  -8   3   3    0.24    0.15
  -8   3   3    0.25    0.17
  -8   3   3    0.31    0.09
  -7   3   3   15.58    1.04
  -7   3   3   13.68    0.99
  -7   3   3   12.98    1.12
  -7   3   3   14.27    0.89
  -7   3   3   13.07    1.03
  -7   3   3   14.58    1.08
  -6   3   3    3.66    0.38
  -6   3   3    4.39    0.48
  -6   3   3    3.91    0.35
  -6   3   3    3.25    0.37
  -6   3   3    3.76    0.33
  -6   3   3    3.55    0.28
  -6   3   3    3.85    0.34
  -6   3   3    4.09    0.28
  -6   3   3    3.82    0.36
  -5   3   3    0.19    0.11
  -5   3   3    0.72    0.22
  -5   3   3    0.02    0.18
  -5   3   3    0.37    0.09
  -5   3   3    0.64    0.23
  -5   3   3    0.27    0.13
  -5   3   3    0.30    0.10
  -5   3   3    0.35    0.14
  -5   3   3    0.24    0.10
  -4   3   3    0.89    0.21
  -4   3   3    0.46    0.17
  -4   3   3    0.82    0.23
  -3   3   3    3.72    0.39
  -3   3   3    3.29    0.40
  -3   3   3    3.35    0.38
  -2   3   3    6.28    0.57
  -2   3   3    6.70    0.52
  -2   3   3    5.54    0.49
   1  -3  -3   10.75    0.82
   1  -3  -3   10.54    0.89
   1  -3  -3   10.60    0.81
  -1   3   3   12.72    0.89
  -1   3   3   11.65    0.82
  -1   3   3    9.27    0.80
  -1   3   3   10.59    0.80
   0  -3  -3    1.35    0.21
   0  -3  -3    1.78    0.29
   0  -3  -3    2.06    0.25
   0  -3  -3    1.63    0.23
   0   3   3    2.09    0.28
   0   3   3    1.66    0.24
   0   3   3    1.09    0.22
  -1  -3  -3    9.82    0.80
  -1  -3  -3   10.25    0.76
  -1  -3  -3   10.26    0.76
  -1  -3  -3    8.39    0.73
  -2  -3  -3  350.83   24.49
  -2  -3  -3  355.09   26.00
  -2  -3  -3  364.03   24.25
  -3  -3  -3   45.88    3.60
  -3  -3  -3   49.33    3.42
  -3  -3  -3   49.83    3.36
  -3  -3  -3   49.15    3.40
  -4  -3  -3    4.43    0.42
  -4  -3  -3    4.41    0.36
  -4  -3  -3    4.67    0.38
  -4  -3  -3    4.71    0.45
  -4  -3  -3    4.67    0.35
  -4  -3  -3    4.88    0.52
  -4  -3  -3    5.95    0.55
  -4  -3  -3    5.25    0.46
  -4  -3  -3    5.37    0.47
  -4  -3  -3    4.78    0.56
  -5  -3  -3   18.68    1.53
  -5  -3  -3   21.08    1.26
  -5  -3  -3   20.45    1.31
  -5  -3  -3   19.35    1.51
  -5  -3  -3   19.08    1.28
  -5  -3  -3   20.75    1.50
  -5  -3  -3   19.33    1.43
  -5  -3  -3   20.42    1.41
  -5  -3  -3   19.94    1.39
  -6  -3  -3    3.06    0.53
  -6  -3  -3    4.19    0.45
  -6  -3  -3    3.76    0.42
  -6  -3  -3    3.45    0.34
  -6  -3  -3    3.56    0.28
  -6  -3  -3    3.48    0.43
  -7  -3  -3    7.32    0.65
  -7  -3  -3    7.18    0.47
  -7  -3  -3    7.77    0.65
  -7  -3  -3    7.05    0.56
  -7  -3  -3    7.40    0.59
  -8  -3  -3    0.07    0.17
  -8  -3  -3    0.18    0.13
  -9  -3  -3    3.57    0.40
  -9  -3  -3    3.71    0.35
 -10   4   3    1.10    0.15
  -9   4   3   -0.11    0.15
  -9   4   3    0.08    0.09
  -9   4   3    0.16    0.11
  -8   4   3    0.13    0.16
  -8   4   3    0.06    0.09
  -8   4   3   -0.01    0.18
  -8   4   3    0.05    0.10
  -7   4   3    5.49    0.39
  -7   4   3    4.97    0.43
  -7   4   3    6.05    0.49
  -7   4   3    5.60    0.47
  -6   4   3    0.84    0.20
  -6   4   3    0.72    0.12
  -6   4   3    0.85    0.14
  -6   4   3    0.81    0.16
  -6   4   3    0.80    0.24
  -6   4   3    0.65    0.28
  -6   4   3    0.57    0.13
  -5   4   3    2.72    0.26
  -5   4   3    2.87    0.21
  -5   4   3    3.39    0.31
  -5   4   3    2.89    0.29
  -5   4   3    3.59    0.39
  -5   4   3    3.23    0.37
  -5   4   3    3.05    0.27
  -5   4   3    3.06    0.39
  -4   4   3    0.51    0.13
  -4   4   3    0.55    0.12
  -4   4   3    0.43    0.08
  -4   4   3    0.25    0.27
  -4   4   3    0.43    0.12
  -4   4   3    0.66    0.25
  -4   4   3    0.70    0.23
  -3   4   3   19.91    1.34
  -3   4   3   21.75    1.52
  -3   4   3   22.39    1.54
  -3   4   3   20.54    1.63
  -2   4   3   29.28    2.03
  -2   4   3   27.32    2.16
  -2   4   3   29.02    2.02
  -1   4   3   10.06    0.84
  -1   4   3    9.69    0.76
   0  -4  -3    5.75    0.55
   0  -4  -3    6.19    0.60
  -1  -4  -3   48.95    3.65
  -1  -4  -3   49.06    3.40
  -2  -4  -3   26.24    1.81
  -2  -4  -3   30.20    2.06
  -2  -4  -3   30.10    2.04
  -2  -4  -3   28.83    2.18
  -3  -4  -3   11.05    0.74
  -3  -4  -3   12.51    0.88
  -3  -4  -3   10.75    0.94
  -3  -4  -3   11.49    0.91
  -3  -4  -3    9.80    0.78
  -3  -4  -3   12.00    0.91
  -3  -4  -3   10.70    0.73
  -3  -4  -3   11.05    0.71
  -4  -4  -3    6.19    0.42
  -4  -4  -3    4.41    0.56
  -4  -4  -3    5.41    0.51
  -4  -4  -3    5.07    0.62
  -4  -4  -3    5.94    0.41
  -4  -4  -3    5.97    0.64
  -4  -4  -3    6.20    0.44
  -4  -4  -3    5.35    0.45
  -4  -4  -3    5.74    0.53
  -5  -4  -3    1.95    0.43
  -5  -4  -3    2.03    0.23
  -5  -4  -3    1.94    0.24
  -5  -4  -3    2.35    0.24
  -5  -4  -3    2.10    0.26
  -5  -4  -3    2.34    0.20
  -5  -4  -3    2.37    0.24
  -5  -4  -3    1.31    0.32
  -5  -4  -3    1.76    0.41
  -6  -4  -3    2.12    0.25
  -6  -4  -3    1.91    0.29
  -6  -4  -3    1.85    0.24
  -6  -4  -3    2.11    0.21
  -7  -4  -3    8.83    0.53
  -7  -4  -3    8.81    0.71
  -7  -4  -3    7.01    0.61
  -7  -4  -3    8.19    0.61
  -8  -4  -3    0.09    0.17
  -8  -4  -3   -0.16    0.21
  -8  -4  -3   -0.35    0.15
  -9  -4  -3    0.44    0.13
  -9  -4  -3    0.66    0.12
  -9   5   3    0.27    0.11
  -9   5   3    0.37    0.10
  -8   5   3    3.04    0.29
  -8   5   3    3.36    0.25
  -8   5   3    2.98    0.28
  -7   5   3    1.16    0.16
  -7   5   3    0.94    0.09
  -7   5   3    0.86    0.21
  -7   5   3    0.61    0.17
  -6   5   3    5.21    0.38
  -6   5   3    4.39    0.43
  -6   5   3    4.80    0.37
  -6   5   3    4.91    0.45
  -5   5   3   10.88    0.76
  -5   5   3    9.88    0.67
  -5   5   3    9.79    0.86
  -5   5   3    9.92    0.85
  -5   5   3    9.96    0.68
  -5   5   3   10.19    0.66
  -4   5   3   10.32    0.84
  -4   5   3   11.02    0.86
  -4   5   3   10.22    0.75
  -4   5   3   10.05    0.68
  -4   5   3    9.43    0.90
  -4   5   3   10.03    0.70
  -4   5   3   10.63    0.67
  -3   5   3    0.18    0.25
  -3   5   3   -0.31    0.25
  -3   5   3    0.01    0.25
  -3   5   3    0.01    0.14
  -3   5   3   -0.08    0.08
  -2   5   3   65.49    4.89
  -2   5   3   66.09    4.15
   0  -5  -3    3.67    0.30
  -1  -5  -3    1.08    0.29
  -1  -5  -3    1.35    0.27
  -1  -5  -3    1.16    0.13
  -1  -5  -3    1.20    0.16
  -1  -5  -3    1.29    0.36
  -2  -5  -3   22.88    1.56
  -2  -5  -3   24.47    1.54
  -2  -5  -3   25.84    1.79
  -2  -5  -3   23.91    1.52
  -2  -5  -3   22.59    1.88
  -2  -5  -3   26.31    1.78
  -3  -5  -3    2.41    0.43
  -3  -5  -3    3.54    0.49
  -3  -5  -3    2.80    0.41
  -3  -5  -3    2.82    0.27
  -3  -5  -3    3.12    0.26
  -3  -5  -3    2.85    0.23
  -3  -5  -3    2.63    0.30
  -4  -5  -3    3.03    0.27
  -4  -5  -3    2.47    0.35
  -4  -5  -3    2.90    0.26
  -4  -5  -3    2.65    0.51
  -4  -5  -3    1.95    0.27
  -4  -5  -3    2.58    0.26
  -5  -5  -3   -0.02    0.08
  -5  -5  -3    0.13    0.18
  -5  -5  -3    0.29    0.15
  -5  -5  -3   -0.14    0.19
  -5  -5  -3    0.04    0.21
  -6  -5  -3    2.26    0.25
  -6  -5  -3    1.55    0.22
  -6  -5  -3    2.02    0.20
  -6  -5  -3    1.24    0.21
  -7  -5  -3    0.10    0.21
  -7  -5  -3    0.10    0.07
  -7  -5  -3    0.31    0.19
  -7  -5  -3    0.01    0.16
  -8  -5  -3    4.80    0.36
  -8  -5  -3    4.38    0.36
  -9   6   3   -0.04    0.10
  -8   6   3    1.68    0.20
  -8   6   3    1.99    0.24
  -8   6   3    2.11    0.19
  -7   6   3    0.29    0.12
  -7   6   3    0.41    0.12
  -7   6   3    0.32    0.19
  -7   6   3    0.45    0.08
  -6   6   3   13.42    1.00
  -6   6   3   13.07    0.87
  -6   6   3   13.96    0.89
  -5   6   3    1.66    0.16
  -5   6   3    1.65    0.20
  -5   6   3    1.58    0.20
  -5   6   3    1.32    0.20
  -4   6   3    7.64    0.56
  -4   6   3    7.83    0.60
  -4   6   3    6.99    0.71
  -4   6   3    8.21    0.53
  -3   6   3    2.42    0.29
  -3   6   3    2.97    0.39
  -3   6   3    3.17    0.25
   2  -6  -3    0.07    0.24
  -2   6   3    0.31    0.10
  -2   6   3    0.22    0.22
   1  -6  -3    6.54    0.62
  -1   6   3    5.68    0.56
   0  -6  -3   24.91    1.66
   0  -6  -3   27.65    1.91
  -1  -6  -3    0.42    0.13
  -1  -6  -3    0.08    0.18
  -1  -6  -3    0.59    0.34
  -1  -6  -3    0.61    0.34
  -1  -6  -3    0.36    0.37
  -2  -6  -3    0.32    0.38
  -2  -6  -3    0.30    0.11
  -2  -6  -3    0.17    0.18
  -2  -6  -3    0.00    0.32
  -2  -6  -3    0.18    0.15
  -2  -6  -3    0.23    0.29
  -3  -6  -3    0.31    0.17
  -3  -6  -3    0.34    0.18
  -3  -6  -3    0.27    0.17
  -3  -6  -3    0.32    0.09
  -3  -6  -3    0.35    0.33
  -4  -6  -3    2.32    0.21
  -4  -6  -3    1.82    0.20
  -4  -6  -3    2.11    0.25
  -5  -6  -3   -0.05    0.14
  -5  -6  -3    0.08    0.08
  -5  -6  -3   -0.11    0.19
  -5  -6  -3   -0.11    0.15
  -6  -6  -3    3.27    0.35
  -6  -6  -3    3.01    0.25
  -6  -6  -3    2.92    0.31
  -7  -6  -3    1.53    0.21
  -7  -6  -3    1.41    0.18
  -8   7   3    0.08    0.09
  -7   7   3    0.57    0.17
  -7   7   3    0.49    0.13
  -7   7   3    0.68    0.13
  -6   7   3    2.23    0.23
  -6   7   3    2.49    0.26
  -6   7   3    2.66    0.23
  -6   7   3    2.86    0.25
  -5   7   3    2.09    0.21
  -5   7   3    1.16    0.18
  -5   7   3    1.51    0.19
  -5   7   3    1.40    0.19
  -5   7   3    1.85    0.15
  -4   7   3    2.05    0.22
  -4   7   3    1.38    0.19
  -4   7   3    1.82    0.21
  -3   7   3    0.19    0.12
  -3   7   3    0.00    0.11
  -3   7   3    0.10    0.18
  -2   7   3    3.97    0.49
  -2   7   3    4.40    0.36
   1  -7  -3    3.06    0.27
   1  -7  -3    1.68    0.35
   0  -7  -3    3.17    0.45
   0  -7  -3    3.83    0.31
  -1  -7  -3    5.65    0.39
  -1  -7  -3    4.88    0.41
  -1  -7  -3    3.59    0.53
  -2  -7  -3   14.14    0.97
  -2  -7  -3   14.29    0.96
  -2  -7  -3   14.94    0.93
  -2  -7  -3   13.63    0.94
  -3  -7  -3    0.91    0.19
  -3  -7  -3    0.43    0.16
  -3  -7  -3    0.70    0.18
  -4  -7  -3   -0.03    0.14
  -4  -7  -3   -0.01    0.14
  -4  -7  -3   -0.06    0.12
  -5  -7  -3    0.18    0.19
  -5  -7  -3    0.31    0.12
  -6  -7  -3    0.36    0.13
  -6  -7  -3    0.26    0.10
  -7  -7  -3    0.55    0.11
  -7   8   3    9.65    0.61
  -6   8   3    1.68    0.17
  -6   8   3    1.66    0.16
  -6   8   3    1.55    0.17
  -5   8   3    0.22    0.12
  -5   8   3    0.17    0.14
  -4   8   3    0.01    0.16
  -4   8   3    0.02    0.11
  -3   8   3    0.77    0.13
  -2   8   3   -0.20    0.13
   1  -8  -3    1.87    0.20
   0  -8  -3    2.79    0.29
   0  -8  -3    3.43    0.28
  -1  -8  -3    0.06    0.10
  -1  -8  -3   -0.05    0.14
  -1  -8  -3   -0.01    0.17
  -2  -8  -3   -0.16    0.19
  -2  -8  -3    0.20    0.18
  -2  -8  -3    0.04    0.08
  -2  -8  -3    0.31    0.16
  -2  -8  -3    0.36    0.17
  -3  -8  -3    0.63    0.16
  -3  -8  -3    0.48    0.16
  -3  -8  -3    0.85    0.18
  -4  -8  -3    0.28    0.17
  -4  -8  -3    0.38    0.13
  -4  -8  -3    0.25    0.09
  -5  -8  -3    0.99    0.15
  -5  -8  -3    1.17    0.14
  -6  -8  -3    0.02    0.13
  -5   9   3    3.27    0.24
  -5   9   3    2.37    0.23
  -4   9   3    0.92    0.09
  -4   9   3    0.98    0.14
  -4   9   3    0.89    0.16
  -3   9   3    0.10    0.12
   2  -9  -3    3.75    0.31
  -2   9   3    3.70    0.30
   1  -9  -3    5.13    0.38
  -1   9   3    5.31    0.39
   0  -9  -3    1.52    0.21
   0  -9  -3    2.09    0.20
  -1  -9  -3    0.08    0.15
  -1  -9  -3    0.00    0.07
  -2  -9  -3    0.65    0.14
  -2  -9  -3    0.71    0.14
  -3  -9  -3    3.86    0.28
  -3  -9  -3    3.70    0.31
  -3  -9  -3    3.62    0.29
  -4  -9  -3    0.91    0.12
  -4  -9  -3    0.95    0.11
   3 -10  -3    0.55    0.08
  -3  10   3    0.78    0.07
  -3  10   3    0.57    0.10
   2 -10  -3    0.02    0.06
  -2  10   3   -0.10    0.09
   1 -10  -3    0.17    0.08
  -1  10   3    0.19    0.07
   0 -10  -3    2.52    0.22
   0 -10  -3    2.74    0.23
  -1 -10  -3    1.20    0.14
  -1 -12   4    0.18    0.13
   0 -12   4    0.40    0.13
  -4 -11   4    4.07    0.35
  -3 -11   4    0.15    0.12
  -2 -11   4    0.15    0.12
  -1 -11   4    0.61    0.13
   0 -11   4    6.55    0.52
   0 -11   4    7.82    0.51
   1 -11   4    0.71    0.16
   2 -11   4    0.22    0.12
  -6 -10   4    3.75    0.33
  -5 -10   4    0.51    0.13
  -4 -10   4    3.19    0.37
  -4 -10   4    3.59    0.29
  -3 -10   4    1.42    0.19
  -3 -10   4    1.38    0.17
  -2 -10   4    0.18    0.14
  -2 -10   4    0.23    0.14
  -2 -10   4    0.14    0.13
  -1 -10   4    1.06    0.20
  -1 -10   4    0.78    0.16
   0 -10   4    0.02    0.12
   0 -10   4   -0.06    0.15
   0 -10   4   -0.10    0.10
   1 -10   4    0.31    0.11
  -2  10  -4    1.92    0.20
   2 -10   4    2.11    0.19
  -3  10  -4    2.16    0.24
  -3  10  -4    2.09    0.23
  -4  10  -4    0.50    0.12
  -4  10  -4    0.13    0.16
  -5  10  -4    0.48    0.11
  -6  10  -4    5.10    0.38
  -7  -9   4    2.48    0.21
  -7  -9   4    2.26    0.23
  -6  -9   4    0.99    0.17
  -6  -9   4    0.82    0.14
  -5  -9   4    0.36    0.13
  -5  -9   4    0.33    0.22
  -5  -9   4    0.51    0.11
  -4  -9   4   20.61    1.41
  -4  -9   4   19.62    1.26
  -3  -9   4    3.28    0.32
  -3  -9   4    3.53    0.30
  -3  -9   4    3.57    0.39
  -2  -9   4    0.53    0.13
  -2  -9   4    0.60    0.15
  -2  -9   4    0.76    0.15
  -1  -9   4   -0.03    0.10
  -1  -9   4    0.10    0.12
  -1  -9   4    0.13    0.14
   0  -9   4    3.29    0.32
   0  -9   4    3.24    0.29
   1  -9   4    1.84    0.17
  -2   9  -4    2.32    0.19
   2  -9   4    1.53    0.17
  -3   9  -4    4.02    0.37
  -4   9  -4    0.93    0.18
  -4   9  -4    1.14    0.13
  -4   9  -4    1.38    0.21
  -5   9  -4    6.46    0.54
  -5   9  -4    6.77    0.49
  -6   9  -4    0.10    0.11
  -6   9  -4    0.19    0.12
  -6   9  -4   -0.07    0.09
  -7   9  -4    1.51    0.15
  -7   9  -4    1.18    0.14
  -8  -8   4   -0.04    0.12
  -8  -8   4   -0.04    0.11
  -7  -8   4    5.54    0.42
  -7  -8   4    5.78    0.48
  -6  -8   4    0.24    0.15
  -6  -8   4    0.25    0.11
  -5  -8   4    1.76    0.17
  -5  -8   4    1.90    0.26
  -5  -8   4    1.76    0.19
  -4  -8   4    1.15    0.15
  -4  -8   4    1.02    0.12
  -4  -8   4    0.87    0.13
  -4  -8   4    1.27    0.23
  -3  -8   4    7.98    0.54
  -3  -8   4    8.40    0.61
  -3  -8   4    6.60    0.63
  -3  -8   4    8.34    0.53
  -3  -8   4    6.96    0.69
  -2  -8   4    0.48    0.17
  -2  -8   4    0.40    0.08
  -2  -8   4    0.23    0.13
  -2  -8   4    0.20    0.21
  -2  -8   4    0.58    0.26
  -2  -8   4    0.33    0.14
  -1  -8   4   20.34    1.53
  -1  -8   4   20.47    1.34
  -1  -8   4   20.62    1.30
  -1  -8   4   20.12    1.63
   0  -8   4    2.70    0.25
   1  -8   4    0.32    0.10
  -2   8  -4   17.62    1.14
  -3   8  -4    1.83    0.19
  -4   8  -4    1.18    0.20
  -4   8  -4    1.04    0.17
  -4   8  -4    1.17    0.14
  -5   8  -4   13.77    0.88
  -5   8  -4   12.90    1.00
  -5   8  -4   13.99    0.93
  -6   8  -4    0.22    0.13
  -6   8  -4    0.49    0.19
  -6   8  -4    0.33    0.13
  -6   8  -4    0.37    0.13
  -7   8  -4    3.31    0.26
  -7   8  -4    3.49    0.32
  -7   8  -4    2.38    0.28
  -7   8  -4    3.21    0.26
  -8   8  -4    0.08    0.09
  -8   8  -4    0.04    0.09
  -9  -7   4    1.44    0.14
  -8  -7   4    4.10    0.36
  -8  -7   4    4.55    0.35
  -7  -7   4    0.26    0.16
  -7  -7   4    0.33    0.16
  -7  -7   4    0.56    0.16
  -6  -7   4    0.37    0.16
  -6  -7   4    0.37    0.21
  -6  -7   4    0.34    0.09
  -6  -7   4    0.32    0.16
  -5  -7   4    1.68    0.20
  -5  -7   4    1.50    0.43
  -5  -7   4    1.65    0.19
  -5  -7   4    1.59    0.15
  -5  -7   4    1.64    0.24
  -4  -7   4    2.72    0.43
  -4  -7   4    2.38    0.26
  -4  -7   4    2.29    0.30
  -4  -7   4    2.69    0.23
  -4  -7   4    2.83    0.32
  -4  -7   4    3.22    0.34
  -4  -7   4    2.50    0.28
  -4  -7   4    2.39    0.24
  -3  -7   4    4.91    0.47
  -3  -7   4    4.75    0.38
  -3  -7   4    4.83    0.39
  -3  -7   4    5.76    0.44
  -3  -7   4    5.37    0.38
  -3  -7   4    5.32    0.51
  -3  -7   4    5.34    0.57
  -3  -7   4    5.38    0.56
  -2  -7   4   28.75    2.06
  -2  -7   4   29.14    2.05
  -2  -7   4   28.05    2.42
  -2  -7   4   30.73    2.21
  -2  -7   4   26.89    1.78
  -2  -7   4   29.81    1.96
  -2  -7   4   28.74    1.84
  -2  -7   4   27.98    1.81
  -1  -7   4    0.04    0.08
  -1  -7   4   -0.11    0.09
  -1  -7   4   -0.18    0.22
  -1  -7   4   -0.13    0.33
  -1  -7   4    0.05    0.10
  -1  -7   4    0.10    0.18
   0  -7   4   19.37    1.37
   0  -7   4   18.39    1.49
   0  -7   4   17.55    1.17
   1  -7   4   20.75    1.33
  -2   7  -4    3.79    0.29
  -3   7  -4    3.08    0.29
  -4   7  -4   42.72    2.60
  -4   7  -4   39.85    2.88
  -4   7  -4   40.33    2.63
  -5   7  -4    9.40    0.67
  -5   7  -4   10.22    0.65
  -5   7  -4    9.17    0.75
  -5   7  -4   10.17    0.69
  -6   7  -4   -0.01    0.13
  -6   7  -4    0.14    0.22
  -6   7  -4    0.11    0.15
  -6   7  -4    0.04    0.14
  -7   7  -4   -0.17    0.20
  -7   7  -4    0.01    0.11
  -7   7  -4    0.06    0.19
  -7   7  -4   -0.02    0.11
  -8   7  -4    0.60    0.14
  -8   7  -4    0.59    0.17
  -8   7  -4    0.74    0.13
  -9  -6   4    1.33    0.14
  -9  -6   4    1.28    0.20
  -8  -6   4    2.16    0.22
  -8  -6   4    2.36    0.26
  -8  -6   4    2.14    0.26
  -7  -6   4    0.86    0.23
  -7  -6   4    0.51    0.17
  -7  -6   4    0.77    0.18
  -6  -6   4    0.66    0.33
  -6  -6   4    1.01    0.16
  -6  -6   4    0.74    0.16
  -6  -6   4    0.89    0.16
  -6  -6   4    0.81    0.18
  -6  -6   4    0.81    0.10
  -5  -6   4    0.34    0.10
  -5  -6   4    0.40    0.17
  -5  -6   4    0.35    0.13
  -5  -6   4    0.49    0.17
  -5  -6   4    0.29    0.26
  -5  -6   4    0.17    0.18
  -4  -6   4    0.64    0.13
  -4  -6   4    0.38    0.29
  -4  -6   4    0.44    0.10
  -4  -6   4    0.19    0.29
  -4  -6   4    0.51    0.12
  -4  -6   4    0.58    0.09
  -4  -6   4    0.55    0.17
  -4  -6   4    0.44    0.17
  -4  -6   4    0.68    0.22
  -4  -6   4    0.39    0.17
  -3  -6   4    7.46    0.64
  -3  -6   4    7.24    0.55
  -3  -6   4    8.25    0.59
  -3  -6   4    8.55    0.71
  -3  -6   4    8.66    0.64
  -3  -6   4    7.77    0.86
  -3  -6   4    7.32    0.50
  -3  -6   4    7.66    0.53
  -3  -6   4    8.40    0.52
  -3  -6   4    8.11    0.67
  -3  -6   4    7.94    0.59
  -2  -6   4   31.00    2.18
  -2  -6   4   33.59    2.27
  -2  -6   4   29.95    2.03
  -2  -6   4   30.76    2.06
  -2  -6   4   33.99    2.28
  -2  -6   4   34.70    2.44
  -2  -6   4   32.62    2.68
  -1  -6   4    4.77    0.52
  -1  -6   4    5.30    0.56
  -1  -6   4    5.00    0.44
   0  -6   4   13.44    1.01
   0  -6   4   13.48    1.11
   0  -6   4   13.10    0.97
  -3   6  -4   28.76    2.08
  -3   6  -4   28.65    1.85
  -3   6  -4   30.09    2.24
  -4   6  -4    7.00    0.53
  -4   6  -4    7.31    0.57
  -4   6  -4    8.00    0.50
  -4   6  -4    6.90    0.67
  -4   6  -4    6.86    0.71
  -4   6  -4    6.83    0.50
  -5   6  -4   29.06    1.76
  -5   6  -4   28.05    1.78
  -5   6  -4   23.96    2.17
  -5   6  -4   28.47    2.03
  -5   6  -4   30.01    1.82
  -5   6  -4   28.89    2.00
  -5   6  -4   27.44    2.16
  -6   6  -4   -0.08    0.18
  -6   6  -4   -0.06    0.22
  -6   6  -4   -0.04    0.13
  -6   6  -4    0.02    0.11
  -6   6  -4    0.49    0.47
  -7   6  -4    0.49    0.12
  -7   6  -4    0.58    0.23
  -7   6  -4    0.56    0.15
  -7   6  -4    0.49    0.12
  -8   6  -4    0.03    0.10
  -8   6  -4    0.12    0.14
  -8   6  -4    0.32    0.20
  -9   6  -4    0.08    0.10
  -9   6  -4   -0.03    0.11
 -10  -5   4    0.96    0.14
  -9  -5   4    1.53    0.15
  -9  -5   4    1.19    0.17
  -8  -5   4    0.33    0.21
  -8  -5   4    0.13    0.10
  -8  -5   4   -0.01    0.16
  -8  -5   4   -0.18    0.15
  -7  -5   4    1.11    0.17
  -7  -5   4    0.69    0.19
  -7  -5   4    0.89    0.22
  -7  -5   4    0.92    0.18
  -6  -5   4   25.67    1.64
  -6  -5   4   24.12    1.55
  -6  -5   4   27.46    1.74
  -6  -5   4   26.95    1.74
  -6  -5   4   23.97    1.86
  -6  -5   4   22.49    1.86
  -5  -5   4    0.27    0.08
  -5  -5   4    0.34    0.17
  -5  -5   4    0.26    0.33
  -5  -5   4    0.01    0.21
  -5  -5   4    0.28    0.16
  -5  -5   4    0.37    0.12
  -5  -5   4    0.29    0.12
  -4  -5   4    0.24    0.13
  -4  -5   4    0.33    0.07
  -4  -5   4    0.43    0.20
  -4  -5   4    0.27    0.13
  -4  -5   4    0.31    0.11
  -4  -5   4    0.32    0.09
  -4  -5   4    0.40    0.15
  -4  -5   4    0.51    0.28
  -4  -5   4    0.53    0.11
  -4  -5   4    0.17    0.18
  -3  -5   4   41.25    3.63
  -3  -5   4   45.81    3.07
  -3  -5   4   45.41    3.10
  -3  -5   4   44.89    3.29
  -2  -5   4    3.06    0.32
  -2  -5   4    2.52    0.38
  -2  -5   4    3.13    0.36
  -2  -5   4    2.67    0.32
  -1  -5   4   19.89    1.44
  -1  -5   4   17.92    1.34
  -1  -5   4   18.08    1.33
   0  -5   4   33.97    2.41
   0  -5   4   31.54    2.22
   0  -5   4   33.26    2.24
   0  -5   4   28.81    2.20
  -1   5  -4   14.30    1.20
   1  -5   4   16.55    1.22
   1  -5   4   15.24    1.13
  -2   5  -4   69.27    4.81
  -2   5  -4   70.31    5.16
  -3   5  -4    0.76    0.17
  -3   5  -4    0.38    0.24
  -3   5  -4    0.79    0.22
  -4   5  -4   13.19    1.06
  -4   5  -4   12.49    0.83
  -4   5  -4   12.67    0.93
  -4   5  -4   13.21    0.85
  -4   5  -4   12.21    0.96
  -4   5  -4   13.29    0.99
  -4   5  -4   12.45    0.82
  -4   5  -4   13.47    1.12
  -5   5  -4    7.82    0.81
  -5   5  -4    7.44    0.50
  -5   5  -4    7.33    0.50
  -5   5  -4    7.18    0.67
  -5   5  -4    7.75    0.68
  -5   5  -4    7.64    0.53
  -5   5  -4    7.81    0.59
  -5   5  -4    7.06    0.70
  -6   5  -4   12.25    0.76
  -6   5  -4   11.87    0.87
  -6   5  -4   10.89    0.94
  -6   5  -4   11.01    0.91
  -6   5  -4   11.72    0.79
  -6   5  -4   11.34    1.07
  -7   5  -4    0.94    0.12
  -7   5  -4    1.02    0.23
  -7   5  -4    1.19    0.21
  -7   5  -4    1.00    0.15
  -8   5  -4    2.25    0.29
  -8   5  -4    2.11    0.24
  -8   5  -4    2.04    0.20
  -8   5  -4    2.41    0.28
  -9   5  -4    0.33    0.13
  -9   5  -4    0.33    0.19
 -10  -4   4   -0.05    0.14
  -9  -4   4    3.98    0.36
  -9  -4   4    4.17    0.33
  -9  -4   4    3.26    0.33
  -8  -4   4    0.03    0.12
  -8  -4   4    0.01    0.14
  -8  -4   4    0.03    0.11
  -8  -4   4   -0.06    0.21
  -7  -4   4   14.55    0.96
  -7  -4   4   12.88    0.95
  -7  -4   4   14.21    1.04
  -7  -4   4   13.56    0.91
  -7  -4   4   12.34    1.04
  -6  -4   4    5.53    0.41
  -6  -4   4    4.15    0.61
  -6  -4   4    5.33    0.54
  -6  -4   4    5.60    0.47
  -6  -4   4    5.73    0.46
  -6  -4   4    5.30    0.47
  -6  -4   4    5.74    0.42
  -6  -4   4    4.73    0.33
  -5  -4   4    1.07    0.14
  -5  -4   4    1.18    0.16
  -5  -4   4    0.76    0.09
  -5  -4   4    0.78    0.28
  -5  -4   4    0.90    0.17
  -5  -4   4    0.92    0.17
  -5  -4   4    1.07    0.18
  -5  -4   4    1.00    0.27
  -4  -4   4    5.80    0.47
  -4  -4   4    6.42    0.65
  -4  -4   4    6.67    0.53
  -4  -4   4    5.76    0.50
  -3  -4   4    0.98    0.18
  -3  -4   4    0.69    0.19
  -3  -4   4    0.77    0.25
  -3  -4   4    0.56    0.14
  -2  -4   4    2.95    0.32
  -2  -4   4    3.21    0.35
  -2  -4   4    2.96    0.32
  -2  -4   4    3.18    0.43
   1   4  -4   61.74    4.33
  -1  -4   4   67.40    4.71
  -1  -4   4   63.37    4.39
  -1  -4   4   59.46    4.32
  -1  -4   4   67.91    4.41
   0   4  -4    1.00    0.18
   0   4  -4    1.16    0.19
   0  -4   4    1.24    0.16
   0  -4   4    1.34    0.21
   0  -4   4    1.29    0.19
   0  -4   4    1.18    0.18
   0  -4   4    1.02    0.16
  -1   4  -4    0.63    0.14
  -1   4  -4    0.95    0.19
  -1   4  -4    0.91    0.18
  -1   4  -4    1.08    0.19
   1  -4   4    1.07    0.20
   1  -4   4    0.90    0.16
   1  -4   4    1.19    0.18
   1  -4   4    1.24    0.19
  -2   4  -4    8.48    0.60
  -2   4  -4    8.98    0.68
  -2   4  -4    7.38    0.62
  -2   4  -4    8.75    0.65
   2  -4   4    6.50    0.60
  -3   4  -4   21.48    1.52
  -3   4  -4   21.64    1.51
  -3   4  -4   20.58    1.64
  -4   4  -4    7.43    0.74
  -4   4  -4    6.76    0.56
  -4   4  -4    6.69    0.64
  -4   4  -4    5.93    0.43
  -4   4  -4    7.15    0.58
  -4   4  -4    6.11    0.46
  -5   4  -4   -0.03    0.24
  -5   4  -4    0.29    0.20
  -5   4  -4    0.07    0.11
  -5   4  -4   -0.35    0.34
  -5   4  -4    0.00    0.22
  -5   4  -4    0.01    0.11
  -5   4  -4    0.29    0.15
  -5   4  -4    0.20    0.07
  -5   4  -4   -0.05    0.23
  -6   4  -4   11.06    0.86
  -6   4  -4   10.91    0.67
  -6   4  -4    9.72    0.84
  -6   4  -4   10.22    0.78
  -6   4  -4    9.80    0.86
  -6   4  -4    9.84    0.70
  -6   4  -4   10.23    0.76
  -6   4  -4   10.58    1.04
  -6   4  -4    9.95    0.85
  -7   4  -4    0.16    0.21
  -7   4  -4    0.04    0.12
  -7   4  -4    0.08    0.18
  -7   4  -4    0.35    0.14
  -8   4  -4    3.32    0.34
  -8   4  -4    3.63    0.28
  -8   4  -4    3.75    0.46
  -8   4  -4    3.93    0.34
  -9   4  -4    3.40    0.35
  -9   4  -4    3.66    0.36
 -10   4  -4    1.40    0.18
 -10   4  -4    1.18    0.15
 -10  -3   4    1.31    0.16
 -10  -3   4    1.75    0.22
  -9  -3   4    1.16    0.21
  -9  -3   4    1.07    0.15
  -9  -3   4    1.04    0.14
  -9  -3   4    1.24    0.22
  -8  -3   4    0.23    0.19
  -8  -3   4    0.57    0.14
  -8  -3   4    0.33    0.21
  -8  -3   4    0.41    0.14
  -8  -3   4    0.61    0.17
  -8  -3   4    0.66    0.17
  -7  -3   4   12.67    0.99
  -7  -3   4   13.95    0.99
  -7  -3   4   15.30    1.02
  -7  -3   4   14.57    0.95
  -7  -3   4   14.57    1.08
  -6  -3   4    0.24    0.16
  -6  -3   4    0.41    0.28
  -6  -3   4    0.38    0.13
  -6  -3   4    0.19    0.15
  -6  -3   4    0.19    0.22
  -6  -3   4    0.41    0.12
  -6  -3   4    0.12    0.10
  -6  -3   4    0.62    0.17
  -5  -3   4   35.01    2.23
  -5  -3   4   36.11    2.45
  -5  -3   4   33.65    2.35
  -5  -3   4   34.92    2.36
  -5  -3   4   38.26    2.87
  -5  -3   4   31.58    2.13
  -5  -3   4   34.06    2.53
  -4  -3   4   13.93    1.01
  -4  -3   4   14.18    1.02
  -4  -3   4   14.17    0.95
  -4  -3   4   12.11    1.01
  -4  -3   4   14.50    1.20
  -4  -3   4   13.06    0.94
  -3  -3   4   22.87    1.57
  -3  -3   4   22.51    1.88
  -3  -3   4   22.34    1.60
  -3  -3   4   22.30    1.68
   2   3  -4    4.75    0.39
   2   3  -4    4.73    0.40
  -2  -3   4    5.47    0.41
  -2  -3   4    4.61    0.52
  -2  -3   4    5.44    0.44
  -2  -3   4    5.07    0.42
  -2  -3   4    4.90    0.39
  -2  -3   4    4.31    0.38
   1   3  -4    8.01    0.62
   1   3  -4    8.35    0.61
  -1  -3   4    7.78    0.60
  -1  -3   4    8.58    0.68
  -1  -3   4    8.51    0.64
  -1  -3   4    8.57    0.61
  -1  -3   4    7.85    0.62
   0   3  -4   16.91    1.20
   0   3  -4   16.39    1.21
   0   3  -4   16.32    1.30
   0   3  -4   17.36    1.20
   0  -3   4   16.94    1.21
   0  -3   4   18.61    1.31
   0  -3   4   16.71    1.19
   0  -3   4   17.03    1.20
  -1   3  -4  317.71   21.45
  -1   3  -4  329.13   23.36
  -1   3  -4  306.77   21.45
   1  -3   4  338.19   23.36
   1  -3   4  325.02   21.79
   1  -3   4  303.43   21.45
   1  -3   4  322.85   21.46
  -2   3  -4   10.52    0.80
  -2   3  -4   11.60    0.82
  -2   3  -4   12.28    0.88
  -2   3  -4    9.63    0.79
   2  -3   4   10.46    0.80
  -3   3  -4    7.69    0.64
  -3   3  -4    8.78    0.71
  -3   3  -4    8.79    0.67
  -3   3  -4    7.78    0.72
  -4   3  -4   -0.01    0.22
  -4   3  -4    0.43    0.24
  -4   3  -4    0.23    0.18
  -4   3  -4    0.41    0.27
  -5   3  -4   10.87    0.73
  -5   3  -4   11.29    0.79
  -5   3  -4   10.71    0.88
  -5   3  -4   10.06    0.69
  -5   3  -4   10.40    0.70
  -5   3  -4   11.97    0.86
  -5   3  -4   11.16    0.81
  -5   3  -4   10.92    0.86
  -5   3  -4   11.68    0.98
  -5   3  -4   11.46    0.91
  -6   3  -4    5.84    0.56
  -6   3  -4    5.71    0.43
  -6   3  -4    6.05    0.41
  -6   3  -4    5.74    0.67
  -6   3  -4    5.69    0.53
  -6   3  -4    5.72    0.50
  -6   3  -4    5.76    0.46
  -6   3  -4    5.96    0.58
  -7   3  -4    8.37    0.69
  -7   3  -4    7.80    0.96
  -7   3  -4    8.80    0.63
  -7   3  -4    7.69    0.64
  -7   3  -4    8.54    0.56
  -8   3  -4    5.38    0.54
  -8   3  -4    5.48    0.47
  -8   3  -4    4.17    0.38
  -8   3  -4    4.95    0.35
  -9   3  -4    2.85    0.33
  -9   3  -4    3.03    0.35
 -10   3  -4   -0.07    0.11
 -10   3  -4    0.01    0.11
 -10  -2   4    1.43    0.17
 -10  -2   4    1.21    0.19
  -9  -2   4   -0.08    0.14
  -9  -2   4    0.10    0.20
  -9  -2   4   -0.14    0.14
  -9  -2   4   -0.06    0.13
  -8  -2   4    0.01    0.20
  -8  -2   4    0.26    0.14
  -8  -2   4    0.26    0.12
  -8  -2   4    0.33    0.15
  -8  -2   4    0.39    0.15
  -8  -2   4    0.32    0.19
  -7  -2   4    3.45    0.34
  -7  -2   4    4.46    0.34
  -7  -2   4    3.62    0.36
  -7  -2   4    4.45    0.40
  -7  -2   4    4.14    0.33
  -7  -2   4    2.96    0.52
  -7  -2   4    4.00    0.34
  -6  -2   4    0.10    0.10
  -6  -2   4    0.19    0.15
  -6  -2   4    0.00    0.12
  -6  -2   4    0.05    0.27
  -6  -2   4    0.21    0.16
  -6  -2   4   -0.06    0.13
  -5  -2   4    8.66    0.80
  -5  -2   4    8.24    0.60
  -5  -2   4    7.62    0.64
  -4  -2   4    2.86    0.40
  -4  -2   4    2.65    0.24
  -4  -2   4    2.63    0.23
  -4  -2   4    2.13    0.29
  -4  -2   4    2.58    0.25
  -4  -2   4    2.99    0.24
   3   2  -4   71.79    5.15
  -3  -2   4   84.65    5.27
  -3  -2   4   68.22    5.23
  -3  -2   4   85.36    5.22
  -3  -2   4   71.25    5.14
  -3  -2   4   83.58    5.60
  -3  -2   4   75.21    5.59
  -3  -2   4   68.24    5.22
  -3  -2   4   71.47    5.14
  -3  -2   4   86.17    6.15
   2   2  -4    0.76    0.14
   2   2  -4    1.02    0.18
  -2  -2   4    1.12    0.17
  -2  -2   4    1.21    0.18
  -2  -2   4    1.01    0.11
  -2  -2   4    1.15    0.22
  -2  -2   4    0.81    0.15
  -2  -2   4    1.06    0.16
  -2  -2   4    1.03    0.14
  -2  -2   4    0.81    0.14
  -2  -2   4    1.04    0.16
   1   2  -4   19.84    1.45
   1   2  -4   19.83    1.45
   1   2  -4   19.24    1.57
  -1  -2   4   23.80    1.58
  -1  -2   4   21.24    1.47
  -1  -2   4   20.94    1.44
  -1  -2   4   20.56    1.72
  -1  -2   4   22.08    1.45
   0   2  -4    1.07    0.20
   0   2  -4    0.87    0.18
   0   2  -4    1.03    0.19
   0   2  -4    1.17    0.21
   0  -2   4    1.13    0.17
   0  -2   4    1.19    0.18
   0  -2   4    1.22    0.21
   0  -2   4    1.11    0.16
  -1   2  -4    6.41    0.51
  -1   2  -4    6.47    0.53
  -1   2  -4    5.81    0.50
  -1   2  -4    6.59    0.55
   1  -2   4    6.85    0.51
   1  -2   4    6.26    0.50
   1  -2   4    6.07    0.51
   1  -2   4    6.83    0.55
  -2   2  -4   17.80    1.25
  -2   2  -4   18.56    1.22
  -2   2  -4   17.00    1.29
  -2   2  -4   15.99    1.19
  -2   2  -4   15.06    1.17
   2  -2   4   16.81    1.18
   2  -2   4   16.48    1.18
  -3   2  -4    5.00    0.51
  -3   2  -4    4.51    0.45
  -3   2  -4    4.48    0.46
  -4   2  -4   24.29    1.82
  -4   2  -4   25.72    1.86
  -4   2  -4   23.33    1.75
  -5   2  -4    1.63    0.37
  -5   2  -4    1.65    0.28
  -5   2  -4    1.41    0.15
  -5   2  -4    1.58    0.25
  -5   2  -4    1.15    0.17
  -5   2  -4    1.31    0.16
  -5   2  -4    1.60    0.17
  -5   2  -4    1.31    0.25
  -5   2  -4    1.77    0.20
  -6   2  -4    1.17    0.43
  -6   2  -4    1.43    0.22
  -6   2  -4    1.14    0.15
  -6   2  -4    1.41    0.23
  -6   2  -4    1.25    0.17
  -6   2  -4    1.14    0.15
  -6   2  -4    1.47    0.26
  -7   2  -4   15.49    1.17
  -7   2  -4   17.86    1.30
  -7   2  -4   16.59    1.22
  -7   2  -4   14.72    1.37
  -7   2  -4   16.52    1.05
  -7   2  -4   18.29    1.21
  -8   2  -4    4.77    0.34
  -8   2  -4    4.65    0.47
  -8   2  -4    5.05    0.53
  -8   2  -4    4.80    0.42
  -9   2  -4    0.64    0.16
  -9   2  -4    0.79    0.20
 -10   2  -4    0.86    0.15
 -10   2  -4    0.68    0.14
 -10  -1   4    0.03    0.12
 -10  -1   4    0.20    0.13
 -10  -1   4    0.12    0.14
  -9  -1   4    3.55    0.33
  -9  -1   4    4.86    0.41
  -9  -1   4    3.44    0.35
  -9  -1   4    4.56    0.40
  -8  -1   4    2.96    0.31
  -8  -1   4    1.84    0.49
  -8  -1   4    3.16    0.36
  -8  -1   4    2.66    0.28
  -8  -1   4    3.08    0.35
  -8  -1   4    2.67    0.30
  -7  -1   4    8.86    0.70
  -7  -1   4    9.15    0.95
  -7  -1   4   10.04    0.76
  -7  -1   4    8.62    0.69
  -7  -1   4   10.09    0.71
  -6  -1   4   54.39    4.34
  -6  -1   4   54.37    3.40
  -6  -1   4   53.90    3.61
  -6  -1   4   54.17    3.59
  -6  -1   4   50.11    3.68
  -6  -1   4   50.54    3.26
  -6  -1   4   55.20    3.87
  -5  -1   4    1.35    0.29
  -5  -1   4    1.47    0.22
  -4  -1   4    4.56    0.41
  -4  -1   4    5.15    0.36
  -4  -1   4    4.99    0.51
  -4  -1   4    3.79    0.36
  -4  -1   4    5.22    0.39
  -4  -1   4    4.08    0.37
  -3  -1   4   13.16    1.01
  -3  -1   4   15.96    1.02
  -3  -1   4   13.70    1.02
  -3  -1   4   16.14    1.09
  -3  -1   4   13.98    1.00
  -3  -1   4   13.81    1.08
  -3  -1   4   13.56    1.00
  -3  -1   4   15.11    1.23
   2   1  -4    3.97    0.39
   2   1  -4    3.78    0.36
  -2  -1   4    4.46    0.45
  -2  -1   4    3.89    0.36
  -2  -1   4    3.77    0.34
  -2  -1   4    4.71    0.36
  -2  -1   4    4.67    0.40
  -2  -1   4    3.57    0.35
  -2  -1   4    4.87    0.38
   1   1  -4    0.38    0.16
   1   1  -4    0.49    0.18
   1   1  -4    0.10    0.16
   1   1  -4    0.26    0.15
  -1  -1   4    0.42    0.14
  -1  -1   4    0.43    0.15
  -1  -1   4    0.29    0.16
  -1  -1   4    0.43    0.13
  -1  -1   4    0.37    0.14
   0   1  -4   33.35    2.54
   0   1  -4   33.59    2.38
   0   1  -4   33.37    2.35
   0   1  -4   32.42    2.34
   0  -1   4   35.72    2.34
   0  -1   4   36.31    2.54
   0  -1   4   33.61    2.76
   0  -1   4   33.97    2.33
   0  -1   4   35.86    2.37
  -1   1  -4    1.31    0.24
  -1   1  -4    1.31    0.19
  -1   1  -4    1.14    0.22
  -1   1  -4    1.32    0.23
  -1   1  -4    1.46    0.21
   1  -1   4    1.47    0.20
   1  -1   4    1.37    0.19
   1  -1   4    1.32    0.18
   1  -1   4    1.36    0.21
  -2   1  -4   10.15    0.84
  -2   1  -4   12.91    0.90
  -2   1  -4   13.04    0.89
  -2   1  -4   10.42    0.86
  -2   1  -4   12.79    0.94
   2  -1   4   11.36    0.85
   2  -1   4   11.70    0.85
  -3   1  -4    3.53    0.41
  -3   1  -4    3.74    0.40
  -3   1  -4    3.60    0.41
  -4   1  -4    5.06    0.49
  -4   1  -4    4.45    0.54
  -4   1  -4    4.76    0.49
  -5   1  -4    5.33    0.48
  -5   1  -4    5.76    0.40
  -5   1  -4    6.06    0.47
  -5   1  -4    6.16    0.53
  -5   1  -4    7.22    0.72
  -5   1  -4    4.79    0.44
  -5   1  -4    6.04    0.53
  -6   1  -4   24.23    2.01
  -6   1  -4   26.98    2.03
  -6   1  -4   26.64    1.68
  -6   1  -4   26.55    1.85
  -6   1  -4   27.08    1.88
  -6   1  -4   28.04    1.92
  -6   1  -4   29.02    2.02
  -6   1  -4   25.99    1.72
  -6   1  -4   28.43    1.89
  -7   1  -4    0.40    0.15
  -7   1  -4    0.08    0.21
  -7   1  -4    0.23    0.41
  -7   1  -4    0.30    0.25
  -7   1  -4    0.11    0.12
  -7   1  -4    0.35    0.14
  -8   1  -4    2.55    0.29
  -8   1  -4    2.34    0.29
  -8   1  -4    1.76    0.30
  -8   1  -4    2.71    0.20
  -9   1  -4    3.41    0.39
  -9   1  -4    3.43    0.37
 -10   1  -4    0.50    0.14
 -10   1  -4    0.33    0.12
 -10   0   4    7.71    0.57
 -10   0   4    8.10    0.56
 -10   0   4    6.80    0.58
  -9   0   4    0.68    0.18
  -9   0   4    0.79    0.18
  -9   0   4    0.51    0.20
  -8   0   4    5.77    0.51
  -8   0   4    5.25    0.48
  -8   0   4    6.13    0.47
  -8   0   4    5.28    0.49
  -7   0   4   26.07    1.98
  -7   0   4   27.79    1.90
  -7   0   4   26.92    1.85
  -7   0   4   27.67    1.85
  -7   0   4   25.79    2.29
  -6   0   4   33.03    2.34
  -6   0   4   29.33    2.27
  -6   0   4   30.22    2.23
  -6   0   4   33.39    2.18
  -6   0   4   32.94    2.19
  -6   0   4   33.62    2.67
  -6   0   4   31.01    2.06
  -6   0   4   32.01    1.97
  -5   0   4    5.21    0.40
  -5   0   4    4.42    0.39
  -5   0   4    5.24    0.38
  -5   0   4    5.42    0.40
  -5   0   4    5.58    0.43
  -5   0   4    4.69    0.38
  -5   0   4    5.43    0.46
  -5   0   4    5.29    0.41
  -5   0   4    5.70    0.59
  -4   0   4    0.19    0.16
  -4   0   4    0.24    0.14
  -4   0   4    0.25    0.19
  -4   0   4    0.31    0.12
  -3   0   4   28.78    2.24
  -3   0   4   28.81    1.90
  -3   0   4   25.48    1.87
  -3   0   4   27.56    1.91
  -3   0   4   23.38    1.87
  -3   0   4   30.09    2.03
   2   0  -4   -0.04    0.15
   2   0  -4    0.20    0.15
  -2   0   4    0.42    0.16
  -2   0   4   -0.09    0.06
  -2   0   4    0.12    0.15
  -2   0   4    0.11    0.14
  -2   0   4    0.30    0.15
   1   0  -4    7.77    0.65
   1   0  -4    9.35    0.69
   1   0  -4    7.70    0.73
  -1   0   4   10.10    0.74
  -1   0   4   10.31    0.70
  -1   0   4    9.70    0.67
  -1   0   4    9.73    0.79
  -1   0   4    9.80    0.68
   0   0  -4  150.17   10.28
   0   0  -4  144.01   10.51
   0   0  -4  151.26   10.44
   0   0  -4  150.18   11.18
   0   0  -4  144.09   10.27
   0   0   4  161.93   11.18
   0   0   4  165.48   10.27
   0   0   4  149.56   12.19
   0   0   4  154.05   10.43
   0   0   4  160.42   10.27
  -1   0  -4   42.75    2.97
  -1   0  -4   45.33    3.03
  -1   0  -4   49.30    3.22
  -1   0  -4   45.13    3.01
  -1   0  -4   37.89    2.95
   1   0   4   40.19    2.99
   1   0   4   45.25    3.21
   1   0   4   46.32    2.96
   1   0   4   44.02    2.96
   1   0   4   38.87    3.47
  -2   0  -4   14.59    1.02
  -2   0  -4   11.27    0.98
  -2   0  -4   15.59    1.05
  -2   0  -4   15.27    1.08
  -2   0  -4   12.76    1.00
   2   0   4   13.36    0.99
  -3   0  -4    5.47    0.53
  -3   0  -4    5.27    0.52
  -4   0  -4    1.63    0.30
  -4   0  -4    2.15    0.33
  -5   0  -4    2.67    0.32
  -5   0  -4    2.18    0.23
  -5   0  -4    1.78    0.39
  -5   0  -4    2.11    0.29
  -5   0  -4    2.56    0.27
  -5   0  -4    2.70    0.26
  -5   0  -4    2.13    0.31
  -5   0  -4    2.61    0.24
  -5   0  -4    2.92    0.29
  -6   0  -4    0.39    0.16
  -6   0  -4    0.65    0.14
  -6   0  -4    0.67    0.07
  -6   0  -4    0.10    0.38
  -6   0  -4    0.51    0.20
  -6   0  -4    0.71    0.16
  -6   0  -4    0.65    0.13
  -6   0  -4    0.52    0.23
  -7   0  -4   13.53    1.02
  -7   0  -4   10.82    1.16
  -7   0  -4   13.96    1.07
  -7   0  -4   14.42    0.97
  -7   0  -4   13.29    0.86
  -8   0  -4    8.50    0.67
  -8   0  -4    7.48    0.50
  -8   0  -4    9.21    0.62
  -8   0  -4    7.37    0.63
  -9   0  -4    0.30    0.15
  -9   0  -4   -0.14    0.15
  -9   0  -4   -0.15    0.16
 -10   0  -4    0.01    0.18
 -10   0  -4    0.25    0.12
 -10   1   4    4.00    0.35
 -10   1   4    5.36    0.39
  -9   1   4    0.79    0.14
  -9   1   4    0.71    0.15
  -9   1   4    0.67    0.15
  -8   1   4   12.06    0.92
  -8   1   4   11.81    0.88
  -8   1   4   11.59    0.86
  -7   1   4   -0.10    0.14
  -7   1   4   -0.13    0.15
  -7   1   4   -0.01    0.35
  -7   1   4    0.13    0.07
  -7   1   4    0.48    0.19
  -7   1   4    0.24    0.17
  -7   1   4   -0.48    0.22
  -6   1   4    0.65    0.15
  -6   1   4    0.93    0.18
  -6   1   4    1.05    0.17
  -6   1   4    1.06    0.27
  -6   1   4    0.81    0.10
  -6   1   4    1.19    0.18
  -6   1   4    0.73    0.28
  -5   1   4    9.64    0.73
  -5   1   4   10.15    0.72
  -5   1   4   10.21    0.78
  -5   1   4    8.71    0.64
  -5   1   4    9.33    0.76
  -5   1   4   10.62    0.73
  -5   1   4   11.08    0.91
  -5   1   4   10.09    0.72
  -5   1   4    9.89    0.63
  -5   1   4   10.37    0.79
  -4   1   4   18.19    1.31
  -4   1   4   18.71    1.28
  -4   1   4   17.73    1.37
  -4   1   4   17.78    1.53
  -3   1   4    7.94    0.66
  -3   1   4    8.78    0.65
  -3   1   4    8.29    0.68
  -3   1   4    8.25    0.75
   2  -1  -4    0.46    0.17
  -2   1   4    0.63    0.18
  -2   1   4    0.68    0.16
  -2   1   4    0.43    0.14
  -2   1   4    0.61    0.16
  -2   1   4    0.84    0.19
   1  -1  -4   43.94    3.48
   1  -1  -4   45.96    3.43
   1  -1  -4   48.91    3.43
   1  -1  -4   48.85    3.73
  -1   1   4   47.76    3.42
  -1   1   4   54.92    3.48
  -1   1   4   55.94    4.05
  -1   1   4   51.56    3.42
  -1   1   4   56.54    3.73
   0  -1  -4   26.44    1.82
   0  -1  -4   25.82    1.81
   0  -1  -4   24.49    1.80
   0  -1  -4   24.05    1.79
   0  -1  -4   26.17    1.95
   0   1   4   26.25    2.09
   0   1   4   27.31    1.82
   0   1   4   25.17    1.79
   0   1   4   26.33    1.79
   0   1   4   27.21    1.95
  -1  -1  -4   82.84    5.35
  -1  -1  -4   71.41    5.23
  -1  -1  -4   83.48    5.31
  -1  -1  -4   70.91    5.22
  -1  -1  -4   83.06    5.69
   1   1   4   75.76    5.68
   1   1   4   73.16    5.30
   1   1   4   78.27    5.22
   1   1   4   77.51    5.23
  -2  -1  -4   96.44    7.01
  -2  -1  -4   97.40    6.54
  -2  -1  -4   92.89    6.60
  -3  -1  -4    2.92    0.37
  -3  -1  -4    3.25    0.40
  -3  -1  -4    3.64    0.41
  -4  -1  -4   15.93    1.19
  -4  -1  -4   15.06    1.08
  -4  -1  -4   14.31    1.03
  -4  -1  -4   15.09    1.18
  -4  -1  -4   14.81    0.93
  -4  -1  -4   14.26    1.09
  -4  -1  -4   13.86    0.95
  -5  -1  -4    1.16    0.20
  -5  -1  -4    1.03    0.17
  -5  -1  -4    1.21    0.13
  -5  -1  -4    1.37    0.23
  -5  -1  -4    1.21    0.27
  -5  -1  -4    1.53    0.24
  -5  -1  -4    1.74    0.44
  -5  -1  -4    1.20    0.16
  -6  -1  -4    2.85    0.50
  -6  -1  -4    4.13    0.42
  -6  -1  -4    2.40    0.28
  -6  -1  -4    3.88    0.35
  -6  -1  -4    3.21    0.32
  -7  -1  -4    6.69    0.63
  -7  -1  -4    6.96    0.45
  -7  -1  -4    6.06    0.59
  -7  -1  -4    6.86    0.55
  -8  -1  -4    0.89    0.27
  -8  -1  -4    0.84    0.25
  -8  -1  -4    0.86    0.16
  -9  -1  -4    2.29    0.23
  -9  -1  -4    1.55    0.27
  -9  -1  -4    2.80    0.28
 -10  -1  -4    0.90    0.14
 -10   2   4    0.69    0.11
 -10   2   4    0.92    0.13
  -9   2   4   -0.09    0.15
  -9   2   4    0.00    0.17
  -8   2   4    0.10    0.19
  -8   2   4    0.05    0.12
  -8   2   4   -0.28    0.15
  -8   2   4    0.13    0.06
  -7   2   4   11.92    1.12
  -7   2   4   15.30    1.04
  -7   2   4   14.22    0.90
  -7   2   4   14.90    1.09
  -7   2   4   14.18    1.01
  -6   2   4    0.36    0.16
  -6   2   4    0.17    0.13
  -6   2   4    0.34    0.15
  -6   2   4    0.16    0.07
  -6   2   4    0.29    0.14
  -6   2   4   -0.05    0.13
  -6   2   4    0.43    0.24
  -6   2   4    0.22    0.10
  -5   2   4   11.48    0.92
  -5   2   4   11.03    0.88
  -5   2   4   12.09    0.93
  -5   2   4   12.10    0.86
  -5   2   4   11.28    0.83
  -5   2   4   11.79    0.85
  -5   2   4   13.01    1.08
  -5   2   4   11.46    0.74
  -5   2   4   11.58    0.76
  -4   2   4   11.52    0.84
  -4   2   4    9.73    0.84
  -4   2   4   10.75    0.79
  -4   2   4   10.27    0.95
  -3   2   4   31.66    2.34
  -3   2   4   30.94    2.18
  -3   2   4   31.68    2.21
  -3   2   4   30.57    2.55
  -2   2   4   20.79    1.55
  -2   2   4   19.73    1.67
  -2   2   4   20.42    1.45
   1  -2  -4   13.22    1.11
  -1   2   4   17.03    1.12
  -1   2   4   15.96    1.27
  -1   2   4   14.04    1.10
  -1   2   4   14.58    1.10
  -1   2   4   17.14    1.20
   0  -2  -4   69.72    4.73
   0  -2  -4   65.22    4.41
   0  -2  -4   59.71    4.34
   0  -2  -4   65.99    4.42
   0  -2  -4   56.15    4.34
   0   2   4   69.87    4.72
   0   2   4   58.92    4.34
   0   2   4   66.63    4.40
  -1  -2  -4   89.82    5.79
  -1  -2  -4   89.81    6.16
  -1  -2  -4   70.64    5.66
  -1  -2  -4   84.65    5.75
  -2  -2  -4  100.99    6.61
  -2  -2  -4   94.17    7.01
  -2  -2  -4   91.26    6.54
  -3  -2  -4    0.23    0.20
  -3  -2  -4    0.55    0.28
  -3  -2  -4    0.02    0.23
  -3  -2  -4    0.00    0.19
  -4  -2  -4    5.64    0.40
  -4  -2  -4    5.52    0.54
  -4  -2  -4    5.08    0.40
  -4  -2  -4    5.15    0.47
  -4  -2  -4    6.17    0.51
  -4  -2  -4    5.16    0.43
  -4  -2  -4    5.12    0.51
  -4  -2  -4    5.68    0.60
  -4  -2  -4    4.87    0.34
  -4  -2  -4    5.44    0.47
  -5  -2  -4    7.41    0.51
  -5  -2  -4    7.51    0.63
  -5  -2  -4    8.15    0.52
  -5  -2  -4    7.93    0.61
  -5  -2  -4    7.02    0.54
  -5  -2  -4    6.42    0.68
  -5  -2  -4    8.33    0.78
  -5  -2  -4    7.77    0.62
  -5  -2  -4    7.95    0.65
  -6  -2  -4    0.23    0.14
  -6  -2  -4    0.00    0.13
  -6  -2  -4    0.19    0.17
  -6  -2  -4    0.40    0.41
  -6  -2  -4   -0.52    0.21
  -6  -2  -4    0.01    0.21
  -7  -2  -4    6.92    0.62
  -7  -2  -4    6.03    0.60
  -7  -2  -4    7.36    0.57
  -7  -2  -4    6.80    0.45
  -8  -2  -4   -0.01    0.23
  -8  -2  -4   -0.03    0.18
  -9  -2  -4   -0.19    0.16
  -9  -2  -4    0.09    0.14
 -10   3   4    0.48    0.09
 -10   3   4    0.76    0.15
  -9   3   4    1.27    0.16
  -9   3   4    0.85    0.17
  -8   3   4    2.46    0.20
  -8   3   4    2.75    0.32
  -8   3   4    2.44    0.28
  -7   3   4    2.21    0.27
  -7   3   4    2.66    0.32
  -7   3   4    2.03    0.25
  -7   3   4    2.50    0.21
  -6   3   4    7.68    0.47
  -6   3   4    6.26    0.59
  -6   3   4    6.68    0.52
  -6   3   4    6.64    0.57
  -6   3   4    7.23    0.48
  -6   3   4    7.41    0.72
  -6   3   4    7.08    0.56
  -6   3   4    6.69    0.55
  -5   3   4    9.65    0.60
  -5   3   4    8.87    0.66
  -5   3   4    9.37    0.61
  -5   3   4    9.54    0.73
  -5   3   4    7.61    0.75
  -5   3   4    8.34    0.70
  -5   3   4    9.59    0.70
  -5   3   4   10.35    0.82
  -4   3   4   14.78    0.99
  -4   3   4   16.00    1.26
  -4   3   4   17.91    1.17
  -4   3   4   16.24    1.01
  -4   3   4   13.95    1.09
  -4   3   4   17.81    1.22
  -4   3   4   15.78    1.03
  -3   3   4   35.72    2.70
  -3   3   4   35.39    2.52
  -3   3   4   36.96    2.54
  -2   3   4   12.45    0.98
  -2   3   4   11.28    0.90
  -1   3   4    0.12    0.23
  -1   3   4    0.38    0.20
   0  -3  -4    0.28    0.21
   0  -3  -4    0.58    0.22
  -1  -3  -4    0.95    0.19
  -1  -3  -4    0.74    0.25
  -1  -3  -4    0.79    0.30
  -2  -3  -4  161.15   10.66
  -2  -3  -4  153.58   11.42
  -2  -3  -4  153.27   10.76
  -3  -3  -4    6.14    0.67
  -3  -3  -4    6.73    0.57
  -3  -3  -4    5.73    0.40
  -3  -3  -4    6.04    0.58
  -3  -3  -4    5.41    0.46
  -3  -3  -4    5.67    0.44
  -3  -3  -4    6.35    0.61
  -3  -3  -4    6.70    0.45
  -4  -3  -4    6.06    0.66
  -4  -3  -4    6.28    0.46
  -4  -3  -4    4.38    0.61
  -4  -3  -4    6.12    0.61
  -4  -3  -4    6.48    0.52
  -4  -3  -4    6.89    0.47
  -4  -3  -4    6.43    0.45
  -4  -3  -4    6.00    0.54
  -4  -3  -4    6.64    0.58
  -5  -3  -4   -0.15    0.15
  -5  -3  -4    0.23    0.23
  -5  -3  -4   -0.23    0.15
  -5  -3  -4    0.23    0.31
  -5  -3  -4   -0.27    0.19
  -5  -3  -4   -0.08    0.32
  -5  -3  -4   -0.10    0.10
  -5  -3  -4   -0.02    0.15
  -5  -3  -4   -0.15    0.35
  -6  -3  -4    0.38    0.18
  -6  -3  -4    0.19    0.22
  -6  -3  -4    0.27    0.20
  -6  -3  -4    0.17    0.14
  -7  -3  -4    0.94    0.21
  -7  -3  -4    1.46    0.22
  -7  -3  -4    1.29    0.20
  -7  -3  -4    1.48    0.15
  -8  -3  -4    1.40    0.17
  -8  -3  -4    1.15    0.25
  -9  -3  -4    2.29    0.26
  -9  -3  -4    3.24    0.28
  -9   4   4    2.44    0.25
  -9   4   4    3.59    0.31
  -8   4   4    0.09    0.10
  -8   4   4    0.10    0.16
  -8   4   4   -0.13    0.12
  -7   4   4    0.20    0.16
  -7   4   4    0.21    0.12
  -7   4   4    0.18    0.12
  -7   4   4    0.18    0.16
  -6   4   4   25.95    1.91
  -6   4   4   28.64    1.79
  -6   4   4   29.63    1.74
  -6   4   4   30.56    1.96
  -6   4   4   25.79    1.97
  -6   4   4   26.13    2.05
  -5   4   4    5.54    0.63
  -5   4   4    7.51    0.48
  -5   4   4    7.20    0.65
  -5   4   4    6.67    0.46
  -5   4   4    7.28    0.53
  -5   4   4    6.29    0.43
  -5   4   4    5.84    0.53
  -5   4   4    6.66    0.62
  -4   4   4   10.06    0.77
  -4   4   4    9.45    0.75
  -4   4   4    8.29    0.78
  -4   4   4    8.18    0.57
  -4   4   4    8.63    0.61
  -4   4   4    8.80    0.57
  -3   4   4   10.03    0.86
  -3   4   4   10.09    0.83
  -3   4   4   10.44    0.81
  -3   4   4    9.11    0.67
  -3   4   4    9.86    0.65
  -2   4   4    4.43    0.50
  -2   4   4    3.37    0.28
  -2   4   4    4.21    0.45
  -1  -4  -4    0.21    0.26
  -1  -4  -4    0.49    0.11
  -1  -4  -4    0.48    0.34
  -2  -4  -4   24.67    1.58
  -2  -4  -4   24.20    1.93
  -2  -4  -4   22.96    1.56
  -2  -4  -4   25.95    1.80
  -2  -4  -4   26.93    1.84
  -2  -4  -4   25.12    1.61
  -3  -4  -4    9.43    0.70
  -3  -4  -4    8.47    0.86
  -3  -4  -4   10.55    0.88
  -3  -4  -4   10.74    0.82
  -3  -4  -4   10.00    0.62
  -3  -4  -4    9.20    0.64
  -3  -4  -4    9.02    0.87
  -3  -4  -4    8.58    0.63
  -4  -4  -4   19.05    1.21
  -4  -4  -4   18.79    1.34
  -4  -4  -4   18.13    1.40
  -4  -4  -4   19.27    1.47
  -4  -4  -4   19.35    1.24
  -4  -4  -4   16.72    1.46
  -4  -4  -4   21.43    1.28
  -5  -4  -4    0.25    0.20
  -5  -4  -4   -0.10    0.36
  -5  -4  -4   -0.01    0.16
  -5  -4  -4    0.08    0.09
  -5  -4  -4    0.84    0.34
  -5  -4  -4   -0.15    0.18
  -5  -4  -4    0.02    0.16
  -6  -4  -4    4.16    0.30
  -6  -4  -4    3.32    0.37
  -6  -4  -4    3.26    0.41
  -6  -4  -4    3.68    0.37
  -7  -4  -4    0.09    0.18
  -7  -4  -4    0.14    0.13
  -7  -4  -4    0.22    0.10
  -7  -4  -4    0.22    0.15
  -8  -4  -4    0.15    0.18
  -8  -4  -4    0.15    0.17
  -9   5   4    0.01    0.12
  -8   5   4    0.18    0.15
  -8   5   4   -0.02    0.09
  -7   5   4    0.13    0.11
  -7   5   4    0.21    0.11
  -7   5   4    0.17    0.15
  -6   5   4    0.93    0.19
  -6   5   4    1.17    0.15
  -6   5   4    1.58    0.20
  -6   5   4    1.19    0.16
  -5   5   4    7.88    0.62
  -5   5   4    8.54    0.62
  -5   5   4    7.41    0.51
  -5   5   4    8.07    0.57
  -5   5   4    7.77    0.53
  -4   5   4   14.48    1.28
  -4   5   4   17.73    1.12
  -4   5   4   16.21    1.07
  -4   5   4   17.71    1.09
  -4   5   4   16.89    1.31
  -4   5   4   17.65    1.21
  -3   5   4    1.23    0.38
  -3   5   4    1.26    0.19
  -3   5   4    1.22    0.13
  -3   5   4    1.35    0.33
  -3   5   4    1.26    0.34
  -2   5   4   10.79    0.74
  -2   5   4   11.70    0.93
   0  -5  -4    7.21    0.51
  -1  -5  -4   -0.14    0.38
  -1  -5  -4    0.25    0.11
  -1  -5  -4    0.31    0.28
  -1  -5  -4    0.12    0.31
  -1  -5  -4    0.17    0.15
  -2  -5  -4    5.73    0.65
  -2  -5  -4    4.71    0.62
  -2  -5  -4    5.07    0.40
  -2  -5  -4    4.92    0.58
  -2  -5  -4    5.37    0.38
  -2  -5  -4    4.69    0.40
  -3  -5  -4    8.72    0.58
  -3  -5  -4    8.14    0.77
  -3  -5  -4    9.08    0.62
  -3  -5  -4    8.58    0.61
  -4  -5  -4    4.45    0.36
  -4  -5  -4    3.75    0.36
  -4  -5  -4    2.53    0.48
  -4  -5  -4    4.23    0.39
  -4  -5  -4    3.99    0.34
  -5  -5  -4    0.63    0.21
  -5  -5  -4    0.45    0.15
  -5  -5  -4    0.81    0.12
  -5  -5  -4    0.85    0.18
  -6  -5  -4    3.37    0.35
  -6  -5  -4    3.49    0.28
  -6  -5  -4    3.75    0.37
  -7  -5  -4    6.79    0.49
  -7  -5  -4    5.63    0.44
  -7  -5  -4    6.12    0.39
  -8  -5  -4    1.48    0.17
  -8   6   4    0.49    0.10
  -8   6   4    0.46    0.13
  -7   6   4    3.45    0.27
  -7   6   4    3.44    0.33
  -7   6   4    3.35    0.32
  -6   6   4    2.35    0.29
  -6   6   4    2.32    0.24
  -6   6   4    2.37    0.24
  -6   6   4    2.41    0.29
  -5   6   4    2.61    0.25
  -5   6   4    2.35    0.27
  -5   6   4    2.73    0.30
  -5   6   4    2.45    0.18
  -5   6   4    2.33    0.29
  -4   6   4    0.17    0.14
  -4   6   4    0.08    0.12
  -4   6   4   -0.13    0.15
  -3   6   4   13.83    0.94
  -3   6   4   15.34    0.92
  -3   6   4   12.17    1.11
   2  -6  -4   10.88    1.05
  -2   6   4   13.54    1.09
  -2   6   4   14.78    0.88
   1  -6  -4   10.82    0.87
  -1   6   4    9.38    0.83
   0  -6  -4    0.58    0.14
   0  -6  -4    0.07    0.28
  -1  -6  -4    2.78    0.26
  -1  -6  -4    1.78    0.41
  -1  -6  -4    2.51    0.25
  -2  -6  -4    0.95    0.37
  -2  -6  -4    0.82    0.18
  -2  -6  -4    0.93    0.14
  -3  -6  -4    6.05    0.48
  -3  -6  -4    6.20    0.43
  -3  -6  -4    5.21    0.43
  -3  -6  -4    5.41    0.38
  -4  -6  -4    1.28    0.23
  -4  -6  -4    1.23    0.16
  -4  -6  -4    1.68    0.22
  -5  -6  -4    1.66    0.24
  -5  -6  -4    1.42    0.20
  -5  -6  -4    1.86    0.20
  -6  -6  -4    4.38    0.30
  -6  -6  -4    4.76    0.39
  -6  -6  -4    3.69    0.35
  -7  -6  -4    0.00    0.11
  -7  -6  -4    0.19    0.14
  -7   7   4    3.03    0.24
  -7   7   4    2.50    0.25
  -6   7   4    1.41    0.16
  -6   7   4    1.59    0.16
  -6   7   4    1.65    0.17
  -6   7   4    1.16    0.17
  -5   7   4    6.56    0.52
  -5   7   4    6.16    0.49
  -5   7   4    6.70    0.49
  -5   7   4    6.40    0.46
  -4   7   4    0.43    0.11
  -4   7   4    0.44    0.15
  -4   7   4    0.55    0.21
  -3   7   4    0.97    0.16
  -3   7   4    0.90    0.14
  -3   7   4    0.93    0.19
  -2   7   4    0.64    0.13
   1  -7  -4    0.12    0.14
  -1   7   4   -0.07    0.13
   0  -7  -4    1.05    0.16
  -1  -7  -4    5.70    0.41
  -1  -7  -4    5.42    0.45
  -2  -7  -4    0.03    0.17
  -2  -7  -4    0.40    0.20
  -2  -7  -4    0.19    0.10
  -3  -7  -4    0.22    0.15
  -3  -7  -4    0.34    0.16
  -3  -7  -4    0.01    0.18
  -4  -7  -4   -0.19    0.13
  -4  -7  -4    0.29    0.13
  -4  -7  -4    0.08    0.14
  -5  -7  -4    1.48    0.17
  -5  -7  -4    1.21    0.15
  -6  -7  -4   -0.31    0.15
  -6  -7  -4    0.05    0.08
  -6   8   4    0.07    0.11
  -6   8   4   -0.03    0.08
  -5   8   4    3.44    0.30
  -5   8   4    4.15    0.30
  -4   8   4    0.34    0.11
  -4   8   4    0.39    0.09
  -3   8   4    1.50    0.15
   2  -8  -4   -0.04    0.14
  -2   8   4   -0.17    0.12
   1  -8  -4    2.19    0.21
  -1   8   4    2.35    0.24
   0  -8  -4    0.07    0.12
   0  -8  -4   -0.02    0.13
  -1  -8  -4    0.78    0.16
  -1  -8  -4    0.70    0.18
  -1  -8  -4    0.69    0.13
  -2  -8  -4    4.58    0.38
  -2  -8  -4    4.44    0.36
  -3  -8  -4    2.39    0.25
  -3  -8  -4    3.14    0.29
  -3  -8  -4    2.34    0.23
  -4  -8  -4   -0.17    0.10
  -4  -8  -4    0.15    0.12
  -5  -8  -4    0.55    0.09
  -5  -8  -4    0.45    0.10
  -4   9   4    0.07    0.07
  -4   9   4    0.15    0.12
   3  -9  -4    1.32    0.16
  -3   9   4    1.30    0.13
  -3   9   4    1.54    0.18
   2  -9  -4    2.58    0.23
  -2   9   4    2.08    0.21
   1  -9  -4   -0.04    0.11
  -1   9   4    0.02    0.08
   0  -9  -4    0.01    0.11
   0  -9  -4    0.06    0.08
  -1  -9  -4    1.99    0.20
  -2  -9  -4    0.09    0.12
  -2  -9  -4   -0.03    0.10
  -3  -9  -4    1.04    0.15
  -4 -11   5    1.80    0.19
  -3 -11   5    0.13    0.16
  -2 -11   5    1.09    0.19
  -1 -11   5    1.33    0.19
   0 -11   5    1.43    0.17
   0 -11   5    1.22    0.17
   1 -11   5    1.23    0.13
  -2  11  -5    7.72    0.55
   2 -11   5    8.91    0.56
  -3  11  -5   -0.02    0.10
   3 -11   5    0.16    0.08
  -4  11  -5   -0.04    0.13
   4 -11   5    0.13    0.07
  -6 -10   5    0.52    0.15
  -5 -10   5    1.89    0.21
  -4 -10   5    0.35    0.11
  -4 -10   5    0.43    0.14
  -3 -10   5    2.10    0.21
  -3 -10   5    2.01    0.20
  -3 -10   5    1.81    0.19
  -2 -10   5    1.10    0.17
  -2 -10   5    1.12    0.17
  -2 -10   5    1.29    0.17
  -1 -10   5    2.10    0.24
  -1 -10   5    2.21    0.22
  -1 -10   5    2.29    0.19
   0 -10   5   -0.29    0.11
   0 -10   5    0.13    0.15
   0 -10   5   -0.06    0.16
   1 -10   5   14.24    0.89
   1 -10   5   13.13    0.95
  -2  10  -5    1.67    0.19
   2 -10   5    1.97    0.18
  -3  10  -5    0.06    0.12
  -4  10  -5    7.81    0.59
  -4  10  -5    8.42    0.54
  -5  10  -5    0.68    0.15
  -5  10  -5    0.77    0.13
  -6  10  -5    0.33    0.09
  -7  -9   5    0.07    0.11
  -7  -9   5    0.01    0.09
  -6  -9   5    0.81    0.13
  -6  -9   5    0.89    0.20
  -5  -9   5    5.40    0.44
  -5  -9   5    6.36    0.41
  -5  -9   5    6.89    0.51
  -4  -9   5    8.22    0.56
  -4  -9   5    8.72    0.64
  -4  -9   5    8.02    0.54
  -3  -9   5   10.58    0.69
  -3  -9   5   11.05    0.78
  -3  -9   5    8.64    0.80
  -3  -9   5   11.75    0.70
  -2  -9   5    3.36    0.34
  -2  -9   5    3.11    0.28
  -2  -9   5    3.00    0.22
  -2  -9   5    2.39    0.30
  -2  -9   5    2.99    0.31
  -1  -9   5    0.79    0.10
  -1  -9   5    0.68    0.18
  -1  -9   5    1.07    0.18
   0  -9   5    1.98    0.24
   0  -9   5    3.24    0.27
   0  -9   5    2.52    0.23
  -2   9  -5    0.41    0.14
   2  -9   5    0.59    0.12
  -3   9  -5    5.55    0.42
  -4   9  -5    3.33    0.28
  -4   9  -5    3.40    0.34
  -5   9  -5    0.49    0.15
  -5   9  -5    0.30    0.09
  -6   9  -5    0.66    0.14
  -6   9  -5    0.45    0.13
  -6   9  -5    0.78    0.15
  -7   9  -5    0.96    0.13
  -8  -8   5   -0.03    0.08
  -8  -8   5    0.05    0.11
  -7  -8   5    1.10    0.17
  -7  -8   5    1.17    0.16
  -6  -8   5    1.97    0.26
  -6  -8   5    2.18    0.17
  -6  -8   5    1.76    0.20
  -5  -8   5    1.47    0.15
  -5  -8   5    1.27    0.23
  -5  -8   5    1.36    0.17
  -5  -8   5    1.27    0.22
  -4  -8   5    1.08    0.12
  -4  -8   5    1.19    0.22
  -4  -8   5    0.99    0.15
  -4  -8   5    1.38    0.23
  -4  -8   5    1.03    0.15
  -3  -8   5   31.38    1.92
  -3  -8   5   31.54    2.28
  -3  -8   5   27.68    2.22
  -3  -8   5   31.59    2.11
  -3  -8   5   31.42    1.98
  -2  -8   5    0.04    0.38
  -2  -8   5   -0.20    0.14
  -2  -8   5    0.07    0.08
  -2  -8   5   -0.02    0.13
  -2  -8   5   -0.09    0.15
  -2  -8   5    0.00    0.24
  -1  -8   5    1.04    0.12
  -1  -8   5    0.99    0.38
  -1  -8   5    1.07    0.17
  -1  -8   5    0.87    0.30
  -1  -8   5    0.66    0.41
  -1  -8   5    0.94    0.17
   0  -8   5   10.36    0.80
   0  -8   5   11.82    0.74
   1  -8   5    0.05    0.09
  -2   8  -5    5.00    0.39
  -3   8  -5    6.97    0.49
  -4   8  -5    0.10    0.13
  -4   8  -5   -0.13    0.18
  -5   8  -5    4.66    0.40
  -5   8  -5    5.40    0.36
  -6   8  -5    3.94    0.39
  -6   8  -5    4.66    0.37
  -6   8  -5    4.02    0.33
  -6   8  -5    3.83    0.33
  -7   8  -5    0.16    0.12
  -7   8  -5    0.09    0.10
  -7   8  -5    0.06    0.09
  -7   8  -5   -0.03    0.12
  -8   8  -5    0.16    0.11
  -9  -7   5    0.54    0.11
  -9  -7   5    0.68    0.12
  -8  -7   5    0.08    0.14
  -8  -7   5    0.10    0.13
  -7  -7   5    0.75    0.17
  -7  -7   5    0.78    0.22
  -6  -7   5    4.92    0.47
  -6  -7   5    5.15    0.34
  -6  -7   5    5.14    0.41
  -6  -7   5    5.33    0.47
  -5  -7   5    0.00    0.19
  -5  -7   5    0.13    0.13
  -5  -7   5    0.04    0.09
  -5  -7   5    0.11    0.19
  -4  -7   5    0.01    0.17
  -4  -7   5    0.04    0.09
  -4  -7   5    0.09    0.11
  -4  -7   5    0.03    0.09
  -4  -7   5   -0.19    0.18
  -4  -7   5   -0.12    0.18
  -4  -7   5    0.06    0.25
  -3  -7   5    0.76    0.38
  -3  -7   5    0.42    0.11
  -3  -7   5    0.42    0.28
  -3  -7   5    0.69    0.17
  -3  -7   5    0.69    0.33
  -3  -7   5    0.74    0.13
  -3  -7   5    0.62    0.19
  -3  -7   5    0.42    0.24
  -2  -7   5    1.37    0.14
  -2  -7   5    1.01    0.39
  -2  -7   5    1.80    0.40
  -2  -7   5    1.66    0.17
  -2  -7   5    1.77    0.17
  -2  -7   5    1.80    0.30
  -2  -7   5    1.78    0.19
  -2  -7   5    1.31    0.28
  -1  -7   5   12.14    1.01
  -1  -7   5   12.20    0.93
  -1  -7   5   12.39    0.76
  -1  -7   5   11.77    0.83
  -1  -7   5   10.48    0.79
   0  -7   5   12.52    0.98
   0  -7   5   12.28    1.08
   0  -7   5   12.07    0.79
   1  -7   5    3.12    0.26
  -2   7  -5    4.65    0.35
  -3   7  -5    1.52    0.17
  -4   7  -5    0.29    0.13
  -4   7  -5    0.09    0.10
  -4   7  -5    0.40    0.31
  -4   7  -5    0.17    0.41
  -5   7  -5    9.49    0.65
  -5   7  -5    9.60    0.61
  -5   7  -5    9.47    0.64
  -5   7  -5    8.32    0.70
  -6   7  -5    4.72    0.38
  -6   7  -5    4.67    0.41
  -6   7  -5    4.55    0.37
  -6   7  -5    4.70    0.50
  -7   7  -5   -0.16    0.17
  -7   7  -5   -0.02    0.10
  -7   7  -5   -0.38    0.22
  -7   7  -5    0.14    0.12
  -8   7  -5    3.79    0.27
  -8   7  -5    3.49    0.31
  -8   7  -5    3.25    0.36
  -9  -6   5    0.02    0.16
  -9  -6   5    0.11    0.13
  -8  -6   5    0.84    0.16
  -8  -6   5    0.88    0.17
  -8  -6   5    0.50    0.13
  -7  -6   5    8.01    0.59
  -7  -6   5    7.45    0.60
  -7  -6   5    6.23    0.50
  -6  -6   5    8.43    0.69
  -6  -6   5    8.10    0.54
  -6  -6   5    8.85    0.63
  -6  -6   5    8.66    0.66
  -6  -6   5    8.16    0.60
  -5  -6   5    2.83    0.32
  -5  -6   5    3.05    0.30
  -5  -6   5    3.52    0.31
  -5  -6   5    2.99    0.24
  -5  -6   5    3.08    0.29
  -5  -6   5    2.58    0.39
  -4  -6   5   14.10    0.94
  -4  -6   5   13.67    1.06
  -4  -6   5   14.26    0.96
  -4  -6   5   14.28    1.14
  -4  -6   5   15.50    1.12
  -4  -6   5   14.99    1.15
  -4  -6   5   13.44    1.33
  -4  -6   5   14.76    0.92
  -4  -6   5   14.72    1.03
  -4  -6   5   15.46    1.03
  -3  -6   5   24.20    1.84
  -3  -6   5   26.04    1.70
  -3  -6   5   22.20    1.63
  -3  -6   5   23.67    1.53
  -3  -6   5   23.52    1.77
  -3  -6   5   25.74    1.74
  -3  -6   5   22.67    1.54
  -3  -6   5   23.40    1.49
  -3  -6   5   24.65    2.05
  -2  -6   5    8.84    0.68
  -2  -6   5   10.79    0.78
  -2  -6   5   10.19    0.77
  -2  -6   5    9.55    0.62
  -2  -6   5   10.70    0.85
  -2  -6   5    9.16    0.62
  -2  -6   5   10.22    0.94
  -2  -6   5    8.77    0.63
  -1  -6   5   41.04    2.82
  -1  -6   5   44.74    3.04
  -1  -6   5   35.76    2.54
  -1  -6   5   40.81    2.81
   0  -6   5    0.17    0.28
   0  -6   5   -0.09    0.18
  -2   6  -5    2.93    0.25
  -3   6  -5    6.19    0.43
  -3   6  -5    5.47    0.60
  -4   6  -5    1.48    0.17
  -4   6  -5    2.23    0.22
  -4   6  -5    1.58    0.32
  -4   6  -5    1.63    0.33
  -4   6  -5    2.09    0.45
  -5   6  -5    1.89    0.21
  -5   6  -5    1.88    0.19
  -5   6  -5    1.52    0.18
  -5   6  -5    2.50    0.52
  -5   6  -5    2.23    0.23
  -6   6  -5    5.85    0.51
  -6   6  -5    6.67    0.47
  -6   6  -5    5.96    0.44
  -6   6  -5    6.32    0.61
  -7   6  -5    0.45    0.26
  -7   6  -5    0.46    0.12
  -7   6  -5    0.50    0.12
  -7   6  -5    0.72    0.20
  -8   6  -5    0.15    0.15
  -8   6  -5    0.34    0.17
  -8   6  -5    0.03    0.10
  -9   6  -5    0.53    0.09
  -9   6  -5    0.64    0.12
  -9  -5   5    0.19    0.13
  -9  -5   5    0.08    0.10
  -9  -5   5   -0.01    0.14
  -8  -5   5    1.91    0.24
  -8  -5   5    1.67    0.21
  -8  -5   5    1.89    0.21
  -7  -5   5   -0.02    0.19
  -7  -5   5   -0.06    0.14
  -7  -5   5    0.25    0.16
  -7  -5   5    0.01    0.15
  -6  -5   5    1.06    0.21
  -6  -5   5    1.13    0.17
  -6  -5   5    1.12    0.31
  -6  -5   5    1.18    0.12
  -6  -5   5    0.97    0.22
  -6  -5   5    1.11    0.17
  -5  -5   5   25.76    1.98
  -5  -5   5   26.36    1.96
  -5  -5   5   27.66    1.85
  -5  -5   5   25.89    2.29
  -5  -5   5   28.75    1.85
  -5  -5   5   26.48    1.67
  -5  -5   5   27.34    1.74
  -4  -5   5    2.80    0.34
  -4  -5   5    2.96    0.45
  -4  -5   5    2.62    0.28
  -4  -5   5    2.85    0.30
  -4  -5   5    2.59    0.22
  -4  -5   5    2.53    0.23
  -4  -5   5    3.03    0.31
  -4  -5   5    2.95    0.30
  -4  -5   5    3.20    0.39
  -4  -5   5    2.95    0.33
  -3  -5   5    8.01    0.79
  -3  -5   5    8.69    0.67
  -3  -5   5    8.13    0.61
  -3  -5   5    7.21    0.61
  -3  -5   5    6.66    0.55
  -3  -5   5    6.90    0.50
  -3  -5   5    8.28    0.63
  -3  -5   5    7.41    0.49
  -2  -5   5   20.84    1.46
  -2  -5   5   21.29    1.58
  -2  -5   5   20.08    1.46
  -2  -5   5   19.24    1.74
  -1  -5   5   16.00    1.15
  -1  -5   5   16.14    1.16
  -1  -5   5   15.07    1.25
   0  -5   5    5.65    0.57
   0  -5   5    5.42    0.49
   0  -5   5    5.10    0.44
  -2   5  -5    0.03    0.20
  -2   5  -5    0.14    0.23
  -3   5  -5    1.21    0.27
  -3   5  -5    1.57    0.32
  -3   5  -5    1.37    0.13
  -4   5  -5    5.02    0.52
  -4   5  -5    4.24    0.35
  -4   5  -5    4.55    0.35
  -4   5  -5    4.17    0.33
  -4   5  -5    4.79    0.57
  -4   5  -5    4.60    0.54
  -5   5  -5    8.65    0.59
  -5   5  -5    9.14    0.61
  -5   5  -5    8.51    0.57
  -5   5  -5    7.07    0.76
  -5   5  -5    8.29    0.79
  -5   5  -5    8.78    0.89
  -5   5  -5    9.17    0.66
  -6   5  -5   49.25    3.26
  -6   5  -5   43.77    2.82
  -6   5  -5   46.54    2.73
  -6   5  -5   41.29    3.21
  -6   5  -5   39.13    3.08
  -7   5  -5    1.57    0.23
  -7   5  -5    1.28    0.15
  -7   5  -5    1.18    0.15
  -7   5  -5    1.67    0.30
  -8   5  -5    0.14    0.10
  -8   5  -5    0.13    0.24
  -8   5  -5    0.36    0.19
  -9   5  -5    0.41    0.14
  -9   5  -5    0.37    0.14
 -10  -4   5    0.11    0.08
 -10  -4   5    0.35    0.14
  -9  -4   5    3.25    0.31
  -9  -4   5    3.85    0.31
  -9  -4   5    3.17    0.31
  -8  -4   5    0.39    0.21
  -8  -4   5    0.61    0.13
  -8  -4   5    0.64    0.21
  -7  -4   5    0.32    0.13
  -7  -4   5    0.10    0.16
  -7  -4   5    0.48    0.20
  -7  -4   5    0.22    0.20
  -6  -4   5    6.72    0.46
  -6  -4   5    7.82    0.57
  -6  -4   5    7.47    0.61
  -6  -4   5    7.67    0.53
  -6  -4   5    7.30    0.55
  -6  -4   5    6.05    0.79
  -5  -4   5    2.98    0.30
  -5  -4   5    3.50    0.24
  -5  -4   5    4.04    0.47
  -5  -4   5    3.24    0.47
  -5  -4   5    3.20    0.32
  -5  -4   5    3.06    0.33
  -5  -4   5    3.22    0.33
  -4  -4   5    3.03    0.24
  -4  -4   5    2.96    0.27
  -4  -4   5    3.02    0.36
  -4  -4   5    3.48    0.32
  -4  -4   5    3.62    0.50
  -4  -4   5    3.31    0.35
  -4  -4   5    3.62    0.29
  -4  -4   5    2.84    0.24
  -4  -4   5    3.35    0.31
  -4  -4   5    3.54    0.35
  -3  -4   5   40.52    2.86
  -3  -4   5   42.73    3.39
  -3  -4   5   41.54    2.89
  -3  -4   5   40.91    3.07
  -2  -4   5    4.91    0.57
  -2  -4   5    5.25    0.47
  -2  -4   5    5.25    0.46
  -2  -4   5    5.20    0.52
  -1  -4   5    2.77    0.33
  -1  -4   5    3.20    0.36
  -1  -4   5    2.71    0.30
   0   4  -5   22.46    1.74
   0  -4   5   27.17    1.77
   0  -4   5   29.15    1.91
   0  -4   5   21.61    1.73
  -1   4  -5   14.56    1.20
  -1   4  -5   15.33    1.12
   1  -4   5   15.18    1.11
   1  -4   5   15.96    1.21
  -2   4  -5    3.56    0.40
  -2   4  -5    3.58    0.41
  -3   4  -5   13.03    0.97
  -3   4  -5   12.09    1.04
  -3   4  -5   12.52    1.02
  -4   4  -5    1.23    0.31
  -4   4  -5    1.15    0.13
  -4   4  -5    1.05    0.30
  -4   4  -5    1.01    0.12
  -4   4  -5    1.66    0.44
  -4   4  -5    0.94    0.13
  -5   4  -5    8.90    0.59
  -5   4  -5    9.71    0.89
  -5   4  -5    8.40    0.78
  -5   4  -5    9.18    0.79
  -5   4  -5    8.44    0.66
  -5   4  -5    8.48    0.57
  -5   4  -5    8.52    0.60
  -5   4  -5    8.94    0.75
  -6   4  -5   19.02    1.60
  -6   4  -5   19.02    1.34
  -6   4  -5   19.41    1.24
  -6   4  -5   16.32    1.41
  -6   4  -5   20.56    1.46
  -6   4  -5   19.34    1.20
  -6   4  -5   18.44    1.36
  -7   4  -5   10.83    0.85
  -7   4  -5    9.33    0.76
  -7   4  -5   10.12    0.66
  -7   4  -5    9.69    0.73
  -8   4  -5    8.88    0.72
  -8   4  -5    7.75    0.64
  -8   4  -5    7.98    0.54
  -9   4  -5    0.48    0.12
  -9   4  -5    0.87    0.23
 -10  -3   5   -0.14    0.10
  -9  -3   5    2.33    0.26
  -9  -3   5    2.36    0.25
  -9  -3   5    2.96    0.32
  -9  -3   5    2.14    0.27
  -8  -3   5    3.43    0.35
  -8  -3   5    4.27    0.35
  -8  -3   5    4.06    0.41
  -8  -3   5    4.60    0.42
  -7  -3   5    0.11    0.19
  -7  -3   5   -0.11    0.15
  -7  -3   5    0.11    0.19
  -7  -3   5   -0.14    0.13
  -7  -3   5   -0.07    0.37
  -7  -3   5   -0.11    0.12
  -6  -3   5   17.63    1.13
  -6  -3   5   16.98    1.19
  -6  -3   5   18.79    1.29
  -6  -3   5   17.01    1.20
  -6  -3   5   15.57    1.19
  -6  -3   5   16.79    1.53
  -5  -3   5    2.70    0.27
  -5  -3   5    3.32    0.27
  -5  -3   5    2.71    0.27
  -5  -3   5    2.93    0.22
  -5  -3   5    3.10    0.45
  -5  -3   5    2.95    0.31
  -5  -3   5    2.86    0.34
  -4  -3   5   -0.01    0.15
  -4  -3   5    0.15    0.13
  -4  -3   5    0.01    0.14
  -4  -3   5   -0.19    0.23
  -3  -3   5    0.22    0.15
  -3  -3   5    0.08    0.20
  -3  -3   5    0.14    0.14
  -3  -3   5   -0.02    0.16
  -2  -3   5    0.05    0.19
  -2  -3   5    0.09    0.17
  -2  -3   5   -0.01    0.15
   1   3  -5    2.37    0.28
  -1  -3   5    2.64    0.31
  -1  -3   5    2.50    0.32
  -1  -3   5    2.44    0.28
  -1  -3   5    2.22    0.26
   0   3  -5   26.56    1.83
   0   3  -5   26.51    1.81
   0   3  -5   23.35    1.95
   0   3  -5   23.35    1.80
   0  -3   5   28.29    1.96
   0  -3   5   24.75    1.79
   0  -3   5   28.05    1.83
   0  -3   5   26.83    1.80
  -1   3  -5    0.59    0.20
  -1   3  -5    0.94    0.23
  -1   3  -5    0.62    0.16
  -1   3  -5    0.55    0.20
   1  -3   5    0.81    0.17
   1  -3   5    0.99    0.19
   1  -3   5    0.68    0.16
   1  -3   5    0.83    0.22
  -2   3  -5   39.73    2.85
  -2   3  -5   40.85    2.66
  -2   3  -5   33.39    2.61
  -3   3  -5    0.62    0.23
  -3   3  -5    0.59    0.25
  -3   3  -5    0.26    0.24
  -4   3  -5   10.88    0.75
  -4   3  -5   10.39    0.72
  -4   3  -5   11.71    1.00
  -4   3  -5   10.97    0.88
  -4   3  -5   11.29    0.72
  -4   3  -5   11.80    0.94
  -5   3  -5    5.06    0.44
  -5   3  -5    5.02    0.63
  -5   3  -5    5.15    0.35
  -5   3  -5    5.75    0.44
  -5   3  -5    4.76    0.58
  -5   3  -5    5.61    0.41
  -5   3  -5    5.06    0.45
  -5   3  -5    5.85    0.40
  -5   3  -5    5.46    0.53
  -5   3  -5    5.64    0.55
  -6   3  -5    0.72    0.45
  -6   3  -5    0.75    0.26
  -6   3  -5    0.48    0.13
  -6   3  -5    0.53    0.25
  -6   3  -5    0.49    0.28
  -6   3  -5    0.44    0.13
  -6   3  -5    0.42    0.19
  -6   3  -5    0.46    0.14
  -7   3  -5    2.17    0.27
  -7   3  -5    1.89    0.33
  -7   3  -5    2.26    0.25
  -8   3  -5    0.27    0.12
  -8   3  -5    0.27    0.20
  -8   3  -5    0.19    0.21
  -9   3  -5    0.47    0.17
  -9   3  -5    0.23    0.12
 -10   3  -5    1.44    0.19
 -10  -2   5    4.27    0.38
 -10  -2   5    4.83    0.34
  -9  -2   5    0.28    0.19
  -9  -2   5    0.30    0.14
  -9  -2   5    0.24    0.15
  -8  -2   5   -0.01    0.19
  -8  -2   5    0.05    0.14
  -8  -2   5   -0.32    0.14
  -8  -2   5   -0.03    0.14
  -7  -2   5    2.72    0.47
  -7  -2   5    2.14    0.27
  -7  -2   5    2.50    0.27
  -7  -2   5    2.38    0.27
  -7  -2   5    2.39    0.28
  -6  -2   5   11.14    0.79
  -6  -2   5   10.67    1.06
  -6  -2   5   10.84    0.86
  -6  -2   5   11.38    0.80
  -6  -2   5   10.82    0.68
  -6  -2   5   10.97    0.74
  -5  -2   5   -0.15    0.25
  -5  -2   5    0.07    0.08
  -5  -2   5    0.20    0.15
  -5  -2   5    0.16    0.11
  -5  -2   5    0.24    0.11
  -5  -2   5   -0.02    0.15
  -4  -2   5   12.95    1.17
  -4  -2   5   13.11    1.00
  -4  -2   5   13.22    0.94
  -3  -2   5   11.72    0.93
  -3  -2   5   11.93    1.05
  -3  -2   5   11.99    0.87
  -2  -2   5   38.70    2.75
  -2  -2   5   31.43    2.52
  -2  -2   5   40.48    2.56
  -2  -2   5   37.44    3.01
   1   2  -5    6.40    0.57
   1   2  -5    5.70    0.59
  -1  -2   5    7.38    0.58
  -1  -2   5    8.04    0.69
  -1  -2   5    8.82    0.64
  -1  -2   5    7.11    0.56
  -1  -2   5    8.58    0.61
   0   2  -5    3.04    0.37
   0   2  -5    3.28    0.37
   0   2  -5    2.96    0.34
   0   2  -5    3.65    0.38
   0  -2   5    4.03    0.38
   0  -2   5    3.46    0.35
   0  -2   5    3.38    0.34
   0  -2   5    3.69    0.42
   0  -2   5    2.93    0.31
  -1   2  -5    4.49    0.42
  -1   2  -5    3.98    0.40
  -1   2  -5    4.85    0.44
  -1   2  -5    3.40    0.36
  -1   2  -5    5.04    0.47
   1  -2   5    4.79    0.41
   1  -2   5    4.22    0.40
   1  -2   5    4.04    0.38
   1  -2   5    4.29    0.38
  -2   2  -5   70.41    4.89
  -2   2  -5   72.92    4.94
  -2   2  -5   69.62    5.23
  -3   2  -5    5.73    0.61
  -3   2  -5    5.22    0.52
  -3   2  -5    4.65    0.53
  -4   2  -5    4.07    0.47
  -4   2  -5    4.07    0.41
  -4   2  -5    3.19    0.40
  -4   2  -5    3.86    0.33
  -4   2  -5    3.69    0.28
  -4   2  -5    4.08    0.46
  -5   2  -5    0.52    0.36
  -5   2  -5    0.53    0.14
  -5   2  -5    0.53    0.12
  -5   2  -5    0.37    0.29
  -5   2  -5    0.54    0.13
  -5   2  -5    0.54    0.16
  -5   2  -5    0.53    0.22
  -5   2  -5    0.48    0.15
  -5   2  -5    0.45    0.28
  -6   2  -5   16.62    1.10
  -6   2  -5   16.05    0.98
  -6   2  -5   14.57    1.08
  -6   2  -5   13.18    1.19
  -6   2  -5   16.20    1.20
  -6   2  -5   14.82    1.11
  -6   2  -5   14.92    1.29
  -7   2  -5    3.49    0.30
  -7   2  -5    3.75    0.38
  -7   2  -5    3.45    0.40
  -7   2  -5    3.05    0.34
  -8   2  -5   10.47    0.66
  -8   2  -5    9.71    0.79
  -8   2  -5   10.61    0.86
  -9   2  -5    0.46    0.17
  -9   2  -5    0.45    0.14
 -10   2  -5    0.09    0.12
 -10  -1   5    4.34    0.34
 -10  -1   5    3.83    0.35
  -9  -1   5   -0.10    0.13
  -9  -1   5    0.04    0.19
  -9  -1   5   -0.24    0.16
  -9  -1   5   -0.18    0.13
  -8  -1   5    2.65    0.29
  -8  -1   5    2.40    0.28
  -8  -1   5    2.72    0.31
  -8  -1   5    2.43    0.28
  -7  -1   5    1.40    0.18
  -7  -1   5    1.09    0.18
  -7  -1   5    1.40    0.19
  -7  -1   5    1.14    0.22
  -7  -1   5    0.82    0.39
  -6  -1   5    1.14    0.16
  -6  -1   5    0.97    0.15
  -6  -1   5    1.06    0.10
  -6  -1   5    1.02    0.17
  -6  -1   5    0.86    0.18
  -6  -1   5    0.61    0.33
  -6  -1   5    0.96    0.19
  -5  -1   5    5.24    0.42
  -5  -1   5    4.68    0.38
  -5  -1   5    5.12    0.44
  -5  -1   5    5.04    0.39
  -5  -1   5    4.28    0.32
  -5  -1   5    5.81    0.61
  -5  -1   5    5.53    0.39
  -5  -1   5    5.08    0.37
  -4  -1   5    7.02    0.52
  -4  -1   5    6.65    0.67
  -4  -1   5    5.79    0.53
  -4  -1   5    6.50    0.54
  -3  -1   5    3.65    0.40
  -3  -1   5    3.95    0.36
  -3  -1   5    4.41    0.36
  -3  -1   5    3.59    0.46
  -2  -1   5   87.54    5.96
  -2  -1   5   85.80    6.38
  -2  -1   5   87.98    6.98
   1   1  -5    1.65    0.24
   1   1  -5    2.09    0.25
   1   1  -5    1.64    0.27
  -1  -1   5    2.65    0.30
  -1  -1   5    2.07    0.24
  -1  -1   5    2.88    0.32
  -1  -1   5    2.41    0.27
  -1  -1   5    2.84    0.32
   0   1  -5    2.07    0.23
   0   1  -5    1.59    0.24
   0   1  -5    1.93    0.25
   0   1  -5    1.31    0.20
   0   1  -5    1.69    0.24
   0  -1   5    1.39    0.20
   0  -1   5    2.23    0.27
   0  -1   5    1.83    0.23
   0  -1   5    1.86    0.23
   0  -1   5    2.15    0.24
  -1   1  -5    5.75    0.55
  -1   1  -5    6.85    0.60
  -1   1  -5    8.34    0.64
  -1   1  -5    8.12    0.66
  -1   1  -5    7.70    0.59
   1  -1   5    6.87    0.63
   1  -1   5    7.56    0.62
   1  -1   5    7.11    0.57
   1  -1   5    6.76    0.57
   1  -1   5    7.03    0.56
  -2   1  -5    2.02    0.27
  -2   1  -5    1.20    0.25
  -2   1  -5    1.42    0.29
  -2   1  -5    1.61    0.28
  -3   1  -5    8.15    0.74
  -3   1  -5    8.47    0.75
  -3   1  -5    8.41    0.74
  -4   1  -5    5.92    0.58
  -4   1  -5    5.42    0.62
  -4   1  -5    5.56    0.41
  -4   1  -5    5.87    0.50
  -4   1  -5    5.43    0.58
  -4   1  -5    5.22    0.42
  -4   1  -5    5.44    0.38
  -5   1  -5    1.18    0.23
  -5   1  -5    1.02    0.18
  -5   1  -5    0.85    0.38
  -5   1  -5    1.16    0.17
  -5   1  -5    0.84    0.26
  -5   1  -5    0.96    0.16
  -6   1  -5    0.83    0.21
  -6   1  -5    0.44    0.23
  -6   1  -5    0.74    0.44
  -6   1  -5    1.20    0.18
  -6   1  -5    1.24    0.26
  -6   1  -5    0.60    0.22
  -6   1  -5    1.09    0.12
  -6   1  -5    1.27    0.16
  -7   1  -5    0.16    0.16
  -7   1  -5   -0.16    0.26
  -7   1  -5   -0.13    0.13
  -7   1  -5    0.06    0.14
  -8   1  -5    6.60    0.41
  -8   1  -5    6.40    0.54
  -8   1  -5    5.99    0.51
  -8   1  -5    5.65    0.55
  -9   1  -5    0.16    0.13
  -9   1  -5   -0.14    0.16
 -10   1  -5    2.31    0.27
 -10   0   5   -0.23    0.13
 -10   0   5    0.08    0.11
 -10   0   5    0.01    0.13
  -9   0   5    0.12    0.17
  -9   0   5    0.24    0.13
  -9   0   5    0.24    0.16
  -8   0   5    1.38    0.23
  -8   0   5    1.87    0.22
  -8   0   5    1.23    0.23
  -8   0   5    1.54    0.22
  -7   0   5   17.48    1.32
  -7   0   5   15.70    1.54
  -7   0   5   18.56    1.24
  -7   0   5   17.37    1.26
  -7   0   5   18.26    1.24
  -7   0   5   17.48    1.09
  -6   0   5   10.02    0.81
  -6   0   5   11.27    0.85
  -6   0   5   11.13    0.80
  -6   0   5   11.11    0.79
  -6   0   5   11.86    0.69
  -6   0   5    9.58    0.88
  -6   0   5   11.26    1.07
  -5   0   5   15.80    1.08
  -5   0   5   15.00    1.15
  -5   0   5   14.61    0.98
  -5   0   5   15.08    1.16
  -5   0   5   13.83    1.09
  -5   0   5   15.71    1.17
  -5   0   5   16.33    1.09
  -5   0   5   15.73    0.96
  -5   0   5   15.86    1.07
  -5   0   5   16.21    1.37
  -4   0   5   17.02    1.47
  -4   0   5   16.53    1.25
  -4   0   5   18.46    1.23
  -4   0   5   16.36    1.30
  -3   0   5   20.54    1.53
  -3   0   5   22.23    1.79
  -3   0   5   21.43    1.62
  -3   0   5   21.78    1.52
  -2   0   5    1.50    0.23
  -2   0   5    2.39    0.32
  -2   0   5    2.43    0.26
  -2   0   5    2.19    0.28
   1   0  -5    9.99    0.89
  -1   0   5   14.18    0.91
  -1   0   5   14.03    0.97
  -1   0   5   11.30    0.88
  -1   0   5   12.24    1.03
  -1   0   5   11.18    0.88
   0   0  -5    2.09    0.28
   0   0  -5    2.96    0.31
   0   0  -5    3.01    0.38
   0   0   5    2.88    0.36
   0   0   5    3.01    0.32
   0   0   5    3.27    0.34
   0   0   5    2.95    0.32
   0   0   5    2.51    0.30
  -1   0  -5   64.48    4.18
  -1   0  -5   50.01    3.85
  -1   0  -5   60.15    3.91
   1   0   5   51.23    3.83
  -2   0  -5    0.43    0.25
  -2   0  -5    0.05    0.24
  -3   0  -5    0.31    0.31
  -3   0  -5    0.51    0.30
  -4   0  -5    4.10    0.30
  -4   0  -5    4.77    0.56
  -4   0  -5    4.42    0.45
  -4   0  -5    4.48    0.42
  -4   0  -5    3.98    0.34
  -4   0  -5    4.83    0.55
  -4   0  -5    4.29    0.33
  -5   0  -5   10.03    0.79
  -5   0  -5   10.15    0.75
  -5   0  -5    8.44    0.85
  -5   0  -5   10.26    0.73
  -5   0  -5    9.92    0.91
  -5   0  -5    9.51    0.66
  -5   0  -5   10.16    0.67
  -5   0  -5    9.71    0.80
  -6   0  -5    0.97    0.22
  -6   0  -5    0.48    0.09
  -6   0  -5    0.59    0.24
  -6   0  -5    0.33    0.21
  -6   0  -5    0.06    0.41
  -6   0  -5    0.37    0.20
  -6   0  -5    0.50    0.16
  -7   0  -5   13.71    0.95
  -7   0  -5   13.12    0.83
  -7   0  -5   11.93    0.97
  -7   0  -5   12.92    1.04
  -8   0  -5   -0.04    0.18
  -8   0  -5    0.15    0.15
  -8   0  -5    0.22    0.18
  -8   0  -5    0.14    0.09
  -9   0  -5   -0.34    0.15
  -9   0  -5    0.12    0.13
  -9   0  -5   -0.02    0.13
 -10   1   5    0.01    0.13
 -10   1   5    0.09    0.08
  -9   1   5   10.78    0.80
  -9   1   5   11.06    0.86
  -9   1   5   12.30    0.84
  -8   1   5   -0.26    0.17
  -8   1   5   -0.08    0.18
  -8   1   5    0.04    0.17
  -7   1   5    0.59    0.38
  -7   1   5    0.10    0.17
  -7   1   5   -0.07    0.16
  -7   1   5    0.15    0.32
  -7   1   5    0.01    0.15
  -7   1   5    0.21    0.08
  -6   1   5    6.43    0.53
  -6   1   5    7.32    0.55
  -6   1   5    6.20    0.63
  -6   1   5    6.19    0.57
  -6   1   5    6.41    0.76
  -6   1   5    7.24    0.45
  -6   1   5    7.06    0.54
  -5   1   5    1.57    0.31
  -5   1   5    1.40    0.32
  -5   1   5    1.39    0.18
  -5   1   5    1.24    0.15
  -5   1   5    0.99    0.15
  -5   1   5    1.07    0.13
  -5   1   5    1.26    0.12
  -5   1   5    1.48    0.22
  -5   1   5    1.13    0.19
  -5   1   5    1.23    0.16
  -4   1   5   19.21    1.20
  -4   1   5   19.98    1.38
  -4   1   5   20.18    1.48
  -4   1   5   17.08    1.21
  -4   1   5   20.50    1.64
  -4   1   5   20.56    1.42
  -4   1   5   18.57    1.24
  -3   1   5   68.02    4.50
  -3   1   5   63.22    4.53
  -3   1   5   63.07    5.27
  -3   1   5   67.42    4.82
  -2   1   5    0.34    0.18
  -2   1   5    0.13    0.15
  -2   1   5    0.12    0.21
   1  -1  -5    0.25    0.19
  -1   1   5    0.21    0.12
  -1   1   5    0.75    0.23
  -1   1   5    0.29    0.13
  -1   1   5    0.30    0.15
   0  -1  -5   11.58    0.94
   0  -1  -5   12.27    0.89
   0  -1  -5    9.64    0.85
   0   1   5    9.90    0.84
   0   1   5   12.48    0.93
   0   1   5   12.89    0.87
  -1  -1  -5    9.06    0.87
  -1  -1  -5   12.31    0.91
  -1  -1  -5   11.84    0.96
  -1  -1  -5   12.85    0.89
  -2  -1  -5    4.75    0.50
  -2  -1  -5    4.76    0.49
  -2  -1  -5    4.86    0.54
  -3  -1  -5   46.73    3.11
  -3  -1  -5   43.82    3.32
  -3  -1  -5   41.01    2.80
  -3  -1  -5   46.66    3.16
  -4  -1  -5    1.42    0.30
  -4  -1  -5    1.22    0.18
  -4  -1  -5    0.75    0.37
  -4  -1  -5    1.10    0.18
  -4  -1  -5    0.93    0.15
  -4  -1  -5    0.73    0.35
  -4  -1  -5    1.16    0.30
  -4  -1  -5    1.07    0.19
  -4  -1  -5    1.28    0.20
  -4  -1  -5    1.15    0.10
  -5  -1  -5    0.94    0.47
  -5  -1  -5    0.82    0.22
  -5  -1  -5    0.86    0.18
  -5  -1  -5    0.66    0.26
  -5  -1  -5    0.71    0.31
  -5  -1  -5    0.64    0.12
  -5  -1  -5    0.97    0.18
  -5  -1  -5    0.53    0.19
  -6  -1  -5    1.83    0.24
  -6  -1  -5    1.16    0.44
  -6  -1  -5    1.77    0.28
  -6  -1  -5    1.28    0.24
  -6  -1  -5    1.51    0.15
  -6  -1  -5    1.64    0.19
  -7  -1  -5    0.11    0.19
  -7  -1  -5    0.05    0.25
  -7  -1  -5   -0.09    0.12
  -7  -1  -5   -0.03    0.22
  -8  -1  -5    6.24    0.46
  -8  -1  -5    4.91    0.45
  -8  -1  -5    4.47    0.43
  -9  -1  -5    3.82    0.36
  -9  -1  -5    4.19    0.32
 -10   2   5    0.28    0.13
 -10   2   5    0.29    0.11
  -9   2   5    5.20    0.41
  -9   2   5    4.89    0.41
  -8   2   5    0.79    0.15
  -8   2   5    0.59    0.15
  -8   2   5    0.81    0.14
  -8   2   5    0.72    0.09
  -7   2   5    0.48    0.18
  -7   2   5    0.29    0.18
  -7   2   5    0.28    0.10
  -7   2   5    0.35    0.16
  -6   2   5    1.13    0.30
  -6   2   5    0.75    0.17
  -6   2   5    0.93    0.14
  -6   2   5    0.89    0.13
  -6   2   5    0.66    0.19
  -6   2   5    1.01    0.11
  -6   2   5    0.78    0.19
  -6   2   5    1.04    0.17
  -5   2   5    0.11    0.22
  -5   2   5    0.15    0.11
  -5   2   5    0.13    0.09
  -5   2   5    0.20    0.13
  -5   2   5    0.17    0.11
  -5   2   5    0.26    0.29
  -5   2   5    0.26    0.20
  -5   2   5    0.13    0.13
  -5   2   5    0.42    0.29
  -4   2   5    1.30    0.29
  -4   2   5    1.27    0.15
  -4   2   5    1.50    0.16
  -4   2   5    1.51    0.31
  -4   2   5    1.92    0.26
  -4   2   5    1.51    0.15
  -4   2   5    1.07    0.25
  -4   2   5    1.52    0.14
  -3   2   5   38.04    2.57
  -3   2   5   43.74    2.88
  -3   2   5   38.11    3.04
  -3   2   5   42.01    3.32
  -3   2   5   42.90    2.85
  -2   2   5   64.60    4.52
  -2   2   5   66.53    4.85
  -2   2   5   65.75    5.27
  -1   2   5    7.05    0.67
  -1   2   5    7.86    0.63
   0  -2  -5    0.57    0.24
   0  -2  -5    0.16    0.27
  -1  -2  -5    0.89    0.25
  -1  -2  -5    0.77    0.22
  -1  -2  -5    0.52    0.25
  -2  -2  -5    1.32    0.26
  -2  -2  -5    1.44    0.33
  -2  -2  -5    1.29    0.30
  -3  -2  -5   10.13    0.83
  -3  -2  -5    8.95    0.64
  -3  -2  -5    9.85    0.65
  -3  -2  -5    8.61    0.69
  -3  -2  -5   10.75    0.83
  -3  -2  -5   10.62    0.87
  -3  -2  -5    9.13    0.85
  -3  -2  -5    9.43    0.62
  -4  -2  -5   16.50    1.11
  -4  -2  -5   15.19    1.38
  -4  -2  -5   16.52    1.08
  -4  -2  -5   16.32    1.33
  -4  -2  -5   17.50    1.32
  -4  -2  -5   17.82    1.28
  -4  -2  -5   17.90    1.09
  -4  -2  -5   17.81    1.20
  -5  -2  -5   10.15    0.88
  -5  -2  -5   11.98    0.84
  -5  -2  -5   10.06    1.01
  -5  -2  -5   10.86    0.90
  -5  -2  -5   12.17    0.75
  -5  -2  -5   11.34    0.79
  -5  -2  -5   11.69    0.76
  -6  -2  -5    0.49    0.20
  -6  -2  -5    0.61    0.16
  -6  -2  -5    0.50    0.23
  -7  -2  -5    2.29    0.30
  -7  -2  -5    2.69    0.24
  -7  -2  -5    2.59    0.29
  -8  -2  -5    0.59    0.16
  -8  -2  -5    0.65    0.19
  -9  -2  -5    0.10    0.11
  -9  -2  -5    0.20    0.15
 -10   3   5    7.02    0.52
  -9   3   5    0.81    0.11
  -9   3   5    0.66    0.18
  -8   3   5    0.05    0.14
  -8   3   5   -0.10    0.17
  -8   3   5    0.04    0.09
  -7   3   5    0.65    0.12
  -7   3   5    0.36    0.17
  -7   3   5   -0.03    0.14
  -7   3   5    0.18    0.18
  -6   3   5   10.51    1.00
  -6   3   5   11.58    0.75
  -6   3   5   11.88    0.76
  -6   3   5   11.46    0.83
  -6   3   5   11.64    0.89
  -6   3   5   11.82    0.86
  -5   3   5    0.14    0.24
  -5   3   5    0.55    0.26
  -5   3   5    0.41    0.14
  -5   3   5    0.70    0.16
  -5   3   5    0.49    0.33
  -5   3   5    0.51    0.13
  -5   3   5    0.28    0.13
  -4   3   5   55.73    3.73
  -4   3   5   54.33    3.42
  -4   3   5   50.05    3.65
  -4   3   5   51.99    3.31
  -4   3   5   55.35    3.38
  -4   3   5   60.98    3.79
  -4   3   5   48.70    3.99
  -3   3   5   18.63    1.28
  -3   3   5   15.52    1.08
  -3   3   5   17.80    1.25
  -3   3   5   16.92    1.33
  -3   3   5   15.43    1.05
  -3   3   5   16.69    1.06
  -2   3   5    0.14    0.10
  -2   3   5   -0.03    0.25
  -2   3   5   -0.03    0.28
  -1  -3  -5    2.64    0.28
  -1  -3  -5    2.50    0.37
  -1  -3  -5    2.82    0.45
  -2  -3  -5    4.13    0.34
  -2  -3  -5    4.38    0.31
  -2  -3  -5    4.37    0.52
  -2  -3  -5    3.77    0.34
  -2  -3  -5    4.11    0.55
  -2  -3  -5    3.80    0.46
  -3  -3  -5   17.61    1.34
  -3  -3  -5   16.14    1.44
  -3  -3  -5   17.43    1.25
  -3  -3  -5   18.49    1.17
  -3  -3  -5   19.34    1.41
  -3  -3  -5   19.08    1.14
  -3  -3  -5   17.45    1.14
  -3  -3  -5   16.70    1.36
  -4  -3  -5   15.35    0.92
  -4  -3  -5   13.01    0.89
  -4  -3  -5   14.17    1.14
  -4  -3  -5   15.73    0.93
  -4  -3  -5   15.82    0.96
  -4  -3  -5   13.94    1.08
  -4  -3  -5   14.05    1.00
  -4  -3  -5   11.46    1.16
  -4  -3  -5   11.49    1.13
  -5  -3  -5    0.13    0.18
  -5  -3  -5    0.67    0.14
  -5  -3  -5    0.45    0.18
  -5  -3  -5    0.33    0.18
  -5  -3  -5    0.58    0.39
  -6  -3  -5    1.12    0.19
  -6  -3  -5    1.10    0.15
  -6  -3  -5    1.01    0.21
  -6  -3  -5    1.13    0.24
  -7  -3  -5    1.35    0.21
  -7  -3  -5    2.07    0.18
  -7  -3  -5    2.01    0.21
  -8  -3  -5    1.30    0.18
  -8  -3  -5    1.66    0.18
  -9   4   5    3.24    0.26
  -9   4   5    2.76    0.24
  -8   4   5    5.11    0.32
  -8   4   5    4.98    0.38
  -8   4   5    4.13    0.35
  -7   4   5    0.57    0.13
  -7   4   5    0.30    0.11
  -7   4   5    0.35    0.12
  -6   4   5   -0.14    0.14
  -6   4   5   -0.12    0.11
  -6   4   5    0.03    0.14
  -5   4   5    0.14    0.29
  -5   4   5   -0.03    0.15
  -5   4   5    0.15    0.14
  -5   4   5    0.05    0.14
  -4   4   5    4.43    0.37
  -4   4   5    3.20    0.49
  -4   4   5    4.68    0.51
  -4   4   5    3.76    0.34
  -4   4   5    4.52    0.31
  -4   4   5    4.08    0.50
  -3   4   5   12.56    1.19
  -3   4   5   13.97    1.12
  -3   4   5   14.08    0.95
  -3   4   5   15.32    0.93
  -3   4   5   15.99    1.14
  -2   4   5   62.24    3.92
   0  -4  -5    0.25    0.12
  -1  -4  -5    7.15    0.82
  -1  -4  -5    8.68    0.56
  -1  -4  -5    7.35    0.75
  -2  -4  -5    0.86    0.14
  -2  -4  -5    0.41    0.32
  -2  -4  -5    0.70    0.16
  -2  -4  -5    0.86    0.44
  -2  -4  -5    0.72    0.34
  -3  -4  -5  133.93    7.61
  -3  -4  -5  117.60    8.35
  -3  -4  -5  122.74    8.57
  -3  -4  -5  121.86    7.85
  -3  -4  -5  129.19    7.78
  -3  -4  -5  116.18    8.49
  -4  -4  -5    0.24    0.13
  -4  -4  -5    0.26    0.19
  -4  -4  -5    0.11    0.34
  -4  -4  -5   -0.14    0.20
  -4  -4  -5    0.12    0.19
  -5  -4  -5    0.00    0.17
  -5  -4  -5    0.09    0.19
  -5  -4  -5   -0.15    0.14
  -5  -4  -5   -0.05    0.12
  -6  -4  -5    0.29    0.18
  -6  -4  -5    0.19    0.19
  -6  -4  -5    0.24    0.12
  -7  -4  -5    0.01    0.10
  -7  -4  -5    0.12    0.16
  -7  -4  -5   -0.07    0.15
  -8  -4  -5   -0.01    0.14
  -9   5   5    0.21    0.11
  -8   5   5    1.46    0.16
  -8   5   5    1.52    0.17
  -7   5   5    2.60    0.28
  -7   5   5    3.47    0.25
  -6   5   5    1.43    0.17
  -6   5   5    1.18    0.19
  -6   5   5    1.52    0.15
  -5   5   5    7.40    0.56
  -5   5   5    6.99    0.51
  -5   5   5    7.84    0.54
  -4   5   5    3.24    0.46
  -4   5   5    3.74    0.29
  -4   5   5    3.80    0.36
  -4   5   5    3.39    0.33
  -4   5   5    3.93    0.33
  -3   5   5    0.15    0.12
  -3   5   5    0.17    0.14
  -3   5   5    0.21    0.25
  -2   5   5    0.39    0.31
  -2   5   5    0.01    0.11
   0  -5  -5   10.15    0.69
  -1  -5  -5    6.07    0.67
  -1  -5  -5    5.70    0.48
  -1  -5  -5    6.21    0.44
  -2  -5  -5    1.87    0.49
  -2  -5  -5    1.70    0.16
  -2  -5  -5    1.72    0.21
  -3  -5  -5   28.51    1.86
  -3  -5  -5   29.25    1.83
  -3  -5  -5   28.76    1.82
  -4  -5  -5    0.34    0.16
  -4  -5  -5    0.07    0.18
  -4  -5  -5    0.13    0.16
  -4  -5  -5    0.12    0.15
  -5  -5  -5   15.72    0.97
  -5  -5  -5   13.64    1.06
  -5  -5  -5   15.25    0.97
  -5  -5  -5   15.73    1.03
  -6  -5  -5    0.95    0.15
  -6  -5  -5    1.14    0.17
  -6  -5  -5    0.63    0.19
  -7  -5  -5    0.99    0.15
  -7  -5  -5    0.80    0.15
  -8   6   5    0.35    0.11
  -8   6   5    0.48    0.08
  -7   6   5    0.80    0.12
  -7   6   5    0.69    0.12
  -6   6   5    0.94    0.17
  -6   6   5    1.11    0.16
  -6   6   5    0.87    0.13
  -5   6   5    0.00    0.10
  -5   6   5   -0.06    0.14
  -5   6   5   -0.15    0.14
  -4   6   5    2.20    0.21
  -4   6   5    2.78    0.27
  -4   6   5    2.72    0.29
  -3   6   5    3.14    0.27
  -3   6   5    3.38    0.31
  -2   6   5    0.62    0.13
   1  -6  -5    6.52    0.47
  -1   6   5    6.03    0.45
   0  -6  -5    0.26    0.14
  -1  -6  -5    1.22    0.16
  -1  -6  -5    1.41    0.21
  -2  -6  -5    1.39    0.14
  -2  -6  -5    1.38    0.21
  -3  -6  -5    0.43    0.22
  -3  -6  -5    0.92    0.21
  -3  -6  -5    1.08    0.17
  -4  -6  -5    1.31    0.17
  -4  -6  -5    1.44    0.22
  -4  -6  -5    0.93    0.18
  -5  -6  -5    0.02    0.13
  -5  -6  -5    0.23    0.13
  -6  -6  -5    1.33    0.18
  -6  -6  -5    1.03    0.12
  -7   7   5    1.65    0.15
  -6   7   5    7.21    0.47
  -6   7   5    7.12    0.53
  -6   7   5    6.95    0.47
  -5   7   5    3.07    0.25
  -5   7   5    3.74    0.28
  -5   7   5    3.32    0.28
  -4   7   5    4.11    0.28
  -4   7   5    3.71    0.30
  -4   7   5    3.58    0.31
  -3   7   5    0.65    0.12
  -3   7   5    0.70    0.12
  -3   7   5    0.68    0.18
  -2   7   5    4.28    0.33
   1  -7  -5   11.52    0.75
  -1   7   5   10.83    0.74
   0  -7  -5    0.46    0.14
  -1  -7  -5    2.18    0.22
  -1  -7  -5    2.41    0.25
  -1  -7  -5    2.34    0.24
  -2  -7  -5    0.07    0.08
  -2  -7  -5   -0.11    0.12
  -2  -7  -5   -0.15    0.16
  -3  -7  -5    2.42    0.25
  -3  -7  -5    2.23    0.24
  -3  -7  -5    2.35    0.25
  -4  -7  -5    2.47    0.23
  -4  -7  -5    2.50    0.20
  -4  -7  -5    2.14    0.23
  -5  -7  -5    2.34    0.19
  -5  -7  -5    1.63    0.20
  -5   8   5    1.59    0.16
  -4   8   5    0.77    0.15
  -3   8   5    0.42    0.11
  -3   8   5    0.53    0.15
   2  -8  -5    1.36    0.17
  -2   8   5    1.23    0.14
   1  -8  -5    0.99    0.12
   1  -8  -5    0.80    0.14
  -1   8   5    1.14    0.14
   0  -8  -5    7.25    0.44
   0  -8  -5    5.53    0.44
  -1  -8  -5    0.29    0.08
  -1  -8  -5    0.32    0.11
  -1  -8  -5    0.24    0.11
  -2  -8  -5    0.51    0.17
  -2  -8  -5    0.61    0.16
  -3  -8  -5    0.56    0.14
  -3  -8  -5    0.88    0.16
  -3  -8  -5    0.96    0.13
  -4  -8  -5   -0.02    0.10
  -4  -8  -5    0.11    0.13
   2  -9  -5    2.40    0.21
  -2   9   5    2.67    0.20
   1  -9  -5    1.83    0.18
  -1   9   5    1.90    0.17
   0  -9  -5    0.41    0.10
   0   9   5    0.45    0.08
  -1  -9  -5    0.18    0.10
  -1 -12   6   -0.10    0.09
   0 -12   6    0.12    0.10
  -4 -11   6    0.10    0.08
  -4 -11   6    0.06    0.09
  -3 -11   6    1.21    0.13
  -3 -11   6    0.97    0.13
  -2 -11   6   -0.04    0.11
  -2 -11   6   -0.05    0.12
  -2 -11   6    0.05    0.10
  -1 -11   6    0.20    0.12
  -1 -11   6    0.12    0.13
  -1 -11   6    0.12    0.11
   0 -11   6    4.59    0.31
   0 -11   6    4.53    0.36
   1 -11   6    0.36    0.09
  -2  11  -6    0.91    0.11
   2 -11   6    0.78    0.12
  -3  11  -6    3.40    0.25
   3 -11   6    2.82    0.23
  -4  11  -6   -0.14    0.12
  -4  11  -6    0.02    0.08
  -6 -10   6    0.48    0.10
  -5 -10   6    0.13    0.11
  -5 -10   6    0.33    0.09
  -4 -10   6    0.07    0.10
  -4 -10   6    0.10    0.16
  -3 -10   6    6.51    0.46
  -3 -10   6    6.65    0.45
  -3 -10   6    6.90    0.52
  -2 -10   6    0.30    0.17
  -2 -10   6    0.01    0.12
  -2 -10   6    0.18    0.14
  -2 -10   6   -0.01    0.11
  -1 -10   6    2.41    0.21
  -1 -10   6    3.18    0.26
  -1 -10   6    2.86    0.29
   0 -10   6    2.37    0.22
   0 -10   6    2.81    0.29
   1 -10   6    5.45    0.40
  -2  10  -6    0.96    0.15
   2 -10   6    0.85    0.13
  -3  10  -6    8.12    0.57
   3 -10   6    8.69    0.57
  -4  10  -6    1.08    0.13
  -4  10  -6    0.96    0.18
  -5  10  -6    3.59    0.36
  -5  10  -6    3.82    0.31
  -6  10  -6    9.50    0.62
  -7  -9   6    0.80    0.16
  -6  -9   6    0.55    0.14
  -5  -9   6    1.39    0.14
  -5  -9   6    1.53    0.21
  -4  -9   6    1.26    0.23
  -4  -9   6    1.40    0.17
  -4  -9   6    1.58    0.14
  -4  -9   6    1.56    0.18
  -3  -9   6    3.99    0.32
  -3  -9   6    3.81    0.30
  -3  -9   6    4.20    0.42
  -3  -9   6    3.70    0.33
  -2  -9   6    0.55    0.13
  -2  -9   6    0.69    0.18
  -2  -9   6    0.60    0.21
  -2  -9   6    0.73    0.18
  -1  -9   6    1.47    0.16
  -1  -9   6    1.22    0.17
  -1  -9   6    1.42    0.16
   0  -9   6    0.57    0.15
   0  -9   6    0.48    0.13
   1  -9   6    5.13    0.38
  -2   9  -6   16.81    1.10
  -3   9  -6    0.93    0.14
  -4   9  -6    0.87    0.17
  -4   9  -6    0.61    0.11
  -5   9  -6    9.81    0.81
  -5   9  -6   11.10    0.71
  -5   9  -6   10.30    0.67
  -6   9  -6    0.04    0.13
  -6   9  -6    0.14    0.11
  -6   9  -6   -0.08    0.13
  -8  -8   6    2.39    0.19
  -7  -8   6    1.11    0.16
  -7  -8   6    1.17    0.20
  -6  -8   6    1.40    0.17
  -6  -8   6    1.23    0.21
  -6  -8   6    1.37    0.13
  -6  -8   6    0.96    0.20
  -5  -8   6    0.25    0.11
  -5  -8   6    0.72    0.21
  -5  -8   6    0.30    0.12
  -5  -8   6   -0.04    0.19
  -4  -8   6    8.14    0.59
  -4  -8   6    7.05    0.51
  -4  -8   6    7.53    0.51
  -4  -8   6    7.93    0.65
  -3  -8   6   27.99    1.82
  -3  -8   6   23.24    2.43
  -3  -8   6   30.46    2.10
  -3  -8   6   29.28    1.77
  -3  -8   6   29.20    1.94
  -2  -8   6    4.72    0.37
  -2  -8   6    4.34    0.41
  -2  -8   6    4.95    0.39
  -2  -8   6    4.12    0.59
  -2  -8   6    5.16    0.34
  -1  -8   6    7.52    0.48
  -1  -8   6    6.98    0.53
  -1  -8   6    6.66    0.81
  -1  -8   6    6.84    0.54
  -1  -8   6    6.51    0.68
   0  -8   6    1.40    0.19
   0  -8   6    1.24    0.15
   1  -8   6    0.13    0.09
  -2   8  -6    0.05    0.12
  -3   8  -6    0.14    0.12
  -4   8  -6    9.20    0.68
  -4   8  -6    9.98    0.65
  -5   8  -6    1.20    0.20
  -5   8  -6    1.06    0.11
  -6   8  -6    1.79    0.19
  -6   8  -6    1.84    0.18
  -6   8  -6    1.66    0.22
  -7   8  -6    2.53    0.29
  -7   8  -6    3.43    0.25
  -8  -7   6    2.56    0.30
  -8  -7   6    2.75    0.25
  -7  -7   6    0.51    0.15
  -7  -7   6    0.57    0.15
  -7  -7   6    0.45    0.14
  -6  -7   6    0.26    0.20
  -6  -7   6    0.51    0.21
  -6  -7   6    0.40    0.09
  -6  -7   6    0.44    0.15
  -5  -7   6    4.22    0.42
  -5  -7   6    3.41    0.37
  -5  -7   6    3.69    0.28
  -5  -7   6    3.40    0.32
  -4  -7   6    0.43    0.26
  -4  -7   6    0.88    0.11
  -4  -7   6    0.93    0.14
  -4  -7   6    1.12    0.22
  -4  -7   6    0.92    0.16
  -4  -7   6    0.77    0.19
  -4  -7   6    0.76    0.43
  -3  -7   6    9.28    0.61
  -3  -7   6    7.85    0.72
  -3  -7   6    9.18    0.60
  -3  -7   6    9.29    0.97
  -3  -7   6    9.51    0.66
  -3  -7   6    8.15    0.75
  -3  -7   6    8.34    0.83
  -3  -7   6    8.97    0.74
  -2  -7   6   71.35    5.32
  -2  -7   6   71.38    4.41
  -2  -7   6   75.69    4.96
  -2  -7   6   67.20    4.81
  -2  -7   6   70.03    5.82
  -2  -7   6   71.74    4.51
  -2  -7   6   70.20    4.98
  -2  -7   6   75.45    4.56
  -1  -7   6    6.50    0.73
  -1  -7   6    6.15    0.69
  -1  -7   6    6.82    0.60
  -1  -7   6    6.06    0.42
  -1  -7   6    5.55    0.46
  -1  -7   6    6.09    0.45
   0  -7   6    0.82    0.10
   0  -7   6    0.43    0.32
   1  -7   6    7.31    0.51
  -2   7  -6    5.02    0.38
  -3   7  -6    6.32    0.47
  -4   7  -6    1.37    0.14
  -4   7  -6    1.43    0.45
  -4   7  -6    1.36    0.18
  -5   7  -6    0.91    0.11
  -5   7  -6    0.77    0.16
  -5   7  -6    1.02    0.18
  -6   7  -6    0.46    0.13
  -6   7  -6    0.92    0.25
  -6   7  -6    0.52    0.14
  -7   7  -6    0.28    0.13
  -7   7  -6    0.37    0.10
  -7   7  -6    0.26    0.22
  -8   7  -6    0.87    0.12
  -8   7  -6    0.79    0.14
  -9  -6   6    3.47    0.28
  -8  -6   6    0.60    0.14
  -8  -6   6    0.70    0.18
  -8  -6   6    0.56    0.12
  -7  -6   6    0.85    0.18
  -7  -6   6    1.23    0.22
  -7  -6   6    1.14    0.18
  -6  -6   6    1.26    0.18
  -6  -6   6    0.84    0.17
  -6  -6   6    1.14    0.12
  -6  -6   6    1.43    0.24
  -5  -6   6    2.36    0.28
  -5  -6   6    2.30    0.21
  -5  -6   6    1.58    0.39
  -5  -6   6    2.41    0.26
  -5  -6   6    1.82    0.36
  -5  -6   6    2.49    0.26
  -4  -6   6    0.36    0.10
  -4  -6   6    0.38    0.19
  -4  -6   6    0.33    0.29
  -4  -6   6    0.42    0.14
  -4  -6   6    0.53    0.25
  -4  -6   6    0.58    0.17
  -4  -6   6    0.59    0.11
  -4  -6   6    0.45    0.14
  -4  -6   6   -0.21    0.35
  -3  -6   6   16.06    1.18
  -3  -6   6   18.00    1.28
  -3  -6   6   19.53    1.55
  -3  -6   6   18.06    1.36
  -3  -6   6   16.48    1.08
  -3  -6   6   15.87    1.11
  -3  -6   6   16.47    1.27
  -3  -6   6   17.60    1.25
  -3  -6   6   17.17    1.11
  -2  -6   6    0.78    0.20
  -2  -6   6    0.76    0.11
  -2  -6   6    1.58    0.35
  -2  -6   6    1.14    0.14
  -2  -6   6    0.76    0.27
  -2  -6   6    0.78    0.32
  -2  -6   6    0.84    0.09
  -2  -6   6    1.07    0.17
  -1  -6   6    8.50    0.59
  -1  -6   6    8.54    0.61
  -1  -6   6   10.17    0.91
  -1  -6   6    9.81    0.81
  -1  -6   6    9.69    0.76
   0  -6   6   13.38    0.88
   0  -6   6   14.31    1.17
  -2   6  -6    5.72    0.43
  -3   6  -6   10.41    0.69
  -4   6  -6    0.26    0.41
  -4   6  -6    0.30    0.13
  -4   6  -6    0.05    0.27
  -4   6  -6    0.28    0.12
  -4   6  -6   -0.11    0.23
  -5   6  -6    9.87    0.68
  -5   6  -6    9.20    0.63
  -5   6  -6   10.23    0.65
  -5   6  -6    8.03    0.95
  -6   6  -6    3.21    0.35
  -6   6  -6    2.58    0.26
  -6   6  -6    2.16    0.23
  -7   6  -6    0.81    0.27
  -7   6  -6    0.98    0.13
  -7   6  -6    0.98    0.14
  -8   6  -6    0.35    0.15
  -8   6  -6    0.38    0.12
  -9  -5   6    1.97    0.22
  -9  -5   6    2.13    0.23
  -8  -5   6    1.54    0.19
  -8  -5   6    1.45    0.16
  -8  -5   6    1.23    0.18
  -7  -5   6    4.62    0.37
  -7  -5   6    3.91    0.38
  -7  -5   6    3.90    0.36
  -6  -5   6   10.76    0.67
  -6  -5   6   10.16    0.73
  -6  -5   6   10.27    0.82
  -6  -5   6   12.06    0.79
  -6  -5   6    9.21    1.06
  -5  -5   6    6.53    0.51
  -5  -5   6    6.12    0.56
  -5  -5   6    6.30    0.49
  -5  -5   6    5.59    0.75
  -5  -5   6    6.45    0.43
  -4  -5   6    0.14    0.08
  -4  -5   6    0.10    0.10
  -4  -5   6   -0.03    0.23
  -4  -5   6   -0.01    0.16
  -4  -5   6   -0.03    0.17
  -4  -5   6    0.42    0.34
  -4  -5   6   -0.06    0.20
  -4  -5   6    0.20    0.11
  -4  -5   6    0.25    0.15
  -3  -5   6   21.49    1.51
  -3  -5   6   21.77    1.48
  -3  -5   6   20.00    1.32
  -3  -5   6   21.83    1.53
  -3  -5   6   18.47    1.29
  -3  -5   6   20.79    1.28
  -3  -5   6   21.89    1.59
  -3  -5   6   19.94    1.40
  -3  -5   6   22.22    1.79
  -3  -5   6   18.39    1.32
  -2  -5   6    9.38    0.85
  -2  -5   6    8.16    0.57
  -2  -5   6    9.39    0.77
  -2  -5   6    7.68    0.55
  -2  -5   6    8.99    0.69
  -1  -5   6   16.30    1.19
  -1  -5   6   16.59    1.30
  -1  -5   6   15.36    1.40
   0  -5   6   -0.05    0.25
   0  -5   6   -0.09    0.16
  -2   5  -6    9.25    0.62
  -3   5  -6    0.33    0.26
  -3   5  -6    0.43    0.14
  -3   5  -6    0.35    0.12
  -3   5  -6    0.95    0.35
  -3   5  -6    0.50    0.26
  -4   5  -6   52.44    3.37
  -4   5  -6   45.34    3.51
  -4   5  -6   44.13    2.97
  -4   5  -6   43.92    3.27
  -4   5  -6   48.86    2.94
  -4   5  -6   45.26    2.88
  -5   5  -6    5.63    0.40
  -5   5  -6    5.52    0.42
  -5   5  -6    5.83    0.71
  -5   5  -6    5.89    0.57
  -5   5  -6    5.93    0.46
  -6   5  -6    4.42    0.50
  -6   5  -6    3.80    0.36
  -6   5  -6    4.12    0.33
  -7   5  -6    0.81    0.14
  -7   5  -6    0.62    0.27
  -7   5  -6    0.77    0.15
  -8   5  -6    0.66    0.18
  -8   5  -6    0.56    0.12
  -8   5  -6    0.37    0.12
  -9   5  -6    0.53    0.13
 -10  -4   6    1.91    0.20
 -10  -4   6    1.09    0.15
  -9  -4   6   -0.33    0.17
  -9  -4   6    0.01    0.17
  -8  -4   6    0.68    0.21
  -8  -4   6    0.64    0.17
  -8  -4   6    0.78    0.21
  -7  -4   6    1.50    0.24
  -7  -4   6    1.67    0.25
  -7  -4   6    1.35    0.18
  -7  -4   6    1.60    0.21
  -6  -4   6    0.82    0.39
  -6  -4   6    1.05    0.15
  -6  -4   6    1.04    0.10
  -6  -4   6    0.99    0.17
  -6  -4   6    1.00    0.22
  -6  -4   6    0.87    0.20
  -5  -4   6    0.41    0.13
  -5  -4   6    0.37    0.35
  -5  -4   6    0.48    0.16
  -5  -4   6    0.40    0.12
  -5  -4   6    0.32    0.10
  -5  -4   6    0.30    0.17
  -4  -4   6   22.50    1.68
  -4  -4   6   27.24    2.10
  -4  -4   6   25.15    1.52
  -4  -4   6   25.17    1.85
  -4  -4   6   23.74    1.58
  -4  -4   6   23.11    1.56
  -4  -4   6   24.61    1.72
  -4  -4   6   24.25    1.67
  -4  -4   6   25.68    1.81
  -3  -4   6    4.90    0.35
  -3  -4   6    7.19    0.64
  -3  -4   6    5.06    0.39
  -3  -4   6    5.73    0.49
  -3  -4   6    5.49    0.47
  -3  -4   6    5.24    0.38
  -3  -4   6    6.54    0.56
  -2  -4   6    0.04    0.20
  -2  -4   6    0.29    0.23
  -2  -4   6    0.45    0.18
  -1  -4   6    0.21    0.23
  -1  -4   6    0.13    0.18
  -1  -4   6   -0.17    0.20
   0  -4   6    0.23    0.23
   0  -4   6    0.23    0.19
  -2   4  -6   23.76    1.73
  -2   4  -6   24.23    1.86
  -3   4  -6   11.17    0.73
  -3   4  -6   11.09    0.92
  -3   4  -6   10.36    0.76
  -3   4  -6   12.52    1.01
  -3   4  -6   11.64    0.98
  -4   4  -6    0.12    0.14
  -4   4  -6    0.17    0.30
  -4   4  -6    0.13    0.14
  -4   4  -6    0.06    0.36
  -4   4  -6   -0.03    0.08
  -4   4  -6    0.19    0.28
  -5   4  -6    0.22    0.23
  -5   4  -6   -0.10    0.08
  -5   4  -6   -0.25    0.29
  -5   4  -6   -0.10    0.15
  -5   4  -6   -0.10    0.43
  -5   4  -6    0.06    0.12
  -5   4  -6   -0.69    0.32
  -6   4  -6   30.29    2.16
  -6   4  -6   28.01    1.85
  -6   4  -6   28.25    1.80
  -7   4  -6    1.67    0.25
  -7   4  -6    1.27    0.19
  -7   4  -6    1.84    0.18
  -7   4  -6    1.51    0.17
  -8   4  -6    6.87    0.46
  -8   4  -6    6.27    0.54
  -8   4  -6    7.73    0.63
  -9   4  -6    0.27    0.14
 -10  -3   6    0.67    0.11
  -9  -3   6   -0.04    0.13
  -9  -3   6   -0.25    0.13
  -9  -3   6   -0.07    0.13
  -8  -3   6    3.72    0.40
  -8  -3   6    4.04    0.42
  -8  -3   6    4.15    0.36
  -7  -3   6    0.23    0.16
  -7  -3   6    0.26    0.15
  -7  -3   6   -0.06    0.19
  -7  -3   6    0.18    0.20
  -7  -3   6    0.62    0.42
  -6  -3   6    2.39    0.26
  -6  -3   6    1.96    0.45
  -6  -3   6    2.38    0.26
  -6  -3   6    1.81    0.24
  -6  -3   6    2.23    0.26
  -5  -3   6   12.41    1.20
  -5  -3   6   12.34    0.81
  -5  -3   6   12.89    0.91
  -5  -3   6   13.18    0.99
  -5  -3   6   13.41    0.86
  -5  -3   6   13.04    0.93
  -4  -3   6    0.38    0.11
  -4  -3   6    0.02    0.26
  -4  -3   6    0.25    0.08
  -4  -3   6   -0.08    0.14
  -4  -3   6    0.29    0.16
  -4  -3   6    0.32    0.14
  -4  -3   6    0.20    0.13
  -4  -3   6    0.08    0.10
  -4  -3   6    0.23    0.21
  -3  -3   6   11.24    0.84
  -3  -3   6   10.98    1.02
  -3  -3   6   11.04    0.89
  -2  -3   6  114.25    9.16
  -2  -3   6  115.62    7.81
  -2  -3   6  112.90    8.37
  -1  -3   6    9.39    0.79
  -1  -3   6    8.75    0.85
  -1  -3   6    9.66    0.73
   0  -3   6    3.36    0.38
   0  -3   6    4.11    0.44
   0  -3   6    4.00    0.44
   0  -3   6    2.82    0.36
  -1   3  -6    1.95    0.32
  -1   3  -6    2.18    0.31
  -2   3  -6    0.77    0.26
  -2   3  -6    0.77    0.27
  -2   3  -6    0.36    0.21
  -3   3  -6    0.89    0.29
  -3   3  -6    0.55    0.28
  -3   3  -6    0.82    0.13
  -3   3  -6    0.64    0.31
  -4   3  -6    4.92    0.35
  -4   3  -6    4.73    0.48
  -4   3  -6    5.12    0.57
  -4   3  -6    4.80    0.36
  -4   3  -6    5.30    0.59
  -4   3  -6    4.52    0.57
  -4   3  -6    4.75    0.40
  -5   3  -6   10.61    0.92
  -5   3  -6   11.74    0.92
  -5   3  -6   10.71    0.72
  -5   3  -6   11.31    0.75
  -5   3  -6   10.42    0.97
  -5   3  -6   12.21    0.77
  -5   3  -6   12.34    1.11
  -6   3  -6    0.87    0.27
  -6   3  -6    0.44    0.14
  -6   3  -6    0.48    0.16
  -6   3  -6    0.14    0.48
  -7   3  -6   23.72    1.45
  -7   3  -6   22.53    1.64
  -7   3  -6   22.98    1.73
  -8   3  -6    6.17    0.57
  -8   3  -6    8.28    0.51
  -8   3  -6    9.26    0.68
  -9   3  -6    0.38    0.15
  -9   3  -6    0.41    0.10
 -10  -2   6    0.21    0.09
 -10  -2   6    0.20    0.15
  -9  -2   6    0.26    0.18
  -9  -2   6    0.14    0.11
  -9  -2   6   -0.24    0.18
  -8  -2   6   -0.06    0.13
  -8  -2   6    0.26    0.17
  -8  -2   6    0.25    0.14
  -7  -2   6    1.36    0.43
  -7  -2   6    1.47    0.23
  -7  -2   6    1.76    0.21
  -7  -2   6    1.47    0.23
  -6  -2   6   10.61    0.70
  -6  -2   6   10.85    0.80
  -6  -2   6   11.46    0.77
  -6  -2   6   11.53    0.81
  -6  -2   6   10.89    1.08
  -6  -2   6   11.12    0.87
  -5  -2   6    3.64    0.30
  -5  -2   6    3.44    0.31
  -5  -2   6    3.87    0.30
  -5  -2   6    4.41    0.56
  -5  -2   6    3.41    0.25
  -5  -2   6    3.54    0.36
  -5  -2   6    3.11    0.24
  -5  -2   6    3.43    0.32
  -5  -2   6    3.54    0.34
  -4  -2   6    0.00    0.23
  -4  -2   6    0.19    0.13
  -4  -2   6   -0.02    0.10
  -4  -2   6    0.08    0.08
  -4  -2   6    0.10    0.13
  -4  -2   6    0.17    0.17
  -4  -2   6    0.08    0.12
  -4  -2   6    0.20    0.19
  -4  -2   6    0.20    0.11
  -3  -2   6    5.97    0.51
  -3  -2   6    6.08    0.57
  -3  -2   6    6.51    0.65
  -2  -2   6    4.20    0.42
  -2  -2   6    4.16    0.45
  -2  -2   6    4.40    0.50
  -1  -2   6   29.82    2.11
  -1  -2   6   30.97    2.26
  -1  -2   6   29.48    2.47
   0   2  -6   17.58    1.25
   0  -2   6   14.63    1.22
   0  -2   6   18.57    1.33
   0  -2   6   18.09    1.25
   0  -2   6   16.51    1.43
  -1   2  -6   10.80    0.89
  -1   2  -6   12.59    0.90
  -1   2  -6   10.72    0.93
   1  -2   6   10.36    0.96
  -2   2  -6   11.53    0.95
  -2   2  -6   12.12    1.00
  -2   2  -6   11.67    0.94
  -3   2  -6    7.34    0.74
  -3   2  -6    7.48    0.52
  -3   2  -6    7.51    0.71
  -3   2  -6    8.09    0.73
  -4   2  -6    9.45    0.68
  -4   2  -6    9.61    0.83
  -4   2  -6    9.18    0.86
  -4   2  -6    9.57    0.65
  -4   2  -6    9.69    0.63
  -4   2  -6   10.61    0.95
  -4   2  -6    9.69    0.78
  -5   2  -6    6.24    0.42
  -5   2  -6    6.30    0.76
  -5   2  -6    6.29    0.50
  -5   2  -6    6.80    0.48
  -5   2  -6    6.75    0.53
  -5   2  -6    7.47    0.61
  -5   2  -6    6.64    0.66
  -6   2  -6    3.32    0.30
  -6   2  -6    2.82    0.34
  -6   2  -6    3.15    0.34
  -6   2  -6    3.53    0.44
  -6   2  -6    2.55    0.55
  -6   2  -6    3.05    0.31
  -7   2  -6    0.63    0.16
  -7   2  -6    0.58    0.28
  -7   2  -6    0.47    0.18
  -7   2  -6    0.71    0.20
  -8   2  -6    0.74    0.19
  -8   2  -6    0.79    0.16
  -8   2  -6    0.96    0.27
  -8   2  -6    0.81    0.13
  -9   2  -6    0.30    0.16
  -9   2  -6    0.20    0.14
 -10  -1   6    0.63    0.12
 -10  -1   6    0.64    0.10
  -9  -1   6    7.85    0.56
  -9  -1   6    6.70    0.57
  -8  -1   6    4.92    0.41
  -8  -1   6    5.02    0.44
  -8  -1   6    5.91    0.45
  -8  -1   6    4.57    0.42
  -7  -1   6   -0.06    0.14
  -7  -1   6    0.17    0.17
  -7  -1   6    0.05    0.18
  -7  -1   6    0.11    0.18
  -7  -1   6    0.06    0.37
  -7  -1   6    0.10    0.06
  -6  -1   6    7.83    0.85
  -6  -1   6    8.04    0.51
  -6  -1   6    8.60    0.61
  -6  -1   6    6.91    0.59
  -6  -1   6    7.72    0.60
  -6  -1   6    8.06    0.65
  -5  -1   6    6.50    0.60
  -5  -1   6    7.61    0.56
  -5  -1   6    6.38    0.54
  -5  -1   6    7.12    0.55
  -5  -1   6    7.75    0.55
  -5  -1   6    7.25    0.48
  -5  -1   6    7.76    0.59
  -5  -1   6    8.35    0.79
  -4  -1   6    0.97    0.11
  -4  -1   6    0.95    0.12
  -4  -1   6    1.11    0.15
  -4  -1   6    0.67    0.20
  -4  -1   6    0.88    0.14
  -4  -1   6    0.76    0.28
  -4  -1   6    1.16    0.16
  -4  -1   6    0.88    0.23
  -4  -1   6    0.96    0.21
  -3  -1   6   17.28    1.17
  -3  -1   6   16.37    1.38
  -3  -1   6   14.64    1.16
  -3  -1   6   15.73    1.24
  -2  -1   6    8.24    0.76
  -2  -1   6    9.99    0.71
  -2  -1   6    8.66    0.82
  -1  -1   6    0.19    0.21
  -1  -1   6    0.19    0.19
  -1  -1   6    0.05    0.15
  -1  -1   6    0.12    0.17
   0   1  -6    1.86    0.25
   0  -1   6    2.09    0.27
   0  -1   6    2.17    0.29
   0  -1   6    2.18    0.28
  -1   1  -6   88.72    6.61
  -1   1  -6   92.61    6.22
   1  -1   6   88.03    7.18
  -2   1  -6    2.41    0.38
  -2   1  -6    1.75    0.36
  -2   1  -6    2.80    0.33
  -3   1  -6   76.98    5.67
  -3   1  -6   86.48    5.74
  -3   1  -6   79.92    5.17
  -3   1  -6   85.72    6.08
  -4   1  -6   -0.13    0.16
  -4   1  -6    0.07    0.32
  -4   1  -6    0.06    0.08
  -4   1  -6    0.26    0.31
  -4   1  -6    0.37    0.19
  -5   1  -6   -0.07    0.16
  -5   1  -6    0.17    0.13
  -5   1  -6    0.19    0.21
  -5   1  -6   -0.05    0.29
  -5   1  -6    0.09    0.16
  -5   1  -6   -0.11    0.49
  -5   1  -6   -0.23    0.28
  -6   1  -6    0.44    0.18
  -6   1  -6    0.62    0.25
  -6   1  -6    0.45    0.19
  -6   1  -6    0.86    0.14
  -6   1  -6    0.80    0.45
  -6   1  -6    0.61    0.19
  -7   1  -6    8.63    0.64
  -7   1  -6    6.75    0.63
  -7   1  -6    8.64    0.55
  -7   1  -6    8.02    0.70
  -8   1  -6    0.65    0.12
  -8   1  -6    0.39    0.25
  -8   1  -6    0.47    0.19
  -8   1  -6    0.66    0.18
  -9   1  -6    2.06    0.24
 -10   0   6    0.43    0.11
 -10   0   6    0.22    0.08
  -9   0   6    1.37    0.18
  -9   0   6    0.93    0.19
  -9   0   6    0.84    0.20
  -8   0   6    4.08    0.42
  -8   0   6    4.65    0.40
  -8   0   6    3.82    0.39
  -7   0   6    2.96    0.48
  -7   0   6    3.75    0.26
  -7   0   6    3.84    0.37
  -7   0   6    3.47    0.35
  -7   0   6    3.37    0.38
  -7   0   6    3.96    0.39
  -6   0   6    0.55    0.18
  -6   0   6    0.28    0.15
  -6   0   6    0.42    0.10
  -6   0   6    0.27    0.16
  -6   0   6    0.48    0.36
  -6   0   6    0.28    0.17
  -5   0   6    1.93    0.28
  -5   0   6    2.18    0.25
  -5   0   6    2.06    0.22
  -5   0   6    1.87    0.38
  -5   0   6    2.17    0.20
  -5   0   6    1.74    0.25
  -5   0   6    2.36    0.26
  -5   0   6    2.16    0.23
  -5   0   6    2.33    0.20
  -5   0   6    1.85    0.32
  -4   0   6    5.60    0.41
  -4   0   6    5.79    0.46
  -4   0   6    7.10    0.52
  -4   0   6    5.86    0.45
  -4   0   6    5.12    0.37
  -4   0   6    6.07    0.53
  -4   0   6    6.81    0.65
  -4   0   6    4.99    0.47
  -4   0   6    6.34    0.52
  -3   0   6    3.25    0.37
  -3   0   6    2.91    0.39
  -3   0   6    3.60    0.37
  -3   0   6    2.89    0.40
  -2   0   6    4.97    0.53
  -2   0   6    5.05    0.47
  -2   0   6    4.95    0.51
  -1   0   6   55.92    4.11
  -1   0   6   52.97    4.46
  -1   0   6   57.52    3.83
   0   0   6    0.58    0.23
   0   0   6    0.75    0.16
   0   0   6    0.81    0.21
  -1   0  -6    3.65    0.48
  -1   0  -6    3.63    0.42
  -2   0  -6    0.53    0.31
  -2   0  -6    0.19    0.27
  -3   0  -6    0.02    0.10
  -3   0  -6   -0.38    0.32
  -3   0  -6   -0.03    0.14
  -3   0  -6   -0.39    0.34
  -3   0  -6   -0.24    0.14
  -3   0  -6   -0.05    0.25
  -4   0  -6   11.36    0.76
  -4   0  -6   10.80    0.91
  -4   0  -6   12.11    0.79
  -4   0  -6   10.95    0.94
  -4   0  -6   10.92    1.02
  -4   0  -6   13.08    1.06
  -4   0  -6   12.25    0.75
  -5   0  -6   31.21    2.02
  -5   0  -6   35.64    2.23
  -5   0  -6   32.26    2.40
  -5   0  -6   34.26    2.08
  -5   0  -6   30.28    2.39
  -5   0  -6   29.58    2.29
  -6   0  -6    0.10    0.18
  -6   0  -6   -0.02    0.23
  -6   0  -6    0.04    0.17
  -6   0  -6    0.05    0.19
  -6   0  -6    0.04    0.10
  -7   0  -6    0.58    0.16
  -7   0  -6    0.76    0.26
  -7   0  -6    0.79    0.15
  -7   0  -6    0.91    0.21
  -8   0  -6    0.28    0.16
  -8   0  -6    0.04    0.18
  -8   0  -6    0.31    0.09
  -9   0  -6    0.24    0.13
  -9   0  -6    0.23    0.17
 -10   1   6    2.06    0.18
  -9   1   6   -0.14    0.15
  -9   1   6   -0.04    0.17
  -9   1   6   -0.04    0.11
  -8   1   6    0.26    0.17
  -8   1   6    0.11    0.18
  -8   1   6   -0.04    0.12
  -7   1   6    1.96    0.24
  -7   1   6    2.47    0.25
  -7   1   6    2.08    0.23
  -7   1   6    2.24    0.20
  -6   1   6   94.76    7.88
  -6   1   6   88.16    6.65
  -6   1   6  108.23    6.75
  -6   1   6  103.04    6.62
  -6   1   6   90.75    6.18
  -6   1   6   90.58    6.76
  -6   1   6  107.08    6.00
  -5   1   6    1.36    0.26
  -5   1   6    1.14    0.32
  -5   1   6    0.98    0.13
  -5   1   6    0.91    0.22
  -5   1   6    0.90    0.32
  -5   1   6    0.90    0.16
  -5   1   6    0.87    0.16
  -5   1   6    1.00    0.13
  -5   1   6    0.62    0.14
  -4   1   6   23.95    1.53
  -4   1   6   24.83    1.70
  -4   1   6   24.15    1.58
  -4   1   6   26.67    1.80
  -4   1   6   25.61    2.08
  -4   1   6   25.12    1.76
  -4   1   6   23.27    1.56
  -4   1   6   24.80    1.88
  -3   1   6    1.97    0.20
  -3   1   6    1.89    0.32
  -3   1   6    1.87    0.17
  -3   1   6    2.18    0.33
  -3   1   6    1.69    0.21
  -3   1   6    2.23    0.33
  -3   1   6    1.84    0.28
  -2   1   6    1.59    0.29
  -2   1   6    1.86    0.27
  -2   1   6    1.85    0.29
  -1   1   6    4.14    0.43
  -1   1   6    3.46    0.42
  -1  -1  -6    2.36    0.39
  -1  -1  -6    2.42    0.36
  -2  -1  -6    3.74    0.47
  -2  -1  -6    2.99    0.40
  -2  -1  -6    2.63    0.41
  -2  -1  -6    3.37    0.27
  -3  -1  -6   -0.06    0.29
  -3  -1  -6   -0.05    0.10
  -3  -1  -6    0.03    0.15
  -3  -1  -6    0.30    0.36
  -3  -1  -6    0.30    0.20
  -3  -1  -6   -0.19    0.34
  -4  -1  -6    6.16    0.48
  -4  -1  -6    4.91    0.65
  -4  -1  -6    5.09    0.63
  -4  -1  -6    6.19    0.53
  -4  -1  -6    6.27    0.69
  -4  -1  -6    5.77    0.46
  -4  -1  -6    6.24    0.40
  -5  -1  -6    0.74    0.20
  -5  -1  -6    0.55    0.41
  -5  -1  -6    1.14    0.16
  -5  -1  -6    0.97    0.20
  -5  -1  -6    1.28    0.21
  -5  -1  -6    1.09    0.23
  -6  -1  -6    7.00    0.50
  -6  -1  -6    6.88    0.61
  -6  -1  -6    6.62    0.58
  -6  -1  -6    6.90    0.46
  -7  -1  -6    5.22    0.39
  -7  -1  -6    6.20    0.50
  -7  -1  -6    5.29    0.51
  -8  -1  -6    0.22    0.14
  -8  -1  -6    0.28    0.13
  -9  -1  -6   -0.02    0.12
 -10   2   6    0.50    0.10
  -9   2   6    0.10    0.11
  -9   2   6   -0.04    0.13
  -8   2   6   10.04    0.73
  -8   2   6   10.86    0.76
  -8   2   6    9.20    0.76
  -8   2   6    9.96    0.62
  -7   2   6    0.84    0.12
  -7   2   6    0.69    0.19
  -7   2   6    0.71    0.17
  -7   2   6    1.06    0.20
  -6   2   6    5.67    0.50
  -6   2   6    6.15    0.42
  -6   2   6    5.75    0.48
  -6   2   6    6.02    0.41
  -6   2   6    5.15    0.63
  -6   2   6    6.64    0.52
  -5   2   6    6.27    0.47
  -5   2   6    5.15    0.52
  -5   2   6    4.84    0.65
  -5   2   6    5.49    0.41
  -5   2   6    4.97    0.54
  -5   2   6    5.86    0.58
  -5   2   6    5.48    0.38
  -5   2   6    5.21    0.44
  -4   2   6    9.84    0.64
  -4   2   6    9.87    0.63
  -4   2   6    9.52    0.66
  -4   2   6    9.47    0.71
  -4   2   6   10.17    0.81
  -4   2   6   10.51    0.94
  -4   2   6    9.21    0.83
  -4   2   6   10.46    0.82
  -3   2   6   29.06    1.83
  -3   2   6   26.21    1.97
  -3   2   6   30.79    2.40
  -3   2   6   31.00    2.10
  -3   2   6   30.28    2.06
  -3   2   6   28.45    1.86
  -3   2   6   29.38    2.21
  -3   2   6   27.41    1.79
  -2   2   6   80.36    5.25
  -2   2   6   82.38    6.15
  -2   2   6   87.74    5.75
  -1   2   6    0.46    0.29
  -1  -2  -6    8.75    0.79
  -1  -2  -6    9.40    0.61
  -1  -2  -6    7.46    0.83
  -2  -2  -6    1.06    0.13
  -2  -2  -6    1.09    0.34
  -2  -2  -6    1.14    0.33
  -2  -2  -6    1.03    0.19
  -3  -2  -6    8.17    0.89
  -3  -2  -6   10.47    0.89
  -3  -2  -6    8.72    0.87
  -3  -2  -6    9.62    0.66
  -3  -2  -6    9.45    0.65
  -3  -2  -6   10.22    0.73
  -3  -2  -6    9.52    0.64
  -3  -2  -6    9.93    0.84
  -4  -2  -6    8.84    1.01
  -4  -2  -6   10.78    0.92
  -4  -2  -6   10.64    0.98
  -4  -2  -6   12.30    0.84
  -4  -2  -6   11.36    0.75
  -4  -2  -6   11.73    0.73
  -4  -2  -6   11.81    0.78
  -5  -2  -6    4.18    0.42
  -5  -2  -6    4.29    0.34
  -5  -2  -6    3.57    0.35
  -5  -2  -6    4.13    0.33
  -6  -2  -6    3.74    0.44
  -6  -2  -6    4.91    0.37
  -6  -2  -6    4.93    0.45
  -7  -2  -6    1.80    0.25
  -7  -2  -6    1.41    0.24
  -7  -2  -6    2.16    0.20
  -8  -2  -6   -0.05    0.16
  -8  -2  -6   -0.04    0.11
  -9   3   6    0.19    0.14
  -9   3   6   -0.08    0.10
  -8   3   6    0.59    0.18
  -8   3   6    0.82    0.10
  -8   3   6    0.55    0.14
  -7   3   6    0.00    0.13
  -7   3   6    0.23    0.12
  -7   3   6    0.10    0.16
  -6   3   6    2.35    0.21
  -6   3   6    1.66    0.23
  -6   3   6    2.09    0.20
  -5   3   6    2.92    0.41
  -5   3   6    2.87    0.28
  -5   3   6    2.52    0.28
  -5   3   6    3.42    0.34
  -5   3   6    2.49    0.28
  -4   3   6    0.19    0.27
  -4   3   6    0.23    0.15
  -4   3   6    0.26    0.29
  -4   3   6    0.36    0.12
  -4   3   6    0.24    0.31
  -4   3   6    0.19    0.08
  -3   3   6    9.54    0.93
  -3   3   6   11.12    0.89
  -3   3   6    9.89    0.88
  -3   3   6   10.73    0.73
  -3   3   6   11.59    0.71
  -2   3   6    2.27    0.22
  -2   3   6    1.25    0.38
  -2   3   6    1.63    0.31
  -1   3   6   21.27    1.36
  -1  -3  -6   -0.13    0.12
  -2  -3  -6    2.43    0.29
  -2  -3  -6    2.62    0.44
  -2  -3  -6    2.27    0.50
  -2  -3  -6    2.88    0.27
  -2  -3  -6    3.37    0.29
  -3  -3  -6    8.54    0.62
  -3  -3  -6    5.94    0.77
  -3  -3  -6    8.46    0.65
  -3  -3  -6    8.18    0.63
  -3  -3  -6    8.01    0.80
  -3  -3  -6   10.00    0.59
  -4  -3  -6    0.39    0.18
  -4  -3  -6    0.38    0.21
  -4  -3  -6    0.47    0.17
  -4  -3  -6    0.41    0.17
  -4  -3  -6   -0.04    0.36
  -5  -3  -6    9.32    0.69
  -5  -3  -6    9.18    0.60
  -5  -3  -6    9.09    0.62
  -5  -3  -6    7.84    0.64
  -6  -3  -6    1.07    0.18
  -6  -3  -6    0.81    0.21
  -6  -3  -6    0.82    0.15
  -7  -3  -6    1.04    0.19
  -7  -3  -6    0.79    0.13
  -8  -3  -6    0.90    0.15
  -9   4   6    5.24    0.40
  -8   4   6    0.47    0.10
  -8   4   6    0.19    0.11
  -7   4   6    0.17    0.11
  -7   4   6   -0.09    0.13
  -6   4   6    5.46    0.39
  -6   4   6    5.47    0.39
  -6   4   6    5.69    0.47
  -5   4   6   -0.02    0.12
  -5   4   6   -0.23    0.13
  -5   4   6   -0.11    0.15
  -4   4   6    1.86    0.19
  -4   4   6    1.74    0.20
  -4   4   6    1.95    0.22
  -4   4   6    1.59    0.35
  -3   4   6    2.18    0.44
  -3   4   6    3.22    0.45
  -3   4   6    3.02    0.26
  -3   4   6    3.60    0.30
  -2   4   6    2.28    0.25
  -1   4   6    8.53    0.58
   0  -4  -6    1.01    0.19
  -1  -4  -6   24.03    1.54
  -2  -4  -6    1.99    0.22
  -2  -4  -6    2.27    0.47
  -2  -4  -6    1.86    0.25
  -2  -4  -6    1.41    0.41
  -3  -4  -6    4.75    0.34
  -3  -4  -6    4.58    0.41
  -3  -4  -6    4.70    0.43
  -3  -4  -6    4.84    0.44
  -4  -4  -6    1.02    0.19
  -4  -4  -6    0.74    0.18
  -4  -4  -6    1.02    0.21
  -4  -4  -6    0.88    0.19
  -5  -4  -6   -0.11    0.15
  -5  -4  -6    0.00    0.11
  -5  -4  -6   -0.01    0.17
  -5  -4  -6    0.07    0.18
  -6  -4  -6    0.01    0.17
  -6  -4  -6    0.29    0.12
  -6  -4  -6    0.17    0.16
  -7  -4  -6    1.40    0.12
  -7  -4  -6    1.39    0.18
  -8   5   6    4.33    0.34
  -8   5   6    4.05    0.27
  -7   5   6   10.20    0.68
  -7   5   6   11.11    0.78
  -6   5   6    0.15    0.13
  -6   5   6    0.17    0.10
  -6   5   6    0.26    0.15
  -5   5   6    0.00    0.15
  -5   5   6    0.14    0.16
  -5   5   6    0.01    0.14
  -4   5   6    1.36    0.19
  -4   5   6    1.41    0.14
  -4   5   6    1.81    0.21
  -3   5   6    0.78    0.17
  -3   5   6    0.67    0.14
  -2   5   6    0.28    0.28
  -2   5   6    0.43    0.14
  -1   5   6   12.50    0.83
   0  -5  -6    3.52    0.36
  -1  -5  -6    0.28    0.16
  -2  -5  -6   -0.06    0.21
  -2  -5  -6    0.06    0.13
  -3  -5  -6   23.12    1.50
  -3  -5  -6   25.67    1.54
  -3  -5  -6   24.02    1.56
  -3  -5  -6   21.99    1.49
  -4  -5  -6   16.86    1.14
  -4  -5  -6   17.32    1.11
  -4  -5  -6   16.73    1.08
  -5  -5  -6    3.18    0.31
  -5  -5  -6    3.44    0.31
  -5  -5  -6    3.73    0.34
  -6  -5  -6    0.88    0.16
  -6  -5  -6    1.19    0.17
  -6  -5  -6    1.37    0.14
  -7   6   6    0.42    0.12
  -7   6   6    0.61    0.13
  -6   6   6    4.85    0.41
  -6   6   6    5.44    0.37
  -6   6   6    5.52    0.36
  -5   6   6   18.26    1.25
  -5   6   6   17.72    1.14
  -5   6   6   16.83    1.11
  -4   6   6    0.11    0.14
  -4   6   6   -0.03    0.15
  -4   6   6    0.09    0.08
  -3   6   6    0.07    0.16
  -3   6   6    0.17    0.10
  -2   6   6    0.01    0.12
   1  -6  -6    3.57    0.36
  -1   6   6    4.64    0.33
   0  -6  -6    4.92    0.39
  -1  -6  -6    0.72    0.19
  -1  -6  -6    0.37    0.13
  -2  -6  -6    4.91    0.43
  -2  -6  -6    5.00    0.42
  -2  -6  -6    4.61    0.34
  -3  -6  -6    0.05    0.14
  -3  -6  -6    0.02    0.16
  -3  -6  -6    0.08    0.19
  -4  -6  -6    9.37    0.66
  -4  -6  -6   10.68    0.70
  -4  -6  -6   10.01    0.66
  -5  -6  -6    1.31    0.18
  -5  -6  -6    1.32    0.17
  -6   7   6    0.05    0.10
  -5   7   6    0.08    0.08
  -5   7   6    0.27    0.13
  -5   7   6    0.19    0.10
  -4   7   6    4.55    0.33
  -4   7   6    3.74    0.35
  -3   7   6   -0.02    0.09
  -3   7   6   -0.12    0.08
  -3   7   6    0.36    0.16
   2  -7  -6    0.63    0.15
  -2   7   6    0.48    0.12
   1  -7  -6    3.58    0.31
  -1   7   6    3.78    0.30
   0  -7  -6    2.77    0.26
  -1  -7  -6   -0.21    0.11
  -1  -7  -6   -0.01    0.17
  -1  -7  -6    0.31    0.16
  -2  -7  -6    4.90    0.35
  -2  -7  -6    3.63    0.33
  -3  -7  -6   -0.19    0.16
  -3  -7  -6    0.01    0.13
  -3  -7  -6    0.17    0.14
  -4  -7  -6    0.13    0.14
  -4  -7  -6    0.09    0.12
  -4   8   6    0.13    0.09
   3  -8  -6   -0.03    0.08
  -3   8   6    0.24    0.12
  -3   8   6   -0.08    0.06
   2  -8  -6    0.51    0.09
  -2   8   6    0.62    0.09
   1  -8  -6    0.46    0.11
  -1   8   6    0.38    0.10
   0  -8  -6    5.70    0.39
   0  -8  -6    5.25    0.36
   0  -8  -6    5.04    0.40
   0   8   6    5.62    0.38
  -1  -8  -6    1.03    0.15
  -1  -8  -6    0.73    0.15
  -2  -8  -6    0.01    0.09
  -2  -8  -6    0.17    0.12
  -4 -11   7    2.37    0.18
  -3 -11   7    0.12    0.10
  -3 -11   7    0.00    0.07
  -2 -11   7    1.53    0.17
  -2 -11   7    1.29    0.15
  -2 -11   7    1.13    0.17
  -1 -11   7    4.46    0.35
   0 -11   7    2.15    0.16
   0 -11   7    1.59    0.21
   0 -11   7    2.14    0.23
  -1  11  -7    0.16    0.09
   1 -11   7    0.13    0.08
   1 -11   7    0.36    0.10
  -2  11  -7   10.63    0.66
   2 -11   7    9.51    0.65
  -3  11  -7    1.40    0.15
   3 -11   7    1.42    0.16
  -5 -10   7    0.91    0.10
  -5 -10   7    0.46    0.14
  -4 -10   7    1.66    0.16
  -4 -10   7    1.08    0.15
  -4 -10   7    1.22    0.15
  -3 -10   7   -0.07    0.11
  -3 -10   7    0.00    0.12
  -3 -10   7    0.13    0.14
  -3 -10   7   -0.06    0.09
  -2 -10   7    6.00    0.48
  -2 -10   7    6.35    0.45
  -2 -10   7    6.73    0.54
  -2 -10   7    6.55    0.46
  -1 -10   7    0.04    0.13
  -1 -10   7    0.04    0.06
   0 -10   7   -0.19    0.14
   0 -10   7    0.03    0.07
   1 -10   7    2.83    0.25
  -2  10  -7   -0.13    0.12
   2 -10   7   -0.06    0.11
  -3  10  -7    0.88    0.13
   3 -10   7    1.12    0.14
  -4  10  -7    9.01    0.55
  -4  10  -7    7.52    0.59
  -5  10  -7    0.57    0.13
  -5  10  -7    0.40    0.13
  -7  -9   7    0.47    0.10
  -6  -9   7   -0.07    0.15
  -5  -9   7    2.87    0.29
  -5  -9   7    3.68    0.25
  -5  -9   7    3.68    0.35
  -4  -9   7    3.13    0.26
  -4  -9   7    2.44    0.26
  -4  -9   7    2.95    0.35
  -3  -9   7    1.81    0.21
  -3  -9   7    1.80    0.18
  -3  -9   7    1.58    0.18
  -3  -9   7    1.64    0.21
  -2  -9   7    6.88    0.58
  -2  -9   7    8.90    0.57
  -2  -9   7    9.43    0.58
  -2  -9   7    7.82    0.65
  -1  -9   7    2.10    0.19
  -1  -9   7    1.62    0.19
   0  -9   7    4.17    0.39
   0  -9   7    4.84    0.35
   1  -9   7    0.42    0.13
  -2   9  -7    4.10    0.36
   2  -9   7    4.43    0.34
  -3   9  -7    3.54    0.31
  -4   9  -7    2.88    0.32
  -4   9  -7    3.21    0.28
  -5   9  -7    1.73    0.23
  -5   9  -7    2.18    0.20
  -6   9  -7    8.68    0.54
  -6   9  -7    8.51    0.53
  -6   9  -7    6.97    0.63
  -7  -8   7   -0.03    0.11
  -7  -8   7    0.07    0.10
  -7  -8   7   -0.05    0.11
  -6  -8   7    2.84    0.30
  -6  -8   7    3.47    0.29
  -6  -8   7    3.24    0.32
  -6  -8   7    3.91    0.23
  -5  -8   7    4.46    0.31
  -5  -8   7    3.85    0.39
  -5  -8   7    4.91    0.44
  -5  -8   7    4.13    0.33
  -4  -8   7    1.41    0.22
  -4  -8   7    1.92    0.22
  -4  -8   7    1.87    0.20
  -4  -8   7    1.83    0.18
  -3  -8   7    1.61    0.25
  -3  -8   7    2.04    0.20
  -3  -8   7    1.72    0.18
  -3  -8   7    1.99    0.22
  -2  -8   7   14.24    0.87
  -2  -8   7   10.71    1.28
  -2  -8   7   14.43    0.91
  -2  -8   7   12.88    0.95
  -2  -8   7   13.85    0.87
  -1  -8   7    0.14    0.10
  -1  -8   7   -0.11    0.15
  -1  -8   7   -0.27    0.36
   0  -8   7    2.38    0.49
   0  -8   7    3.36    0.35
   0  -8   7    3.84    0.30
   1  -8   7   -0.05    0.10
  -2   8  -7    5.17    0.41
  -3   8  -7    3.45    0.31
  -4   8  -7    0.07    0.15
  -4   8  -7    0.23    0.10
  -5   8  -7    2.98    0.30
  -5   8  -7    2.98    0.23
  -5   8  -7    2.67    0.33
  -6   8  -7    0.48    0.16
  -6   8  -7    0.27    0.12
  -6   8  -7    0.06    0.13
  -7   8  -7    0.24    0.11
  -7   8  -7    0.05    0.13
  -8  -7   7    0.02    0.10
  -8  -7   7   -0.09    0.09
  -7  -7   7    4.30    0.33
  -7  -7   7    4.56    0.38
  -6  -7   7    1.76    0.19
  -6  -7   7    1.83    0.16
  -6  -7   7    1.51    0.18
  -6  -7   7    1.43    0.25
  -5  -7   7    0.11    0.12
  -5  -7   7    0.21    0.18
  -5  -7   7    0.25    0.21
  -5  -7   7    0.05    0.10
  -4  -7   7    2.11    0.22
  -4  -7   7    1.82    0.22
  -4  -7   7    1.66    0.19
  -4  -7   7    1.32    0.48
  -4  -7   7    2.13    0.19
  -4  -7   7    1.55    0.17
  -3  -7   7    6.96    0.52
  -3  -7   7    8.97    0.66
  -3  -7   7    7.40    0.58
  -3  -7   7    7.93    0.54
  -3  -7   7    7.58    0.81
  -2  -7   7   23.13    1.79
  -2  -7   7   26.27    1.56
  -2  -7   7   25.72    1.57
  -2  -7   7   25.04    1.95
  -2  -7   7   25.48    1.60
  -2  -7   7   23.30    2.14
  -2  -7   7   23.20    1.69
  -1  -7   7   21.38    1.74
  -1  -7   7   20.81    1.41
  -1  -7   7   21.17    1.87
  -1  -7   7   23.11    1.39
   0  -7   7    0.06    0.10
   1  -7   7    0.18    0.09
  -2   7  -7    0.12    0.12
  -3   7  -7   -0.16    0.40
  -3   7  -7    0.17    0.14
  -4   7  -7    0.41    0.10
  -4   7  -7    0.21    0.15
  -5   7  -7   12.40    0.76
  -5   7  -7    9.81    0.73
  -5   7  -7   11.25    0.72
  -5   7  -7   10.76    0.87
  -6   7  -7    1.15    0.20
  -6   7  -7    1.14    0.17
  -6   7  -7    1.12    0.15
  -7   7  -7    0.06    0.15
  -7   7  -7    0.27    0.12
  -8   7  -7    0.92    0.10
  -8   7  -7    0.91    0.17
  -9  -6   7   -0.13    0.08
  -8  -6   7    0.08    0.17
  -8  -6   7    0.03    0.12
  -7  -6   7    1.53    0.20
  -7  -6   7    1.31    0.15
  -7  -6   7    1.30    0.18
  -6  -6   7    0.11    0.09
  -6  -6   7    0.24    0.14
  -6  -6   7    0.30    0.19
  -6  -6   7    0.15    0.15
  -5  -6   7   11.15    0.81
  -5  -6   7   10.12    0.68
  -5  -6   7    9.61    0.73
  -5  -6   7    8.55    1.02
  -5  -6   7    9.48    0.64
  -4  -6   7    8.69    0.59
  -4  -6   7    8.71    0.96
  -4  -6   7    8.91    0.59
  -4  -6   7    7.64    0.70
  -4  -6   7    9.31    0.62
  -4  -6   7    9.19    0.66
  -4  -6   7   10.04    0.74
  -3  -6   7    1.07    0.09
  -3  -6   7    1.31    0.28
  -3  -6   7    1.56    0.33
  -3  -6   7    1.39    0.16
  -3  -6   7    1.13    0.14
  -3  -6   7    1.44    0.18
  -3  -6   7    1.81    0.42
  -3  -6   7    1.51    0.21
  -2  -6   7   37.47    2.24
  -2  -6   7   36.39    2.70
  -2  -6   7   33.20    2.20
  -2  -6   7   36.09    2.97
  -2  -6   7   35.79    2.51
  -2  -6   7   34.00    2.27
  -1  -6   7    0.71    0.30
  -1  -6   7    1.01    0.29
  -1  -6   7    1.24    0.28
  -1  -6   7    0.90    0.15
  -1  -6   7    1.09    0.12
   0  -6   7   11.98    0.79
   1  -6   7    2.49    0.22
  -2   6  -7    0.98    0.14
  -3   6  -7    1.10    0.14
  -3   6  -7    1.14    0.43
  -4   6  -7    1.40    0.47
  -4   6  -7    1.07    0.14
  -4   6  -7    0.67    0.16
  -5   6  -7    3.51    0.36
  -5   6  -7    3.31    0.37
  -5   6  -7    3.30    0.27
  -5   6  -7    3.09    0.34
  -6   6  -7    3.83    0.47
  -6   6  -7    4.04    0.33
  -6   6  -7    4.18    0.34
  -7   6  -7    1.73    0.23
  -7   6  -7    1.53    0.17
  -8   6  -7    1.08    0.13
  -8   6  -7    0.76    0.16
  -9  -5   7    0.09    0.10
  -9  -5   7    0.14    0.11
  -8  -5   7    5.29    0.41
  -8  -5   7    5.27    0.44
  -7  -5   7   -0.10    0.15
  -7  -5   7    0.05    0.19
  -7  -5   7    0.04    0.15
  -6  -5   7    0.09    0.09
  -6  -5   7    0.20    0.21
  -6  -5   7    0.31    0.15
  -6  -5   7    0.02    0.19
  -5  -5   7   14.41    1.45
  -5  -5   7   16.15    1.08
  -5  -5   7   17.07    1.25
  -5  -5   7   16.47    1.03
  -5  -5   7   17.06    1.15
  -4  -5   7    0.33    0.34
  -4  -5   7    0.23    0.23
  -4  -5   7    0.42    0.15
  -4  -5   7    0.16    0.11
  -4  -5   7    0.16    0.18
  -4  -5   7    0.22    0.11
  -4  -5   7    0.38    0.17
  -4  -5   7    0.10    0.09
  -3  -5   7    0.15    0.12
  -3  -5   7    0.26    0.24
  -3  -5   7    0.11    0.09
  -3  -5   7   -0.01    0.10
  -3  -5   7    0.03    0.10
  -3  -5   7   -0.11    0.30
  -3  -5   7   -0.05    0.09
  -3  -5   7    0.59    0.32
  -3  -5   7    0.07    0.04
  -3  -5   7    0.15    0.10
  -2  -5   7    1.14    0.14
  -2  -5   7    0.71    0.11
  -2  -5   7    1.41    0.35
  -2  -5   7    0.80    0.32
  -2  -5   7    0.49    0.26
  -1  -5   7    1.65    0.35
  -1  -5   7    1.45    0.36
  -1  -5   7    1.29    0.28
  -1  -5   7    1.53    0.14
  -1  -5   7    1.43    0.17
   0  -5   7    1.36    0.28
   0  -5   7    0.87    0.32
   0  -5   7    1.84    0.33
   0  -5   7    1.35    0.14
  -2   5  -7    9.34    0.64
  -3   5  -7    4.75    0.37
  -3   5  -7    5.63    0.64
  -3   5  -7    3.99    0.39
  -4   5  -7    6.69    0.75
  -4   5  -7    7.91    0.58
  -4   5  -7    8.42    0.53
  -4   5  -7    7.98    0.82
  -4   5  -7    5.56    0.81
  -5   5  -7    3.80    0.30
  -5   5  -7    4.36    0.39
  -5   5  -7    3.58    0.37
  -5   5  -7    4.38    0.47
  -6   5  -7   -0.04    0.15
  -6   5  -7    0.09    0.14
  -6   5  -7    0.29    0.25
  -7   5  -7    6.09    0.55
  -7   5  -7    6.27    0.43
  -7   5  -7    6.87    0.45
  -8   5  -7    1.04    0.13
  -8   5  -7    0.97    0.18
  -9  -4   7    1.31    0.16
  -8  -4   7    0.15    0.19
  -8  -4   7    0.12    0.18
  -8  -4   7    0.13    0.09
  -7  -4   7    2.09    0.27
  -7  -4   7    1.82    0.25
  -7  -4   7    1.86    0.22
  -7  -4   7    2.15    0.26
  -6  -4   7   37.57    2.52
  -6  -4   7   36.91    2.28
  -6  -4   7   37.38    2.54
  -6  -4   7   37.80    2.39
  -6  -4   7   32.59    3.11
  -6  -4   7   39.13    2.73
  -5  -4   7    1.35    0.16
  -5  -4   7    1.24    0.17
  -5  -4   7    1.70    0.42
  -5  -4   7    1.44    0.18
  -5  -4   7    1.25    0.20
  -5  -4   7    1.03    0.09
  -5  -4   7    1.30    0.13
  -4  -4   7    0.51    0.15
  -4  -4   7    0.82    0.34
  -4  -4   7    0.80    0.17
  -4  -4   7    0.67    0.12
  -4  -4   7    0.52    0.09
  -4  -4   7    0.66    0.13
  -4  -4   7    0.40    0.25
  -4  -4   7    0.54    0.21
  -4  -4   7    0.76    0.15
  -3  -4   7    1.67    0.16
  -3  -4   7    1.66    0.36
  -3  -4   7    1.64    0.29
  -3  -4   7    1.87    0.18
  -3  -4   7    1.51    0.14
  -3  -4   7    1.97    0.32
  -3  -4   7    1.54    0.17
  -3  -4   7    2.01    0.21
  -3  -4   7    1.70    0.16
  -2  -4   7    3.53    0.30
  -2  -4   7    4.34    0.48
  -2  -4   7    3.98    0.42
  -2  -4   7    3.95    0.52
  -2  -4   7    3.40    0.27
  -2  -4   7    3.33    0.31
  -1  -4   7    7.33    0.53
  -1  -4   7    7.85    0.79
  -1  -4   7    9.32    0.72
  -1  -4   7    7.92    0.67
   0  -4   7   19.56    1.56
   0  -4   7   21.23    1.69
   0  -4   7   18.32    1.44
  -2   4  -7   16.84    1.19
  -2   4  -7   13.80    0.97
  -3   4  -7    0.12    0.25
  -3   4  -7   -0.04    0.10
  -3   4  -7    0.25    0.31
  -3   4  -7    0.08    0.13
  -3   4  -7    0.10    0.42
  -4   4  -7    2.78    0.51
  -4   4  -7    2.49    0.28
  -4   4  -7    1.95    0.44
  -4   4  -7    3.43    0.39
  -4   4  -7    2.85    0.26
  -4   4  -7    3.22    0.34
  -4   4  -7    2.63    0.44
  -5   4  -7   12.55    1.17
  -5   4  -7   13.64    0.88
  -5   4  -7   13.33    0.91
  -5   4  -7   14.25    1.07
  -5   4  -7   13.45    0.87
  -6   4  -7    7.21    0.51
  -6   4  -7    7.42    0.67
  -7   4  -7    2.48    0.33
  -7   4  -7    2.29    0.19
  -7   4  -7    2.63    0.24
  -8   4  -7    0.22    0.16
  -8   4  -7    0.04    0.11
  -9   4  -7    0.10    0.10
 -10  -3   7    0.78    0.11
  -9  -3   7    2.84    0.27
  -9  -3   7    2.84    0.30
  -9  -3   7    2.72    0.32
  -8  -3   7    0.59    0.19
  -8  -3   7    0.32    0.17
  -8  -3   7    0.46    0.19
  -7  -3   7    0.41    0.19
  -7  -3   7    0.51    0.17
  -7  -3   7    0.52    0.20
  -6  -3   7    0.53    0.38
  -6  -3   7    0.73    0.19
  -6  -3   7    0.94    0.21
  -6  -3   7    0.85    0.17
  -5  -3   7    7.38    0.59
  -5  -3   7    7.99    0.85
  -5  -3   7    6.97    0.61
  -5  -3   7    8.11    0.56
  -5  -3   7    8.63    0.52
  -5  -3   7    8.26    0.59
  -5  -3   7    8.58    0.65
  -5  -3   7    7.81    0.51
  -5  -3   7    7.20    0.59
  -4  -3   7    5.02    0.42
  -4  -3   7    5.45    0.49
  -4  -3   7    4.54    0.54
  -4  -3   7    4.62    0.45
  -4  -3   7    4.78    0.40
  -4  -3   7    4.40    0.34
  -4  -3   7    4.72    0.34
  -4  -3   7    4.94    0.42
  -3  -3   7    5.16    0.45
  -3  -3   7    5.90    0.57
  -3  -3   7    4.94    0.36
  -3  -3   7    5.05    0.53
  -3  -3   7    5.36    0.38
  -3  -3   7    4.97    0.34
  -3  -3   7    5.51    0.48
  -2  -3   7    0.50    0.08
  -2  -3   7    0.34    0.27
  -2  -3   7    0.58    0.26
  -2  -3   7    0.54    0.23
  -1  -3   7    0.31    0.22
  -1  -3   7    0.35    0.25
  -1  -3   7    0.29    0.23
   0   3  -7    5.24    0.52
   0  -3   7    4.52    0.52
   0  -3   7    4.21    0.47
   0  -3   7    4.47    0.52
  -1   3  -7   66.60    4.38
   1  -3   7   58.67    5.04
  -2   3  -7    7.74    0.55
  -2   3  -7    7.80    0.78
  -2   3  -7    8.44    0.76
  -2   3  -7   10.25    0.82
   2  -3   7    7.62    0.76
  -3   3  -7   13.32    0.94
  -3   3  -7   14.45    0.91
  -3   3  -7   13.57    1.12
  -3   3  -7   13.69    1.14
  -4   3  -7    3.29    0.31
  -4   3  -7    1.92    0.44
  -4   3  -7    2.63    0.26
  -4   3  -7    2.88    0.25
  -4   3  -7    1.81    0.41
  -4   3  -7    3.04    0.38
  -4   3  -7    3.25    0.50
  -5   3  -7    5.13    0.39
  -5   3  -7    4.06    0.31
  -5   3  -7    4.87    0.40
  -5   3  -7    4.12    0.42
  -5   3  -7    4.39    0.61
  -6   3  -7   -0.10    0.18
  -6   3  -7    0.06    0.25
  -6   3  -7   -0.16    0.16
  -7   3  -7   34.44    1.98
  -7   3  -7   29.02    2.17
  -7   3  -7   31.80    2.35
  -8   3  -7    0.18    0.16
  -8   3  -7    0.06    0.11
  -9   3  -7    0.14    0.15
 -10  -2   7    0.00    0.09
  -9  -2   7    1.00    0.15
  -9  -2   7    0.95    0.14
  -8  -2   7    0.08    0.18
  -8  -2   7    0.07    0.18
  -8  -2   7    0.14    0.18
  -7  -2   7    4.89    0.44
  -7  -2   7    5.02    0.46
  -7  -2   7    4.72    0.32
  -7  -2   7    5.12    0.44
  -6  -2   7    0.17    0.17
  -6  -2   7    0.04    0.16
  -6  -2   7   -0.03    0.09
  -6  -2   7    0.00    0.18
  -6  -2   7    0.04    0.35
  -5  -2   7    0.75    0.20
  -5  -2   7    0.81    0.18
  -5  -2   7    1.42    0.38
  -5  -2   7    1.00    0.12
  -5  -2   7    1.02    0.19
  -5  -2   7    0.82    0.17
  -5  -2   7    0.90    0.10
  -5  -2   7    1.34    0.20
  -4  -2   7    0.93    0.32
  -4  -2   7    1.00    0.15
  -4  -2   7    0.94    0.17
  -4  -2   7    0.85    0.21
  -4  -2   7    0.76    0.12
  -4  -2   7    0.78    0.27
  -4  -2   7    0.94    0.15
  -4  -2   7    0.72    0.12
  -3  -2   7    3.32    0.26
  -3  -2   7    4.01    0.30
  -3  -2   7    3.51    0.28
  -3  -2   7    4.37    0.53
  -3  -2   7    4.52    0.43
  -3  -2   7    4.95    0.49
  -3  -2   7    4.12    0.35
  -2  -2   7    1.22    0.27
  -2  -2   7    0.70    0.23
  -2  -2   7    0.79    0.09
  -2  -2   7    1.09    0.28
  -1  -2   7   43.06    3.34
  -1  -2   7   40.53    2.86
  -1  -2   7   39.22    3.06
   0  -2   7    1.62    0.30
   0  -2   7    1.72    0.28
   0  -2   7    1.83    0.28
  -1   2  -7    2.94    0.35
   1  -2   7    2.57    0.35
  -2   2  -7    7.19    0.54
  -2   2  -7    7.56    0.74
  -2   2  -7    7.04    0.72
  -2   2  -7    9.88    0.77
  -3   2  -7    0.17    0.17
  -3   2  -7    0.01    0.31
  -3   2  -7    0.31    0.33
  -3   2  -7    0.11    0.15
  -3   2  -7    0.36    0.34
  -3   2  -7    0.23    0.10
  -4   2  -7    1.57    0.39
  -4   2  -7    1.87    0.22
  -4   2  -7    1.78    0.22
  -4   2  -7    1.59    0.42
  -4   2  -7    1.77    0.26
  -4   2  -7    1.57    0.16
  -4   2  -7    1.36    0.38
  -5   2  -7    9.61    0.68
  -5   2  -7   10.00    1.00
  -5   2  -7   11.87    0.81
  -5   2  -7   11.60    0.87
  -5   2  -7   11.28    0.73
  -6   2  -7    4.94    0.37
  -6   2  -7    4.58    0.43
  -6   2  -7    3.98    0.39
  -6   2  -7    4.45    0.43
  -7   2  -7    3.06    0.33
  -7   2  -7    2.48    0.33
  -7   2  -7    2.54    0.25
  -8   2  -7    0.56    0.16
  -8   2  -7    0.76    0.13
  -8   2  -7    0.51    0.16
  -9   2  -7    1.00    0.13
 -10  -1   7    0.10    0.10
 -10  -1   7    0.04    0.08
  -9  -1   7   -0.11    0.11
  -9  -1   7   -0.06    0.11
  -8  -1   7    0.88    0.16
  -8  -1   7    0.72    0.20
  -7  -1   7   -0.12    0.18
  -7  -1   7   -0.12    0.18
  -7  -1   7   -0.06    0.18
  -7  -1   7    0.16    0.08
  -6  -1   7   22.68    1.50
  -6  -1   7   18.21    1.89
  -6  -1   7   22.61    1.55
  -6  -1   7   21.65    1.36
  -6  -1   7   23.09    1.52
  -6  -1   7   21.26    1.62
  -5  -1   7   10.46    0.87
  -5  -1   7   12.76    0.79
  -5  -1   7   13.04    0.87
  -5  -1   7   12.48    1.15
  -5  -1   7   12.62    0.93
  -5  -1   7   11.42    0.89
  -5  -1   7   10.96    0.95
  -5  -1   7   12.99    0.86
  -4  -1   7    0.86    0.31
  -4  -1   7    0.85    0.16
  -4  -1   7    0.56    0.27
  -4  -1   7    0.82    0.15
  -4  -1   7    0.92    0.15
  -4  -1   7    0.91    0.13
  -4  -1   7    0.67    0.24
  -4  -1   7    0.87    0.12
  -3  -1   7    2.93    0.25
  -3  -1   7    3.53    0.41
  -3  -1   7    2.61    0.32
  -3  -1   7    2.81    0.41
  -3  -1   7    3.12    0.26
  -3  -1   7    3.65    0.37
  -3  -1   7    2.73    0.22
  -2  -1   7    0.10    0.08
  -2  -1   7    0.25    0.25
  -2  -1   7    0.37    0.21
  -2  -1   7    0.27    0.26
  -1  -1   7   29.20    1.99
  -1  -1   7   27.72    2.13
  -1  -1   7   27.15    2.30
   0  -1   7   37.56    3.01
   0  -1   7   42.02    3.24
  -1   1  -7   22.10    1.62
  -2   1  -7   16.22    1.15
  -2   1  -7   14.14    0.96
  -2   1  -7   14.19    1.22
  -3   1  -7    2.31    0.42
  -3   1  -7    3.77    0.30
  -3   1  -7    3.08    0.45
  -4   1  -7    5.93    0.55
  -4   1  -7    6.68    0.44
  -4   1  -7    5.97    0.46
  -4   1  -7    6.33    0.49
  -4   1  -7    6.12    0.71
  -5   1  -7    2.24    0.23
  -5   1  -7    3.35    0.37
  -5   1  -7    2.07    0.23
  -5   1  -7    2.80    0.28
  -5   1  -7    1.52    0.48
  -6   1  -7    0.29    0.12
  -6   1  -7    0.17    0.19
  -6   1  -7    0.00    0.15
  -6   1  -7    0.13    0.23
  -7   1  -7   -0.27    0.16
  -7   1  -7    0.01    0.15
  -7   1  -7   -0.37    0.18
  -8   1  -7    0.10    0.14
  -8   1  -7    0.17    0.09
  -8   1  -7    0.06    0.11
 -10   0   7    1.77    0.15
  -9   0   7   -0.05    0.11
  -9   0   7   -0.01    0.11
  -9   0   7    0.03    0.11
  -8   0   7    8.04    0.66
  -8   0   7    9.31    0.65
  -8   0   7    8.42    0.64
  -7   0   7    0.25    0.15
  -7   0   7    0.25    0.09
  -7   0   7   -0.02    0.18
  -7   0   7    0.36    0.18
  -6   0   7    0.37    0.17
  -6   0   7    0.52    0.12
  -6   0   7    0.41    0.16
  -6   0   7    0.51    0.36
  -6   0   7    0.21    0.17
  -5   0   7    0.67    0.15
  -5   0   7    0.78    0.12
  -5   0   7    0.72    0.17
  -5   0   7    0.31    0.22
  -5   0   7    0.35    0.23
  -5   0   7    0.64    0.16
  -5   0   7    0.84    0.11
  -5   0   7    0.59    0.33
  -5   0   7    0.73    0.16
  -4   0   7    6.06    0.56
  -4   0   7    6.03    0.66
  -4   0   7    5.43    0.44
  -4   0   7    5.91    0.56
  -4   0   7    5.67    0.41
  -4   0   7    5.39    0.47
  -4   0   7    5.86    0.40
  -4   0   7    5.44    0.37
  -4   0   7    6.24    0.52
  -3   0   7    0.36    0.28
  -3   0   7    0.82    0.25
  -3   0   7    0.79    0.24
  -3   0   7    0.43    0.25
  -3   0   7    0.54    0.12
  -3   0   7    0.77    0.13
  -3   0   7    0.57    0.08
  -2   0   7   30.86    2.08
  -2   0   7   27.21    1.85
  -2   0   7   30.75    2.23
  -2   0   7   31.54    2.41
  -2   0   7   26.78    1.87
  -1   0   7    1.74    0.34
  -1   0   7    2.57    0.32
  -1   0  -7    1.90    0.19
  -2   0  -7   21.27    1.59
  -2   0  -7   27.01    1.57
  -2   0  -7   23.77    1.93
  -2   0  -7   24.24    1.81
  -2   0  -7   25.57    1.81
  -3   0  -7   17.27    1.08
  -3   0  -7   17.05    1.32
  -3   0  -7   16.25    1.28
  -3   0  -7   15.59    1.05
  -3   0  -7   13.77    1.36
  -3   0  -7   17.38    1.06
  -4   0  -7   18.31    1.54
  -4   0  -7   20.78    1.31
  -4   0  -7   17.96    1.50
  -4   0  -7   22.42    1.27
  -4   0  -7   17.08    1.60
  -4   0  -7   20.00    1.27
  -5   0  -7    0.51    0.42
  -5   0  -7    0.14    0.19
  -5   0  -7    0.27    0.20
  -5   0  -7    0.17    0.16
  -5   0  -7   -0.14    0.15
  -6   0  -7    3.13    0.28
  -6   0  -7    2.57    0.24
  -6   0  -7    3.24    0.38
  -6   0  -7    2.83    0.37
  -7   0  -7   -0.08    0.11
  -7   0  -7    0.11    0.14
  -7   0  -7    0.00    0.15
  -8   0  -7    2.61    0.26
  -9   1   7    3.00    0.28
  -9   1   7    2.97    0.27
  -9   1   7    3.00    0.28
  -8   1   7    0.83    0.18
  -8   1   7    1.23    0.19
  -8   1   7    0.81    0.18
  -7   1   7    8.35    0.65
  -7   1   7    8.26    0.64
  -7   1   7    8.36    0.54
  -7   1   7    8.28    0.67
  -6   1   7    0.61    0.18
  -6   1   7    0.85    0.09
  -6   1   7    0.74    0.18
  -6   1   7    0.83    0.14
  -6   1   7    1.12    0.14
  -5   1   7    0.30    0.16
  -5   1   7    0.72    0.12
  -5   1   7    0.34    0.24
  -5   1   7    0.31    0.32
  -5   1   7    0.36    0.14
  -5   1   7   -0.29    0.32
  -5   1   7    0.46    0.11
  -4   1   7   -0.11    0.11
  -4   1   7   -0.02    0.06
  -4   1   7   -0.13    0.26
  -4   1   7   -0.02    0.11
  -4   1   7   -0.29    0.26
  -4   1   7    0.04    0.23
  -4   1   7    0.06    0.21
  -4   1   7    0.09    0.13
  -3   1   7    5.93    0.44
  -3   1   7    5.58    0.41
  -3   1   7    5.54    0.61
  -3   1   7    4.94    0.56
  -3   1   7    5.42    0.54
  -3   1   7    5.99    0.39
  -3   1   7    5.85    0.59
  -3   1   7    5.36    0.39
  -2   1   7    2.62    0.43
  -2   1   7    3.45    0.31
  -2   1   7    3.25    0.42
  -2   1   7    3.35    0.25
  -1   1   7    1.34    0.30
  -1   1   7    1.97    0.18
  -1  -1  -7    1.90    0.21
  -2  -1  -7    3.13    0.29
  -2  -1  -7    3.25    0.34
  -2  -1  -7    2.00    0.44
  -2  -1  -7    1.48    0.47
  -3  -1  -7    0.47    0.13
  -3  -1  -7    0.92    0.19
  -3  -1  -7    0.13    0.32
  -3  -1  -7    0.64    0.16
  -3  -1  -7   -0.01    0.34
  -4  -1  -7    0.63    0.10
  -4  -1  -7   -0.01    0.35
  -4  -1  -7    0.67    0.19
  -4  -1  -7    0.57    0.15
  -4  -1  -7    0.47    0.18
  -5  -1  -7    2.76    0.26
  -5  -1  -7    1.92    0.26
  -5  -1  -7    1.74    0.22
  -6  -1  -7    4.52    0.34
  -6  -1  -7    3.82    0.30
  -6  -1  -7    4.58    0.44
  -7  -1  -7    0.16    0.13
  -7  -1  -7    0.18    0.14
  -7  -1  -7    0.16    0.12
  -8  -1  -7    0.24    0.11
  -9   2   7    8.53    0.60
  -9   2   7    7.92    0.59
  -8   2   7   -0.09    0.10
  -8   2   7   -0.03    0.11
  -8   2   7   -0.11    0.06
  -7   2   7    3.26    0.32
  -7   2   7    3.65    0.35
  -7   2   7    2.89    0.32
  -7   2   7    3.24    0.25
  -6   2   7    2.61    0.25
  -6   2   7    1.94    0.18
  -6   2   7    1.92    0.20
  -6   2   7    1.80    0.22
  -5   2   7   29.87    2.00
  -5   2   7   25.45    2.45
  -5   2   7   31.07    1.87
  -5   2   7   30.36    1.82
  -5   2   7   26.47    2.12
  -5   2   7   29.78    2.05
  -4   2   7    9.28    0.59
  -4   2   7    9.08    0.58
  -4   2   7    9.23    0.78
  -4   2   7    8.91    0.61
  -4   2   7    8.03    0.75
  -4   2   7    8.74    0.65
  -3   2   7   14.59    0.90
  -3   2   7   12.26    1.15
  -3   2   7   13.71    0.89
  -3   2   7   13.99    0.98
  -3   2   7   14.47    1.09
  -3   2   7   13.73    0.92
  -2   2   7    7.17    0.50
  -2   2   7    6.22    0.66
  -2   2   7    6.92    0.50
  -2   2   7    5.75    0.65
  -2   2   7    6.70    0.45
  -1   2   7    0.17    0.12
  -1  -2  -7    5.32    0.41
  -2  -2  -7    4.07    0.37
  -2  -2  -7    4.41    0.34
  -2  -2  -7    3.26    0.53
  -3  -2  -7    4.37    0.40
  -3  -2  -7    5.00    0.36
  -3  -2  -7    3.25    0.54
  -3  -2  -7    5.04    0.43
  -3  -2  -7    4.79    0.46
  -3  -2  -7    4.39    0.60
  -4  -2  -7    3.61    0.35
  -4  -2  -7    3.74    0.26
  -4  -2  -7    3.28    0.33
  -4  -2  -7    3.80    0.38
  -4  -2  -7    3.78    0.34
  -5  -2  -7    0.49    0.17
  -5  -2  -7    0.38    0.14
  -5  -2  -7    0.42    0.21
  -6  -2  -7    0.16    0.19
  -6  -2  -7    0.00    0.17
  -7  -2  -7    4.21    0.39
  -7  -2  -7    4.09    0.29
  -8  -2  -7    1.18    0.16
  -9   3   7    2.35    0.23
  -8   3   7    0.02    0.07
  -8   3   7    0.04    0.10
  -8   3   7    0.00    0.10
  -7   3   7   12.38    0.85
  -7   3   7   10.59    0.81
  -7   3   7   11.79    0.74
  -6   3   7    0.11    0.11
  -6   3   7    0.28    0.11
  -6   3   7   -0.01    0.12
  -6   3   7    0.16    0.10
  -5   3   7   30.65    2.04
  -5   3   7   28.13    1.86
  -5   3   7   30.12    1.81
  -5   3   7   27.14    1.98
  -4   3   7    0.02    0.27
  -4   3   7   -0.03    0.15
  -4   3   7   -0.05    0.08
  -4   3   7   -0.06    0.13
  -3   3   7   13.17    0.84
  -3   3   7   10.17    1.01
  -3   3   7   12.27    1.01
  -3   3   7   13.33    0.81
  -2   3   7    7.63    0.52
  -1   3   7    6.36    0.45
   0  -3  -7    0.35    0.18
  -1  -3  -7    0.46    0.14
  -2  -3  -7    0.91    0.16
  -2  -3  -7    0.57    0.18
  -2  -3  -7    0.48    0.18
  -3  -3  -7    6.95    0.53
  -3  -3  -7    6.43    0.54
  -3  -3  -7    6.85    0.47
  -4  -3  -7    4.04    0.39
  -4  -3  -7    4.15    0.36
  -4  -3  -7    3.46    0.37
  -4  -3  -7    4.44    0.37
  -5  -3  -7    0.63    0.19
  -5  -3  -7    0.94    0.18
  -5  -3  -7    0.81    0.15
  -5  -3  -7    0.91    0.18
  -6  -3  -7    0.73    0.14
  -6  -3  -7    0.90    0.15
  -7  -3  -7    0.59    0.12
  -7  -3  -7    0.60    0.09
  -8   4   7    1.69    0.17
  -7   4   7    0.95    0.12
  -7   4   7    0.78    0.16
  -6   4   7    0.92    0.12
  -6   4   7    0.77    0.14
  -6   4   7    0.87    0.14
  -5   4   7    3.16    0.33
  -5   4   7    3.32    0.28
  -5   4   7    3.00    0.30
  -4   4   7    0.23    0.15
  -4   4   7    0.17    0.14
  -4   4   7    0.40    0.09
  -3   4   7    0.69    0.11
  -3   4   7    0.83    0.17
  -2   4   7    0.15    0.13
  -1   4   7   -0.21    0.11
   0  -4  -7   13.85    0.93
  -1  -4  -7    6.33    0.47
  -2  -4  -7    3.33    0.36
  -2  -4  -7    3.94    0.33
  -3  -4  -7    0.12    0.09
  -3  -4  -7   -0.12    0.18
  -3  -4  -7    0.05    0.20
  -4  -4  -7    3.28    0.33
  -4  -4  -7    2.92    0.31
  -4  -4  -7    2.90    0.30
  -4  -4  -7    2.94    0.28
  -5  -4  -7   -0.02    0.11
  -5  -4  -7   -0.14    0.09
  -5  -4  -7   -0.26    0.13
  -5  -4  -7   -0.02    0.16
  -6  -4  -7   -0.12    0.13
  -6  -4  -7   -0.01    0.11
  -7   5   7    0.08    0.10
  -7   5   7    0.07    0.11
  -6   5   7    0.58    0.15
  -6   5   7    0.59    0.09
  -6   5   7    0.56    0.13
  -5   5   7    2.18    0.22
  -5   5   7    1.93    0.22
  -5   5   7    2.13    0.22
  -4   5   7    0.75    0.09
  -4   5   7    0.70    0.16
  -4   5   7    0.65    0.16
  -3   5   7    0.39    0.20
  -3   5   7    0.48    0.10
  -2   5   7    0.63    0.13
   1  -5  -7    5.45    0.44
  -1   5   7    5.82    0.41
   0  -5  -7    0.35    0.15
  -1  -5  -7    0.17    0.20
  -1  -5  -7   -0.05    0.13
  -2  -5  -7   17.78    1.23
  -2  -5  -7   19.57    1.20
  -3  -5  -7    0.57    0.14
  -3  -5  -7    0.24    0.17
  -3  -5  -7    0.40    0.16
  -4  -5  -7    8.82    0.63
  -4  -5  -7    9.79    0.63
  -4  -5  -7    9.62    0.66
  -5  -5  -7    0.40    0.12
  -5  -5  -7    0.30    0.14
  -6   6   7    2.79    0.24
  -6   6   7    2.45    0.21
  -5   6   7    0.16    0.10
  -5   6   7    0.30    0.13
  -5   6   7    0.04    0.12
  -4   6   7    0.06    0.14
  -4   6   7   -0.07    0.13
  -3   6   7    0.30    0.15
  -3   6   7    0.16    0.08
  -3   6   7    0.44    0.14
  -2   6   7    3.54    0.28
   1  -6  -7    0.10    0.14
  -1   6   7    0.34    0.13
   0  -6  -7    7.83    0.54
  -1  -6  -7    6.15    0.47
  -1  -6  -7    7.13    0.46
  -2  -6  -7    1.21    0.18
  -2  -6  -7    1.10    0.11
  -2  -6  -7    1.22    0.20
  -3  -6  -7    0.21    0.13
  -3  -6  -7    0.27    0.17
  -3  -6  -7    0.36    0.15
  -4  -6  -7   20.37    1.32
  -4  -6  -7   21.98    1.38
  -4   7   7    4.38    0.32
  -4   7   7    4.33    0.34
  -3   7   7   -0.06    0.06
  -3   7   7   -0.04    0.12
  -3   7   7    0.15    0.11
   2  -7  -7    0.18    0.13
  -2   7   7    0.20    0.08
  -2   7   7    0.19    0.11
   1  -7  -7    0.87    0.13
  -1   7   7    0.93    0.10
   0  -7  -7   -0.18    0.14
   0  -7  -7    0.04    0.09
   0   7   7    0.04    0.08
  -1  -7  -7    1.12    0.11
  -1  -7  -7    1.13    0.17
  -1  -7  -7    1.30    0.17
  -2  -7  -7    3.75    0.29
  -2  -7  -7    3.11    0.27
  -3  -7  -7    4.29    0.33
  -3 -11   8    3.18    0.25
  -2 -11   8    0.68    0.09
  -2 -11   8    0.93    0.12
  -2 -11   8    0.53    0.11
  -1 -11   8    0.15    0.10
  -1 -11   8    0.01    0.10
   0 -11   8    4.08    0.29
   0 -11   8    3.66    0.33
   1 -11   8    0.88    0.14
   1 -11   8    1.09    0.12
  -2  11  -8    1.99    0.18
   2 -11   8    2.31    0.18
  -3  11  -8    2.79    0.20
   3 -11   8    2.42    0.20
  -5 -10   8   -0.04    0.07
  -5 -10   8    0.13    0.06
  -4 -10   8    2.40    0.24
  -4 -10   8    2.36    0.22
  -4 -10   8    3.07    0.21
  -3 -10   8    1.50    0.23
  -3 -10   8    2.50    0.18
  -3 -10   8    1.96    0.21
  -2 -10   8    0.16    0.13
  -2 -10   8    0.13    0.17
  -2 -10   8    0.32    0.12
  -1 -10   8    6.16    0.42
  -1 -10   8    5.23    0.46
   0 -10   8    1.13    0.11
   0 -10   8    1.36    0.17
   1 -10   8    3.38    0.26
  -2  10  -8    6.33    0.44
   2 -10   8    6.56    0.45
  -3  10  -8    2.13    0.21
   3 -10   8    2.18    0.21
  -4  10  -8    0.46    0.14
  -4  10  -8    0.39    0.14
  -4  10  -8    0.28    0.07
  -5  10  -8    2.11    0.22
  -5  10  -8    2.64    0.21
  -6  -9   8   -0.08    0.12
  -6  -9   8    0.05    0.13
  -5  -9   8   -0.09    0.13
  -5  -9   8    0.07    0.12
  -5  -9   8    0.19    0.09
  -4  -9   8    0.93    0.17
  -4  -9   8    1.04    0.17
  -4  -9   8    1.47    0.14
  -3  -9   8    1.27    0.13
  -3  -9   8    1.21    0.17
  -3  -9   8    0.88    0.14
  -2  -9   8    0.71    0.13
  -2  -9   8    0.74    0.15
  -2  -9   8    0.70    0.15
  -1  -9   8    7.25    0.46
  -1  -9   8    6.44    0.50
   0  -9   8    0.17    0.14
   0  -9   8    0.11    0.11
   1  -9   8    1.43    0.17
  -2   9  -8    0.39    0.13
   2  -9   8    0.34    0.11
  -3   9  -8    1.31    0.15
  -4   9  -8   -0.02    0.15
  -4   9  -8    0.06    0.08
  -5   9  -8    3.29    0.33
  -5   9  -8    3.64    0.30
  -6   9  -8    1.14    0.15
  -6   9  -8    1.05    0.12
  -7  -8   8    0.76    0.12
  -7  -8   8    1.00    0.15
  -6  -8   8    1.87    0.22
  -6  -8   8    1.57    0.19
  -5  -8   8    5.51    0.35
  -5  -8   8    4.20    0.38
  -5  -8   8    5.30    0.43
  -4  -8   8    0.16    0.07
  -4  -8   8    0.04    0.13
  -4  -8   8   -0.06    0.14
  -4  -8   8   -0.16    0.20
  -3  -8   8    0.32    0.15
  -3  -8   8    0.28    0.12
  -3  -8   8    0.34    0.19
  -3  -8   8    0.29    0.12
  -2  -8   8   15.44    1.14
  -2  -8   8   14.37    0.98
  -2  -8   8   14.95    0.97
  -1  -8   8    2.39    0.28
  -1  -8   8    2.86    0.24
   0  -8   8   -0.05    0.14
   0  -8   8    0.00    0.09
   1  -8   8    7.75    0.54
  -2   8  -8    6.14    0.46
   2  -8   8    6.22    0.45
  -3   8  -8    3.46    0.31
  -4   8  -8    4.41    0.34
  -5   8  -8    3.38    0.30
  -5   8  -8    2.79    0.33
  -6   8  -8    1.49    0.17
  -6   8  -8    1.63    0.20
  -6   8  -8    1.95    0.21
  -7   8  -8    3.42    0.30
  -8  -7   8    3.85    0.34
  -8  -7   8    5.01    0.35
  -7  -7   8    2.42    0.26
  -7  -7   8    2.48    0.28
  -6  -7   8    1.10    0.16
  -6  -7   8    1.37    0.19
  -6  -7   8    1.27    0.14
  -5  -7   8    0.71    0.12
  -5  -7   8    0.81    0.17
  -5  -7   8    0.51    0.21
  -4  -7   8    0.05    0.11
  -4  -7   8    0.04    0.15
  -4  -7   8    0.07    0.08
  -4  -7   8   -0.04    0.14
  -3  -7   8    0.86    0.16
  -3  -7   8    1.18    0.16
  -3  -7   8    0.77    0.12
  -2  -7   8    1.53    0.44
  -2  -7   8    1.19    0.15
  -2  -7   8    0.94    0.16
  -2  -7   8    0.93    0.17
  -1  -7   8    1.19    0.41
  -1  -7   8    1.78    0.21
  -1  -7   8    1.77    0.18
   0  -7   8    2.10    0.20
   0  -7   8    1.17    0.41
   1  -7   8    1.49    0.41
   1  -7   8    1.40    0.14
  -2   7  -8    0.23    0.16
  -3   7  -8    7.71    0.56
  -4   7  -8    5.09    0.44
  -4   7  -8    5.39    0.38
  -5   7  -8    2.23    0.19
  -5   7  -8    2.49    0.27
  -5   7  -8    1.83    0.25
  -6   7  -8    2.19    0.20
  -6   7  -8    2.72    0.23
  -6   7  -8    2.11    0.28
  -7   7  -8    0.46    0.13
  -7   7  -8   -0.06    0.10
  -8  -6   8    2.38    0.23
  -8  -6   8    2.58    0.24
  -7  -6   8    0.08    0.12
  -7  -6   8    0.14    0.19
  -6  -6   8   11.60    0.83
  -6  -6   8   10.23    0.65
  -6  -6   8    9.17    0.73
  -5  -6   8    0.13    0.16
  -5  -6   8   -0.08    0.19
  -5  -6   8    0.03    0.09
  -4  -6   8    1.10    0.18
  -4  -6   8    1.08    0.15
  -4  -6   8    0.57    0.31
  -4  -6   8    1.09    0.12
  -4  -6   8    1.14    0.17
  -3  -6   8    0.92    0.14
  -3  -6   8    1.25    0.16
  -3  -6   8    0.78    0.14
  -3  -6   8    1.21    0.31
  -2  -6   8   24.99    1.96
  -2  -6   8   23.58    1.81
  -2  -6   8   26.02    2.15
  -2  -6   8   25.15    1.83
  -2  -6   8   24.79    1.61
  -2  -6   8   24.81    1.56
  -1  -6   8   36.49    2.99
  -1  -6   8   40.14    2.47
  -1  -6   8   39.91    2.51
  -1  -6   8   39.33    3.26
   0  -6   8    4.44    0.33
   0  -6   8    4.83    0.63
   1  -6   8    1.99    0.21
   1  -6   8    1.53    0.39
  -2   6  -8   -0.05    0.12
  -2   6  -8   -0.13    0.34
  -3   6  -8    0.67    0.13
  -3   6  -8    0.45    0.42
  -4   6  -8    1.28    0.13
  -4   6  -8    0.98    0.18
  -5   6  -8   -0.04    0.08
  -5   6  -8   -0.04    0.14
  -5   6  -8    0.20    0.18
  -5   6  -8   -0.10    0.16
  -6   6  -8    4.69    0.38
  -6   6  -8    4.52    0.37
  -6   6  -8    5.54    0.49
  -7   6  -8    1.25    0.18
  -7   6  -8    1.10    0.14
  -8   6  -8    0.85    0.18
  -9  -5   8    0.87    0.11
  -9  -5   8    0.61    0.11
  -8  -5   8   -0.11    0.10
  -8  -5   8    0.17    0.17
  -7  -5   8    0.14    0.17
  -7  -5   8    0.05    0.13
  -6  -5   8    0.23    0.15
  -6  -5   8    0.73    0.10
  -6  -5   8    0.78    0.19
  -6  -5   8    0.58    0.22
  -5  -5   8   -0.13    0.16
  -5  -5   8   -0.01    0.10
  -5  -5   8   -0.09    0.16
  -5  -5   8   -0.02    0.13
  -4  -5   8    5.40    0.43
  -4  -5   8    5.40    0.38
  -4  -5   8    5.79    0.39
  -4  -5   8    4.80    0.48
  -4  -5   8    5.14    0.45
  -4  -5   8    5.33    0.43
  -4  -5   8    5.07    0.70
  -3  -5   8    5.37    0.55
  -3  -5   8    5.46    0.46
  -3  -5   8    6.13    0.41
  -3  -5   8    5.21    0.59
  -3  -5   8    5.61    0.41
  -3  -5   8    5.32    0.36
  -3  -5   8    5.94    0.63
  -3  -5   8    5.77    0.50
  -2  -5   8    0.18    0.13
  -2  -5   8    0.22    0.32
  -2  -5   8    0.40    0.11
  -2  -5   8    0.14    0.07
  -2  -5   8    0.17    0.32
  -2  -5   8   -0.13    0.11
  -2  -5   8   -0.01    0.26
  -1  -5   8    8.43    0.84
  -1  -5   8    8.24    0.53
  -1  -5   8    8.06    0.72
  -1  -5   8    7.80    0.79
  -1  -5   8    7.51    0.56
   0  -5   8    0.51    0.10
   0  -5   8    1.27    0.27
  -1   5  -8   22.41    1.66
   1  -5   8   20.85    1.85
  -2   5  -8   20.59    1.53
  -2   5  -8   19.18    1.28
  -3   5  -8   -0.15    0.11
  -3   5  -8    0.12    0.39
  -4   5  -8    4.16    0.34
  -4   5  -8    4.45    0.42
  -4   5  -8    4.59    0.47
  -5   5  -8    1.49    0.27
  -5   5  -8    1.04    0.12
  -5   5  -8    1.11    0.20
  -5   5  -8    1.08    0.17
  -6   5  -8    0.37    0.15
  -6   5  -8    0.24    0.24
  -7   5  -8    0.73    0.16
  -7   5  -8    0.59    0.16
  -8   5  -8    3.35    0.23
  -8   5  -8    2.86    0.29
  -9  -4   8    0.32    0.10
  -9  -4   8    0.34    0.14
  -8  -4   8    0.09    0.12
  -8  -4   8    0.43    0.16
  -8  -4   8    0.20    0.17
  -7  -4   8    4.84    0.43
  -7  -4   8    5.01    0.41
  -7  -4   8    4.79    0.42
  -6  -4   8    0.02    0.15
  -6  -4   8   -0.28    0.19
  -6  -4   8    0.00    0.12
  -5  -4   8   -0.06    0.18
  -5  -4   8   -0.10    0.16
  -5  -4   8    0.19    0.07
  -5  -4   8    0.21    0.39
  -5  -4   8   -0.02    0.12
  -5  -4   8    0.12    0.18
  -4  -4   8    1.75    0.18
  -4  -4   8    1.82    0.19
  -4  -4   8    1.85    0.42
  -4  -4   8    1.70    0.22
  -4  -4   8    1.53    0.26
  -4  -4   8    1.68    0.19
  -4  -4   8    1.41    0.30
  -4  -4   8    1.65    0.17
  -3  -4   8    2.51    0.22
  -3  -4   8    2.44    0.18
  -3  -4   8    2.80    0.40
  -3  -4   8    2.47    0.43
  -3  -4   8    2.48    0.24
  -3  -4   8    1.68    0.34
  -3  -4   8    2.41    0.30
  -2  -4   8    2.85    0.42
  -2  -4   8    1.86    0.19
  -2  -4   8    2.00    0.20
  -2  -4   8    1.95    0.18
  -2  -4   8    2.17    0.39
  -2  -4   8    2.44    0.35
  -2  -4   8    2.14    0.27
  -1  -4   8    1.36    0.30
  -1  -4   8    1.22    0.15
  -1  -4   8    1.47    0.35
  -1  -4   8    1.50    0.36
   0   4  -8   11.44    0.99
   0  -4   8   13.49    1.14
   0  -4   8   12.44    0.82
  -1   4  -8   11.13    0.91
   1  -4   8   10.43    1.00
  -2   4  -8    5.81    0.69
  -2   4  -8    5.02    0.39
  -3   4  -8   20.20    1.22
  -3   4  -8   17.64    1.25
  -3   4  -8   18.88    1.49
  -4   4  -8    0.20    0.13
  -4   4  -8    0.31    0.16
  -4   4  -8    0.85    0.42
  -4   4  -8    0.54    0.17
  -5   4  -8    0.25    0.15
  -5   4  -8    0.51    0.18
  -5   4  -8    0.32    0.08
  -5   4  -8    0.41    0.24
  -6   4  -8    1.05    0.16
  -6   4  -8    0.48    0.15
  -6   4  -8    0.88    0.25
  -7   4  -8    4.34    0.40
  -7   4  -8    4.52    0.33
  -8   4  -8    2.44    0.25
  -8   4  -8    2.45    0.19
  -9  -3   8    0.08    0.11
  -9  -3   8    0.01    0.14
  -8  -3   8    0.12    0.18
  -8  -3   8    0.24    0.16
  -8  -3   8    0.19    0.16
  -7  -3   8    0.00    0.12
  -7  -3   8   -0.07    0.18
  -7  -3   8   -0.26    0.11
  -7  -3   8   -0.01    0.05
  -6  -3   8    1.63    0.21
  -6  -3   8    1.24    0.20
  -6  -3   8    1.34    0.23
  -5  -3   8   35.19    2.57
  -5  -3   8   37.24    2.40
  -5  -3   8   32.69    2.37
  -5  -3   8   33.45    2.22
  -5  -3   8   36.25    2.16
  -4  -3   8    3.45    0.38
  -4  -3   8    4.28    0.30
  -4  -3   8    3.54    0.40
  -4  -3   8    2.90    0.43
  -4  -3   8    3.93    0.30
  -4  -3   8    3.53    0.33
  -4  -3   8    3.48    0.33
  -4  -3   8    3.91    0.53
  -3  -3   8    0.47    0.15
  -3  -3   8    0.24    0.31
  -3  -3   8    0.49    0.07
  -3  -3   8    0.35    0.12
  -3  -3   8    0.78    0.24
  -3  -3   8    0.63    0.33
  -3  -3   8    0.47    0.11
  -2  -3   8    4.78    0.58
  -2  -3   8    4.98    0.43
  -2  -3   8    5.43    0.52
  -2  -3   8    5.82    0.56
  -2  -3   8    4.93    0.38
  -2  -3   8    4.94    0.35
  -2  -3   8    5.21    0.38
  -1  -3   8    8.00    0.76
  -1  -3   8    8.74    0.80
  -1  -3   8    7.39    0.54
  -1  -3   8    7.59    0.52
  -1  -3   8    8.48    0.70
   0  -3   8    7.22    0.73
  -1   3  -8   43.29    2.85
   1  -3   8   36.64    3.27
  -2   3  -8   23.02    1.74
  -2   3  -8   22.67    1.47
  -3   3  -8    2.82    0.45
  -3   3  -8    1.68    0.43
  -3   3  -8    1.13    0.43
  -3   3  -8    2.30    0.27
  -3   3  -8    2.73    0.25
  -3   3  -8    2.66    0.34
  -4   3  -8    0.05    0.20
  -4   3  -8   -0.37    0.39
  -4   3  -8    0.01    0.15
  -4   3  -8   -0.09    0.12
  -4   3  -8   -0.05    0.18
  -5   3  -8    4.63    0.47
  -5   3  -8    5.05    0.40
  -5   3  -8    4.05    0.42
  -5   3  -8    4.39    0.30
  -6   3  -8    0.27    0.14
  -6   3  -8   -0.09    0.14
  -6   3  -8    0.22    0.23
  -6   3  -8    0.16    0.16
  -7   3  -8    0.29    0.15
  -7   3  -8    0.40    0.16
  -7   3  -8    0.55    0.22
  -8   3  -8    0.02    0.12
  -8   3  -8    0.12    0.09
  -9  -2   8    0.84    0.12
  -9  -2   8    0.72    0.12
  -8  -2   8    0.64    0.18
  -8  -2   8    0.69    0.19
  -7  -2   8   -0.05    0.08
  -7  -2   8    0.09    0.12
  -7  -2   8    0.11    0.18
  -7  -2   8    0.07    0.18
  -6  -2   8    1.97    0.25
  -6  -2   8    1.89    0.23
  -6  -2   8    2.40    0.20
  -6  -2   8    2.19    0.25
  -5  -2   8    0.71    0.17
  -5  -2   8    0.71    0.16
  -5  -2   8    0.66    0.19
  -5  -2   8    0.98    0.29
  -5  -2   8    0.83    0.11
  -5  -2   8    0.34    0.20
  -4  -2   8   16.59    1.50
  -4  -2   8   18.65    1.33
  -4  -2   8   18.07    1.40
  -4  -2   8   19.55    1.44
  -4  -2   8   19.85    1.35
  -4  -2   8   20.91    1.71
  -4  -2   8   19.98    1.25
  -4  -2   8   20.88    1.22
  -3  -2   8   16.94    1.11
  -3  -2   8   17.83    1.12
  -3  -2   8   18.42    1.30
  -3  -2   8   17.72    1.40
  -3  -2   8   19.26    1.55
  -3  -2   8   17.85    1.15
  -3  -2   8   16.04    1.31
  -2  -2   8    2.54    0.19
  -2  -2   8    2.58    0.23
  -2  -2   8    2.36    0.24
  -2  -2   8    2.27    0.40
  -2  -2   8    2.59    0.35
  -2  -2   8    2.43    0.39
  -1  -2   8    3.11    0.26
  -1  -2   8    4.04    0.44
  -1  -2   8    2.37    0.35
  -1  -2   8    3.70    0.45
   0  -2   8    4.73    0.35
  -2   2  -8   10.83    0.95
  -2   2  -8   10.82    0.72
  -3   2  -8   32.47    2.03
  -3   2  -8   30.77    2.07
  -3   2  -8   32.47    2.36
  -4   2  -8   14.31    0.98
  -4   2  -8   16.32    0.98
  -4   2  -8   15.08    1.16
  -4   2  -8   13.79    1.25
  -5   2  -8    0.33    0.19
  -5   2  -8    0.15    0.21
  -5   2  -8    0.08    0.16
  -5   2  -8    0.48    0.17
  -6   2  -8   -0.03    0.12
  -6   2  -8   -0.01    0.15
  -6   2  -8    0.05    0.18
  -6   2  -8    0.16    0.22
  -7   2  -8    0.63    0.18
  -7   2  -8    0.55    0.21
  -7   2  -8    0.61    0.16
  -8   2  -8   17.81    1.03
  -8   2  -8   14.76    1.23
  -8   2  -8   17.21    1.15
  -9  -1   8    0.20    0.09
  -9  -1   8    0.27    0.10
  -8  -1   8    0.07    0.16
  -8  -1   8    0.34    0.17
  -7  -1   8   -0.28    0.18
  -7  -1   8    0.11    0.09
  -7  -1   8   -0.11    0.17
  -6  -1   8   10.84    0.86
  -6  -1   8   11.03    0.80
  -6  -1   8   11.40    0.71
  -6  -1   8   11.13    0.82
  -5  -1   8    8.40    0.95
  -5  -1   8    9.54    0.69
  -5  -1   8   10.00    0.71
  -5  -1   8    9.18    0.74
  -5  -1   8    9.36    0.62
  -5  -1   8    9.79    0.63
  -4  -1   8    6.92    0.71
  -4  -1   8    7.81    0.82
  -4  -1   8    7.30    0.57
  -4  -1   8    7.25    0.61
  -4  -1   8    7.61    0.65
  -4  -1   8    8.60    0.54
  -4  -1   8    8.35    0.59
  -3  -1   8    0.04    0.13
  -3  -1   8    0.13    0.11
  -3  -1   8    0.11    0.29
  -3  -1   8   -0.11    0.07
  -3  -1   8   -0.07    0.27
  -3  -1   8    0.35    0.26
  -2  -1   8   18.77    1.20
  -2  -1   8   18.08    1.23
  -2  -1   8   20.12    1.62
  -2  -1   8   18.69    1.39
  -2  -1   8   18.62    1.50
  -1  -1   8   12.03    0.97
  -1  -1   8   12.16    1.02
  -1  -1   8   12.16    0.79
  -1   1  -8    5.56    0.44
  -2   1  -8    7.26    0.52
  -3   1  -8    0.26    0.30
  -3   1  -8    0.01    0.35
  -3   1  -8    0.50    0.39
  -3   1  -8    0.65    0.14
  -3   1  -8    0.55    0.16
  -4   1  -8    0.19    0.12
  -4   1  -8   -0.11    0.38
  -4   1  -8   -0.17    0.20
  -4   1  -8    0.09    0.18
  -5   1  -8    0.06    0.20
  -5   1  -8   -0.01    0.19
  -5   1  -8    0.06    0.14
  -6   1  -8    3.27    0.35
  -6   1  -8    2.15    0.27
  -6   1  -8    2.51    0.24
  -6   1  -8    2.65    0.27
  -7   1  -8    1.15    0.21
  -7   1  -8    1.48    0.21
  -7   1  -8    1.10    0.14
  -8   1  -8    1.80    0.22
  -8   1  -8    1.78    0.22
  -9   0   8    0.69    0.11
  -9   0   8    0.97    0.14
  -8   0   8    0.61    0.12
  -8   0   8    0.69    0.17
  -7   0   8    0.70    0.17
  -7   0   8    0.75    0.11
  -7   0   8    0.84    0.19
  -7   0   8    0.84    0.16
  -6   0   8    2.22    0.27
  -6   0   8    2.20    0.24
  -6   0   8    2.11    0.22
  -6   0   8    1.91    0.22
  -5   0   8   18.11    1.29
  -5   0   8   17.61    1.14
  -5   0   8   18.05    1.18
  -5   0   8   19.00    1.27
  -4   0   8    4.73    0.33
  -4   0   8    5.53    0.42
  -4   0   8    4.23    0.50
  -4   0   8    5.34    0.38
  -4   0   8    5.49    0.39
  -4   0   8    4.90    0.63
  -4   0   8    5.30    0.42
  -3   0   8   14.06    1.18
  -3   0   8   15.24    1.37
  -3   0   8   16.02    1.02
  -3   0   8   16.09    1.00
  -3   0   8   17.11    1.10
  -3   0   8   14.93    0.99
  -3   0   8   15.72    1.27
  -3   0   8   14.91    1.17
  -2   0   8    4.74    0.54
  -2   0   8    4.73    0.37
  -2   0   8    5.09    0.35
  -2   0   8    4.28    0.53
  -1   0   8    0.09    0.08
  -1   0  -8   10.94    0.76
  -2   0  -8    1.31    0.16
  -3   0  -8    2.84    0.28
  -3   0  -8    1.36    0.47
  -3   0  -8    2.60    0.27
  -4   0  -8    4.14    0.30
  -4   0  -8    3.83    0.35
  -4   0  -8    3.32    0.41
  -4   0  -8    3.53    0.35
  -5   0  -8    0.56    0.17
  -5   0  -8    0.39    0.15
  -5   0  -8    0.54    0.14
  -6   0  -8    0.05    0.09
  -6   0  -8   -0.13    0.14
  -6   0  -8    0.12    0.19
  -7   0  -8    0.67    0.14
  -7   0  -8    0.70    0.14
  -8   0  -8    0.17    0.13
  -9   1   8    7.25    0.52
  -8   1   8    2.25    0.22
  -8   1   8    2.57    0.23
  -8   1   8    2.69    0.25
  -7   1   8    3.10    0.30
  -7   1   8    2.31    0.26
  -7   1   8    3.28    0.30
  -7   1   8    3.27    0.23
  -6   1   8    0.03    0.06
  -6   1   8    0.26    0.15
  -6   1   8    0.00    0.10
  -6   1   8   -0.13    0.15
  -5   1   8    9.00    0.59
  -5   1   8    8.86    0.67
  -5   1   8    8.82    0.65
  -5   1   8    8.23    0.59
  -4   1   8    1.75    0.37
  -4   1   8    2.47    0.26
  -4   1   8    1.61    0.20
  -4   1   8    1.98    0.16
  -4   1   8    2.33    0.21
  -3   1   8    3.56    0.49
  -3   1   8    4.62    0.34
  -3   1   8    4.47    0.37
  -3   1   8    4.69    0.36
  -3   1   8    4.98    0.33
  -3   1   8    3.16    0.51
  -3   1   8    4.88    0.49
  -2   1   8    1.95    0.21
  -2   1   8    1.72    0.16
  -2   1   8    0.55    0.37
  -2   1   8    1.32    0.37
  -1   1   8   46.14    2.91
  -1  -1  -8    3.52    0.36
  -2  -1  -8    0.44    0.17
  -2  -1  -8    0.39    0.13
  -3  -1  -8    2.02    0.19
  -3  -1  -8    1.85    0.25
  -3  -1  -8    1.44    0.23
  -4  -1  -8    4.46    0.31
  -4  -1  -8    4.58    0.42
  -4  -1  -8    4.19    0.38
  -4  -1  -8    4.63    0.38
  -5  -1  -8    1.53    0.23
  -5  -1  -8    0.97    0.17
  -5  -1  -8    1.39    0.19
  -6  -1  -8    1.72    0.19
  -6  -1  -8    1.86    0.20
  -7  -1  -8    0.31    0.12
  -7  -1  -8    0.25    0.16
  -8   2   8    1.30    0.14
  -8   2   8    1.17    0.15
  -7   2   8    0.78    0.16
  -7   2   8    0.78    0.12
  -7   2   8    0.74    0.11
  -6   2   8    1.16    0.18
  -6   2   8    0.99    0.11
  -6   2   8    0.94    0.13
  -6   2   8    1.01    0.13
  -5   2   8    3.34    0.31
  -5   2   8    3.07    0.28
  -5   2   8    2.90    0.33
  -5   2   8    3.26    0.30
  -4   2   8    0.69    0.17
  -4   2   8    1.04    0.15
  -4   2   8    1.13    0.12
  -4   2   8    0.80    0.17
  -3   2   8    0.33    0.17
  -3   2   8    0.34    0.26
  -3   2   8    0.22    0.11
  -3   2   8    0.44    0.11
  -2   2   8    0.35    0.18
  -2   2   8    0.39    0.12
  -1   2   8    0.02    0.11
  -1  -2  -8    4.10    0.39
  -2  -2  -8    1.18    0.24
  -2  -2  -8    0.90    0.15
  -2  -2  -8    1.11    0.18
  -3  -2  -8    5.27    0.43
  -3  -2  -8    5.36    0.39
  -3  -2  -8    5.21    0.46
  -4  -2  -8    0.75    0.20
  -4  -2  -8    0.56    0.16
  -4  -2  -8    0.28    0.22
  -4  -2  -8    0.45    0.16
  -5  -2  -8    6.79    0.50
  -5  -2  -8    7.84    0.49
  -5  -2  -8    6.28    0.53
  -6  -2  -8    0.08    0.12
  -6  -2  -8   -0.07    0.12
  -7  -2  -8    0.13    0.07
  -7  -2  -8    0.06    0.14
  -8   3   8    4.33    0.34
  -7   3   8    0.10    0.11
  -7   3   8    0.00    0.14
  -6   3   8    2.21    0.22
  -6   3   8    2.58    0.19
  -6   3   8    2.28    0.24
  -5   3   8    8.80    0.60
  -5   3   8    8.55    0.60
  -5   3   8    9.89    0.69
  -4   3   8   11.61    0.73
  -4   3   8   10.28    0.69
  -3   3   8    0.12    0.11
  -3   3   8    0.41    0.19
  -2   3   8    0.01    0.10
  -1   3   8    2.87    0.28
   0  -3  -8   -0.13    0.15
  -1  -3  -8    0.00    0.14
  -2  -3  -8    0.87    0.24
  -2  -3  -8    1.03    0.17
  -3  -3  -8    4.40    0.41
  -3  -3  -8    5.10    0.40
  -3  -3  -8    4.79    0.34
  -4  -3  -8    2.62    0.29
  -4  -3  -8    2.59    0.26
  -4  -3  -8    2.86    0.29
  -4  -3  -8    2.33    0.25
  -5  -3  -8    0.41    0.15
  -5  -3  -8    0.36    0.11
  -5  -3  -8    0.54    0.16
  -6  -3  -8    0.08    0.10
  -6  -3  -8    0.30    0.10
  -7   4   8    0.44    0.09
  -7   4   8    0.54    0.10
  -6   4   8    8.44    0.65
  -6   4   8    9.42    0.58
  -5   4   8    0.24    0.15
  -5   4   8    0.23    0.11
  -5   4   8    0.17    0.13
  -4   4   8    7.08    0.47
  -4   4   8    6.55    0.47
  -4   4   8    5.98    0.42
  -4   4   8    7.11    0.52
  -3   4   8    1.63    0.23
  -3   4   8    1.89    0.20
  -2   4   8   22.42    1.43
  -1   4   8    0.20    0.12
   0  -4  -8    0.86    0.17
  -1  -4  -8    4.63    0.37
  -2  -4  -8    0.92    0.20
  -2  -4  -8    0.97    0.14
  -3  -4  -8    1.98    0.23
  -3  -4  -8    1.68    0.19
  -4  -4  -8    7.44    0.53
  -4  -4  -8    8.99    0.55
  -4  -4  -8    7.70    0.57
  -5  -4  -8   -0.15    0.11
  -5  -4  -8    0.06    0.14
  -6   5   8    0.34    0.10
  -6   5   8    0.17    0.08
  -5   5   8    3.13    0.28
  -5   5   8    2.95    0.23
  -5   5   8    2.46    0.21
  -4   5   8    3.37    0.32
  -4   5   8    3.43    0.29
  -3   5   8    5.68    0.44
  -3   5   8    6.10    0.40
  -2   5   8    0.72    0.12
   1  -5  -8    0.56    0.12
  -1   5   8    0.75    0.10
   0  -5  -8   10.91    0.68
   0   5   8    9.36    0.66
  -1  -5  -8    3.81    0.35
  -1  -5  -8    3.85    0.30
  -2  -5  -8   -0.21    0.11
  -2  -5  -8    0.07    0.11
  -2  -5  -8    0.16    0.07
  -3  -5  -8    2.57    0.24
  -3  -5  -8    2.28    0.23
  -4  -5  -8    2.70    0.20
  -4  -5  -8    2.67    0.25
  -4  -5  -8    2.31    0.23
  -5   6   8    1.16    0.13
  -5   6   8    1.01    0.10
  -4   6   8   -0.04    0.11
  -4   6   8    0.25    0.11
  -3   6   8    2.35    0.15
  -3   6   8    1.81    0.19
  -3   6   8    1.80    0.18
   2  -6  -8    2.26    0.21
  -2   6   8    2.58    0.20
   1  -6  -8   10.18    0.62
  -1   6   8    8.33    0.59
   0  -6  -8    1.17    0.14
   0   6   8    1.22    0.12
  -1  -6  -8    0.85    0.13
  -1  -6  -8    0.78    0.13
  -1  -6  -8    0.94    0.10
  -2  -6  -8    0.83    0.15
  -2  -6  -8    1.05    0.14
  -3  -6  -8    0.42    0.10
  -3  -6  -8    0.37    0.10
  -2 -11   9    5.34    0.42
  -1 -11   9    2.48    0.25
  -1 -11   9    3.48    0.24
   0 -11   9    0.57    0.11
   0 -11   9    0.66    0.09
  -1  11  -9    0.11    0.10
   1 -11   9    0.04    0.08
  -2  11  -9    1.88    0.17
  -4 -10   9    0.14    0.09
  -4 -10   9    0.39    0.10
  -3 -10   9   -0.08    0.15
  -3 -10   9   -0.09    0.10
  -2 -10   9    2.23    0.20
  -2 -10   9    2.04    0.24
  -2 -10   9    2.67    0.22
  -1 -10   9    1.17    0.19
  -1 -10   9    1.10    0.14
   0 -10   9    0.52    0.12
   0 -10   9    0.37    0.10
  -1  10  -9    2.51    0.27
   1 -10   9    3.06    0.22
  -2  10  -9    0.32    0.08
   2 -10   9    0.47    0.10
  -3  10  -9    0.26    0.09
   3 -10   9    0.20    0.06
  -4  10  -9    0.48    0.15
  -5  -9   9    0.15    0.11
  -5  -9   9    0.22    0.09
  -4  -9   9    0.37    0.17
  -4  -9   9   -0.04    0.10
  -3  -9   9    2.72    0.26
  -3  -9   9    3.24    0.25
  -2  -9   9    1.59    0.15
  -2  -9   9    1.25    0.17
  -2  -9   9    1.39    0.17
  -1  -9   9    0.19    0.13
  -1  -9   9    0.34    0.17
   0  -9   9    4.40    0.37
   0  -9   9    4.70    0.32
   1  -9   9    0.94    0.12
  -2   9  -9    1.20    0.15
   2  -9   9    0.96    0.13
  -3   9  -9    9.93    0.62
   3  -9   9    8.67    0.62
  -4   9  -9    0.62    0.11
  -4   9  -9    0.71    0.16
  -4   9  -9    0.93    0.15
  -5   9  -9    0.57    0.14
  -5   9  -9    0.99    0.12
  -7  -8   9    0.19    0.08
  -6  -8   9    2.28    0.22
  -6  -8   9    1.69    0.18
  -5  -8   9    0.90    0.11
  -5  -8   9    0.61    0.11
  -5  -8   9    0.64    0.19
  -4  -8   9   -0.08    0.13
  -4  -8   9    0.10    0.10
  -4  -8   9    0.08    0.06
  -3  -8   9    0.28    0.09
  -3  -8   9    0.41    0.14
  -3  -8   9    0.36    0.12
  -2  -8   9    0.96    0.19
  -2  -8   9    0.62    0.13
  -2  -8   9    0.93    0.15
  -1  -8   9    1.23    0.17
   0  -8   9    6.06    0.47
   0  -8   9    6.25    0.43
   1  -8   9    0.26    0.11
  -2   8  -9    3.55    0.31
   2  -8   9    3.05    0.28
  -3   8  -9    0.00    0.11
  -4   8  -9    6.52    0.45
  -4   8  -9    6.94    0.51
  -4   8  -9    6.99    0.59
  -5   8  -9    0.75    0.16
  -5   8  -9    0.87    0.15
  -6   8  -9    1.09    0.19
  -7  -7   9    0.71    0.10
  -7  -7   9    0.49    0.12
  -6  -7   9    0.22    0.13
  -6  -7   9    0.08    0.10
  -5  -7   9    1.18    0.21
  -5  -7   9    0.95    0.11
  -5  -7   9    0.67    0.16
  -4  -7   9    1.02    0.22
  -4  -7   9    0.94    0.16
  -4  -7   9    1.35    0.14
  -3  -7   9    0.15    0.12
  -3  -7   9    0.18    0.18
  -3  -7   9    0.19    0.12
  -2  -7   9    0.90    0.19
  -2  -7   9    0.60    0.17
  -2  -7   9    0.82    0.09
  -2  -7   9    0.63    0.16
  -1  -7   9   15.36    1.03
   0  -7   9   -0.02    0.11
   1  -7   9    0.16    0.13
  -2   7  -9    6.74    0.49
   2  -7   9    6.75    0.48
  -3   7  -9    5.75    0.42
  -4   7  -9    0.04    0.11
  -4   7  -9    0.14    0.16
  -4   7  -9   -0.14    0.21
  -5   7  -9    3.85    0.38
  -5   7  -9    4.72    0.35
  -6   7  -9    5.76    0.37
  -6   7  -9    4.43    0.42
  -8  -6   9    0.85    0.13
  -8  -6   9    0.98    0.12
  -7  -6   9    0.71    0.14
  -7  -6   9    0.91    0.16
  -6  -6   9    0.08    0.13
  -6  -6   9    0.12    0.08
  -6  -6   9    0.12    0.10
  -5  -6   9    2.82    0.23
  -5  -6   9    2.56    0.29
  -5  -6   9    2.31    0.28
  -4  -6   9   -0.18    0.08
  -4  -6   9   -0.06    0.11
  -4  -6   9    0.04    0.13
  -3  -6   9   12.64    0.81
  -3  -6   9   12.09    0.79
  -3  -6   9   12.47    0.92
  -3  -6   9   11.30    0.86
  -2  -6   9    0.02    0.16
  -2  -6   9    0.05    0.12
  -2  -6   9    0.12    0.07
  -2  -6   9    0.21    0.12
  -2  -6   9    0.18    0.37
  -1  -6   9    3.08    0.53
  -1  -6   9    3.71    0.32
   0  -6   9    2.39    0.25
   0  -6   9    1.90    0.43
  -1   6  -9    3.34    0.54
   1  -6   9    3.33    0.29
   1  -6   9    1.74    0.46
  -2   6  -9   -0.04    0.13
  -3   6  -9    0.10    0.15
  -4   6  -9    5.68    0.40
  -4   6  -9    5.82    0.54
  -4   6  -9    5.68    0.46
  -5   6  -9    3.79    0.38
  -5   6  -9    4.48    0.38
  -6   6  -9    1.04    0.17
  -6   6  -9    0.82    0.15
  -7   6  -9    1.59    0.16
  -7   6  -9    1.52    0.19
  -8  -5   9    0.62    0.11
  -8  -5   9    0.44    0.13
  -7  -5   9   -0.22    0.12
  -7  -5   9    0.06    0.10
  -6  -5   9    1.94    0.23
  -6  -5   9    1.61    0.20
  -6  -5   9    1.20    0.16
  -5  -5   9   14.11    1.04
  -5  -5   9   14.29    1.03
  -5  -5   9   14.78    0.93
  -5  -5   9   15.94    1.13
  -4  -5   9    2.05    0.19
  -4  -5   9    1.86    0.21
  -4  -5   9    2.07    0.25
  -4  -5   9    1.95    0.19
  -3  -5   9    0.66    0.07
  -3  -5   9    0.57    0.12
  -3  -5   9    0.57    0.18
  -3  -5   9    1.03    0.37
  -3  -5   9    0.74    0.14
  -3  -5   9    0.42    0.14
  -2  -5   9    2.34    0.39
  -2  -5   9    2.12    0.23
  -2  -5   9    2.79    0.28
  -2  -5   9    2.62    0.20
  -2  -5   9    2.48    0.46
  -2  -5   9    2.48    0.26
  -1  -5   9   70.35    4.85
  -1  -5   9   59.52    4.98
  -1  -5   9   63.85    4.25
  -1  -5   9   67.34    4.20
  -1  -5   9   72.16    5.44
   0  -5   9    0.13    0.32
  -1   5  -9   11.76    1.13
   1  -5   9   12.56    1.23
   1  -5   9   14.60    0.89
  -2   5  -9    0.58    0.37
  -2   5  -9    0.77    0.14
  -3   5  -9    0.73    0.14
  -3   5  -9    0.95    0.17
  -4   5  -9    0.65    0.18
  -4   5  -9    0.86    0.14
  -4   5  -9    1.19    0.24
  -5   5  -9    2.37    0.27
  -5   5  -9    1.53    0.19
  -5   5  -9    1.39    0.19
  -5   5  -9    1.70    0.19
  -6   5  -9    0.09    0.12
  -6   5  -9    0.45    0.21
  -6   5  -9    0.15    0.13
  -7   5  -9    0.83    0.15
  -7   5  -9    1.07    0.13
  -8  -4   9    0.16    0.09
  -8  -4   9   -0.05    0.09
  -8  -4   9   -0.01    0.10
  -7  -4   9   -0.07    0.10
  -7  -4   9    0.00    0.14
  -7  -4   9    0.00    0.17
  -6  -4   9    1.77    0.24
  -6  -4   9    1.72    0.20
  -6  -4   9    1.33    0.17
  -5  -4   9    0.13    0.14
  -5  -4   9    0.06    0.06
  -5  -4   9    0.26    0.12
  -5  -4   9    0.16    0.16
  -5  -4   9    0.33    0.18
  -4  -4   9    6.31    0.44
  -4  -4   9    5.90    0.74
  -4  -4   9    6.19    0.53
  -4  -4   9    6.09    0.49
  -4  -4   9    6.17    0.43
  -3  -4   9    7.41    0.50
  -3  -4   9    8.00    0.61
  -3  -4   9    7.61    0.52
  -3  -4   9    7.42    0.48
  -3  -4   9    6.99    0.65
  -3  -4   9    6.50    0.81
  -2  -4   9    7.18    0.73
  -2  -4   9    6.37    0.52
  -2  -4   9    5.40    0.63
  -2  -4   9    6.17    0.42
  -2  -4   9    5.01    0.61
  -2  -4   9    6.61    0.46
  -2  -4   9    6.37    0.45
  -1  -4   9    8.62    0.81
  -1  -4   9    7.71    0.51
  -1  -4   9    7.90    0.61
  -1  -4   9    6.48    0.78
  -1  -4   9    7.15    0.54
   0  -4   9   13.41    1.21
   0  -4   9   13.17    0.86
  -2   4  -9    8.51    0.57
  -2   4  -9    7.16    0.79
  -3   4  -9    4.20    0.58
  -3   4  -9    4.16    0.44
  -3   4  -9    4.80    0.35
  -3   4  -9    4.10    0.40
  -4   4  -9    0.14    0.10
  -4   4  -9   -0.22    0.16
  -4   4  -9    0.22    0.20
  -5   4  -9    0.05    0.11
  -5   4  -9    0.14    0.15
  -5   4  -9   -0.04    0.15
  -6   4  -9    0.07    0.12
  -6   4  -9    0.05    0.14
  -6   4  -9    0.07    0.14
  -6   4  -9    0.04    0.14
  -7   4  -9    0.37    0.11
  -7   4  -9    0.27    0.12
  -9  -3   9    0.01    0.08
  -8  -3   9    4.32    0.36
  -7  -3   9    0.15    0.12
  -7  -3   9    0.13    0.15
  -7  -3   9    0.30    0.12
  -7  -3   9    0.21    0.06
  -6  -3   9    6.97    0.45
  -6  -3   9    6.39    0.51
  -6  -3   9    7.31    0.57
  -6  -3   9    6.37    0.52
  -5  -3   9    9.08    0.68
  -5  -3   9    9.55    0.74
  -5  -3   9    9.39    0.70
  -5  -3   9    9.35    0.61
  -4  -3   9    3.55    0.34
  -4  -3   9    3.15    0.35
  -4  -3   9    3.30    0.27
  -4  -3   9    3.28    0.28
  -4  -3   9    3.12    0.46
  -3  -3   9    0.13    0.14
  -3  -3   9    0.01    0.14
  -3  -3   9   -0.27    0.25
  -3  -3   9   -0.02    0.07
  -3  -3   9   -0.08    0.13
  -3  -3   9   -0.07    0.32
  -2  -3   9    5.61    0.64
  -2  -3   9    5.50    0.66
  -2  -3   9    5.44    0.58
  -2  -3   9    5.50    0.43
  -2  -3   9    6.03    0.39
  -2  -3   9    5.28    0.42
  -1  -3   9    0.70    0.30
  -1  -3   9    0.87    0.12
  -1  -3   9    0.66    0.36
  -1  -3   9   -0.02    0.32
  -1  -3   9    0.72    0.17
   0  -3   9    5.52    0.40
  -2   3  -9    9.08    0.65
  -3   3  -9    1.53    0.18
  -3   3  -9    0.73    0.19
  -4   3  -9    4.17    0.33
  -5   3  -9    1.22    0.17
  -5   3  -9    1.44    0.23
  -5   3  -9    1.19    0.18
  -5   3  -9    1.25    0.20
  -6   3  -9   -0.12    0.16
  -6   3  -9    0.14    0.13
  -6   3  -9    0.03    0.13
  -6   3  -9   -0.03    0.14
  -7   3  -9    1.13    0.16
  -7   3  -9    1.53    0.18
  -7   3  -9    1.44    0.15
  -9  -2   9    1.48    0.16
  -9  -2   9    0.98    0.14
  -8  -2   9    1.25    0.15
  -8  -2   9    1.33    0.17
  -7  -2   9    0.11    0.07
  -7  -2   9   -0.11    0.17
  -7  -2   9    0.14    0.11
  -6  -2   9    5.67    0.45
  -6  -2   9    5.99    0.50
  -6  -2   9    5.87    0.40
  -5  -2   9    0.54    0.10
  -5  -2   9    0.65    0.13
  -5  -2   9    0.35    0.14
  -5  -2   9    0.35    0.10
  -5  -2   9    0.58    0.17
  -4  -2   9   12.36    0.80
  -4  -2   9   12.86    0.87
  -4  -2   9   12.48    0.77
  -4  -2   9   11.34    0.92
  -4  -2   9   10.70    1.10
  -3  -2   9    3.24    0.43
  -3  -2   9    4.06    0.56
  -3  -2   9    3.76    0.33
  -3  -2   9    4.03    0.32
  -3  -2   9    3.74    0.27
  -2  -2   9    5.12    0.61
  -2  -2   9    5.60    0.35
  -2  -2   9    3.73    0.51
  -2  -2   9    5.36    0.39
  -2  -2   9    4.37    0.60
  -1  -2   9    2.06    0.19
   0  -2   9    0.85    0.11
  -1   2  -9    0.29    0.15
  -2   2  -9    1.40    0.20
  -3   2  -9    3.71    0.31
  -3   2  -9    3.38    0.35
  -4   2  -9    3.33    0.27
  -4   2  -9    2.78    0.32
  -4   2  -9    3.84    0.33
  -5   2  -9    0.06    0.14
  -5   2  -9   -0.02    0.15
  -5   2  -9   -0.14    0.18
  -6   2  -9    7.75    0.55
  -6   2  -9    6.68    0.48
  -6   2  -9    6.74    0.47
  -7   2  -9    0.12    0.10
  -7   2  -9    0.05    0.10
  -9  -1   9    0.27    0.10
  -8  -1   9    2.45    0.22
  -8  -1   9    2.16    0.21
  -7  -1   9    1.25    0.17
  -7  -1   9    1.37    0.13
  -7  -1   9    1.30    0.16
  -6  -1   9   -0.06    0.10
  -6  -1   9    0.04    0.09
  -6  -1   9   -0.06    0.17
  -5  -1   9    1.11    0.14
  -5  -1   9    1.30    0.13
  -5  -1   9    1.56    0.20
  -4  -1   9    0.09    0.12
  -4  -1   9   -0.02    0.13
  -4  -1   9    0.16    0.15
  -4  -1   9   -0.01    0.33
  -3  -1   9   11.40    0.77
  -3  -1   9   10.67    1.07
  -3  -1   9   12.04    0.74
  -3  -1   9   11.47    0.83
  -2  -1   9   14.74    0.96
  -2  -1   9   12.67    1.22
  -2  -1   9   15.52    0.94
  -1  -1   9    6.28    0.44
   0  -1   9    0.24    0.10
  -1   1  -9    1.29    0.22
  -2   1  -9    0.38    0.14
  -3   1  -9    0.66    0.18
  -3   1  -9    0.69    0.15
  -4   1  -9    2.58    0.21
  -4   1  -9    2.51    0.26
  -4   1  -9    1.53    0.23
  -5   1  -9   11.40    0.83
  -5   1  -9   12.93    0.85
  -5   1  -9   13.77    0.93
  -6   1  -9   -0.01    0.08
  -6   1  -9    0.01    0.12
  -6   1  -9    0.17    0.14
  -7   1  -9    0.54    0.12
  -7   1  -9    0.85    0.15
  -8   0   9    0.06    0.08
  -8   0   9    0.07    0.13
  -7   0   9    0.05    0.15
  -7   0   9    0.08    0.08
  -6   0   9    0.13    0.13
  -6   0   9    0.21    0.12
  -6   0   9    0.09    0.12
  -5   0   9    1.66    0.21
  -5   0   9    2.12    0.20
  -5   0   9    1.85    0.19
  -5   0   9    1.64    0.20
  -4   0   9    1.47    0.17
  -4   0   9    1.21    0.18
  -4   0   9    1.42    0.18
  -4   0   9    1.38    0.17
  -3   0   9   12.45    0.88
  -3   0   9   12.45    0.83
  -3   0   9   11.99    0.81
  -3   0   9   12.61    0.80
  -2   0   9    2.06    0.20
  -2   0   9    2.01    0.19
  -2   0   9    1.40    0.44
  -1   0   9    3.89    0.31
   0   0   9   17.41    1.12
  -1   0  -9    0.67    0.16
  -2   0  -9    4.04    0.38
  -3   0  -9    1.49    0.17
  -3   0  -9    1.19    0.24
  -4   0  -9    2.51    0.19
  -4   0  -9    1.48    0.23
  -4   0  -9    2.77    0.28
  -4   0  -9    2.34    0.27
  -5   0  -9    4.16    0.36
  -5   0  -9    4.71    0.43
  -5   0  -9    4.82    0.36
  -6   0  -9    0.30    0.13
  -6   0  -9    0.24    0.16
  -7   0  -9    2.54    0.23
  -7   0  -9    2.63    0.20
  -8   1   9    1.77    0.19
  -7   1   9    0.70    0.13
  -7   1   9    0.43    0.09
  -7   1   9    0.40    0.14
  -6   1   9    0.07    0.10
  -6   1   9    0.17    0.14
  -6   1   9    0.02    0.12
  -5   1   9    0.09    0.11
  -5   1   9    0.27    0.15
  -5   1   9    0.22    0.10
  -5   1   9   -0.01    0.11
  -4   1   9   -0.12    0.12
  -4   1   9    0.13    0.14
  -4   1   9   -0.14    0.12
  -4   1   9    0.20    0.13
  -3   1   9    3.34    0.30
  -3   1   9    3.33    0.25
  -3   1   9    3.13    0.30
  -2   1   9    8.62    0.63
  -2   1   9    9.11    0.66
  -2   1   9    9.41    0.60
  -1   1   9    4.71    0.36
   0   1   9    3.46    0.28
  -1  -1  -9    4.55    0.39
  -2  -1  -9    0.08    0.16
  -2  -1  -9    0.25    0.20
  -3  -1  -9    0.22    0.18
  -3  -1  -9    0.36    0.11
  -3  -1  -9    0.54    0.18
  -4  -1  -9   16.51    1.11
  -4  -1  -9   18.71    1.14
  -4  -1  -9   16.65    1.22
  -5  -1  -9    1.12    0.18
  -5  -1  -9    1.06    0.21
  -5  -1  -9    1.27    0.15
  -6  -1  -9    1.05    0.16
  -6  -1  -9    0.84    0.14
  -7   2   9    1.34    0.14
  -7   2   9    0.91    0.11
  -7   2   9    0.86    0.13
  -6   2   9    1.30    0.14
  -6   2   9    0.99    0.15
  -6   2   9    1.16    0.13
  -5   2   9    2.80    0.29
  -5   2   9    2.48    0.25
  -5   2   9    2.71    0.23
  -5   2   9    2.47    0.24
  -4   2   9    8.73    0.60
  -4   2   9   10.21    0.64
  -4   2   9    9.35    0.69
  -4   2   9    8.37    0.66
  -3   2   9    0.77    0.16
  -3   2   9    0.76    0.10
  -3   2   9    0.64    0.16
  -2   2   9    8.25    0.54
  -2   2   9    7.65    0.59
  -1   2   9    0.25    0.14
   0  -2  -9   12.12    0.80
   0   2   9   11.42    0.77
  -1  -2  -9    0.15    0.15
  -2  -2  -9    0.95    0.14
  -2  -2  -9    0.95    0.18
  -2  -2  -9    0.83    0.20
  -3  -2  -9    1.89    0.21
  -3  -2  -9    1.56    0.22
  -3  -2  -9    1.78    0.18
  -4  -2  -9    1.19    0.20
  -4  -2  -9    2.01    0.21
  -4  -2  -9    1.53    0.22
  -5  -2  -9    1.83    0.20
  -5  -2  -9    2.36    0.26
  -5  -2  -9    2.11    0.19
  -6  -2  -9    2.38    0.23
  -6  -2  -9    2.22    0.19
  -7   3   9   -0.02    0.07
  -7   3   9   -0.03    0.10
  -6   3   9    5.53    0.37
  -6   3   9    5.07    0.42
  -5   3   9    1.12    0.13
  -5   3   9    1.39    0.15
  -5   3   9    1.51    0.16
  -4   3   9    0.12    0.13
  -4   3   9    0.09    0.13
  -4   3   9    0.05    0.14
  -3   3   9    7.68    0.54
  -3   3   9    7.51    0.50
  -2   3   9   -0.36    0.15
  -2   3   9    0.19    0.10
  -1   3   9    1.82    0.20
   0  -3  -9    0.56    0.16
   0   3   9    0.39    0.13
  -1  -3  -9   -0.18    0.13
  -2  -3  -9    3.14    0.27
  -2  -3  -9    2.74    0.28
  -3  -3  -9    2.31    0.23
  -3  -3  -9    2.32    0.26
  -4  -3  -9   -0.08    0.14
  -4  -3  -9   -0.04    0.12
  -4  -3  -9   -0.05    0.14
  -4  -3  -9    0.11    0.15
  -5  -3  -9    0.08    0.12
  -5  -3  -9    0.29    0.11
  -6   4   9    0.05    0.09
  -6   4   9    0.02    0.07
  -5   4   9    2.92    0.23
  -5   4   9    2.44    0.22
  -5   4   9    3.07    0.27
  -4   4   9   15.15    1.23
  -4   4   9   20.03    1.14
  -3   4   9    5.71    0.38
  -3   4   9    5.81    0.43
  -2   4   9    0.00    0.09
   1  -4  -9    2.80    0.26
  -1   4   9    3.53    0.26
   0  -4  -9   -0.26    0.13
   0   4   9   -0.28    0.12
  -1  -4  -9    0.00    0.11
  -2  -4  -9    0.36    0.16
  -2  -4  -9    0.44    0.09
  -3  -4  -9    1.24    0.16
  -3  -4  -9    1.05    0.17
  -4  -4  -9    0.21    0.09
  -4  -4  -9    0.21    0.11
  -5   5   9    2.23    0.19
  -4   5   9    0.96    0.12
  -4   5   9    0.95    0.14
  -3   5   9    1.44    0.17
  -3   5   9    1.98    0.19
   2  -5  -9    0.07    0.09
  -2   5   9   -0.05    0.14
  -2   5   9    0.10    0.07
   1  -5  -9    5.46    0.41
  -1   5   9    5.83    0.39
   0  -5  -9    1.25    0.14
   0   5   9    1.36    0.14
  -1  -5  -9    2.27    0.24
  -1  -5  -9    2.23    0.18
  -2  -5  -9    1.08    0.13
  -2  -5  -9    0.94    0.15
  -3  -5  -9    0.23    0.09
  -2   6   9    2.00    0.19
   1  -6  -9    2.47    0.18
  -1   6   9    2.13    0.19
   0  -6  -9   -0.09    0.12
  -3 -10  10    0.40    0.09
  -3 -10  10    0.39    0.13
  -2 -10  10    0.95    0.13
  -2 -10  10    0.98    0.12
  -2 -10  10    0.90    0.11
  -1 -10  10   13.36    1.02
  -1 -10  10   14.03    0.89
   0 -10  10    0.46    0.15
   0 -10  10    0.73    0.12
  -1  10 -10    0.92    0.11
   1 -10  10    1.02    0.11
   1 -10  10    1.17    0.14
  -2  10 -10    0.23    0.09
  -3  10 -10    0.34    0.14
  -3  10 -10    0.26    0.06
  -5  -9  10    1.60    0.12
  -4  -9  10    1.56    0.16
  -4  -9  10    1.00    0.15
  -3  -9  10    0.79    0.18
  -3  -9  10    1.08    0.11
  -3  -9  10    1.18    0.14
  -2  -9  10    2.54    0.22
  -2  -9  10    2.47    0.24
  -2  -9  10    2.81    0.26
  -1  -9  10    0.25    0.11
  -1  -9  10   -0.07    0.11
   0  -9  10    3.35    0.29
   0  -9  10    3.18    0.24
   0  -9  10    3.71    0.34
  -1   9 -10    0.13    0.12
  -2   9 -10    0.73    0.13
   2  -9  10    1.13    0.12
  -3   9 -10    4.43    0.38
  -3   9 -10    4.81    0.32
   3  -9  10    4.11    0.31
  -4   9 -10    0.16    0.11
  -4   9 -10    0.02    0.13
  -6  -8  10    0.32    0.09
  -5  -8  10    0.43    0.09
  -5  -8  10    0.41    0.12
  -4  -8  10    0.15    0.12
  -4  -8  10    0.13    0.10
  -3  -8  10    0.17    0.12
  -3  -8  10    0.11    0.17
  -3  -8  10    0.14    0.10
  -2  -8  10    5.45    0.47
  -2  -8  10    6.05    0.41
  -1  -8  10    3.30    0.24
  -1  -8  10    3.56    0.32
   0  -8  10    0.36    0.14
   2  -8  10    2.74    0.24
  -3   8 -10    0.04    0.07
   3  -8  10    0.27    0.10
  -4   8 -10    2.76    0.20
  -4   8 -10    2.61    0.27
  -4   8 -10    2.17    0.26
  -5   8 -10    4.33    0.37
  -5   8 -10    4.62    0.33
  -7  -7  10    3.10    0.26
  -6  -7  10    0.14    0.11
  -5  -7  10    0.04    0.09
  -5  -7  10    0.24    0.17
  -4  -7  10    0.24    0.07
  -4  -7  10    0.21    0.13
  -4  -7  10    0.23    0.11
  -3  -7  10    0.19    0.12
  -3  -7  10    0.30    0.12
  -3  -7  10    0.52    0.13
  -2  -7  10    2.02    0.25
  -2  -7  10    2.04    0.23
  -2  -7  10    2.23    0.16
  -1  -7  10    8.82    0.71
  -1  -7  10    8.99    0.64
  -1  -7  10    9.66    0.60
   0  -7  10    1.38    0.18
  -2   7 -10    0.04    0.13
   2  -7  10    0.05    0.11
  -3   7 -10    0.20    0.19
  -3   7 -10    0.12    0.11
  -4   7 -10    0.21    0.14
  -4   7 -10    0.15    0.09
  -4   7 -10   -0.06    0.15
  -5   7 -10    4.04    0.35
  -6   7 -10    0.92    0.13
  -7  -6  10    0.07    0.09
  -7  -6  10   -0.04    0.09
  -6  -6  10    0.32    0.12
  -5  -6  10    2.46    0.21
  -5  -6  10    2.06    0.25
  -4  -6  10    0.17    0.18
  -4  -6  10    0.32    0.09
  -4  -6  10    0.47    0.14
  -4  -6  10    0.48    0.13
  -3  -6  10    3.56    0.28
  -3  -6  10    3.62    0.31
  -3  -6  10    3.55    0.38
  -2  -6  10    6.38    0.52
  -2  -6  10    5.29    0.45
  -2  -6  10    6.27    0.40
  -2  -6  10    5.80    0.44
  -1  -6  10    3.96    0.29
  -1  -6  10    4.50    0.40
  -1  -6  10    4.17    0.35
   0  -6  10    3.54    0.33
   0  -6  10    3.79    0.28
  -2   6 -10    1.82    0.19
  -3   6 -10    5.94    0.43
  -3   6 -10    5.73    0.52
  -4   6 -10    6.46    0.44
  -4   6 -10    6.31    0.55
  -4   6 -10    6.32    0.49
  -5   6 -10    0.44    0.18
  -6   6 -10    0.49    0.09
  -6   6 -10    0.42    0.11
  -6   6 -10    0.45    0.11
  -8  -5  10    0.59    0.09
  -7  -5  10    0.00    0.10
  -7  -5  10   -0.03    0.11
  -6  -5  10    3.59    0.32
  -6  -5  10    3.86    0.26
  -6  -5  10    3.53    0.33
  -5  -5  10    0.04    0.10
  -5  -5  10    0.07    0.11
  -5  -5  10   -0.06    0.12
  -4  -5  10    2.70    0.26
  -4  -5  10    2.99    0.34
  -4  -5  10    3.19    0.24
  -4  -5  10    2.87    0.27
  -3  -5  10    1.37    0.20
  -3  -5  10    1.07    0.17
  -3  -5  10    1.24    0.16
  -3  -5  10    1.05    0.15
  -2  -5  10    8.45    0.60
  -2  -5  10    9.33    0.58
  -2  -5  10    9.07    0.63
  -2  -5  10    8.63    0.69
  -1  -5  10    0.79    0.16
  -1  -5  10    1.22    0.18
  -1  -5  10    1.06    0.13
   0  -5  10    4.61    0.35
   1  -5  10    0.11    0.10
  -2   5 -10   13.36    0.89
  -3   5 -10   -0.08    0.12
  -4   5 -10    0.13    0.18
  -4   5 -10    0.01    0.10
  -5   5 -10    1.19    0.17
  -5   5 -10    1.32    0.16
  -5   5 -10    1.30    0.16
  -5   5 -10    1.09    0.20
  -6   5 -10    1.14    0.12
  -6   5 -10    1.09    0.15
  -6   5 -10    1.11    0.18
  -8  -4  10    0.23    0.09
  -7  -4  10    0.09    0.14
  -7  -4  10   -0.17    0.15
  -6  -4  10    3.74    0.26
  -6  -4  10    3.37    0.36
  -6  -4  10    3.94    0.34
  -5  -4  10    1.92    0.22
  -5  -4  10    1.52    0.21
  -4  -4  10   14.33    1.11
  -4  -4  10   14.67    0.94
  -4  -4  10   14.62    0.95
  -4  -4  10   15.02    1.04
  -3  -4  10    1.16    0.10
  -3  -4  10    0.92    0.13
  -3  -4  10    1.00    0.18
  -3  -4  10    0.82    0.14
  -3  -4  10    0.87    0.17
  -2  -4  10    3.55    0.32
  -2  -4  10    3.68    0.30
  -2  -4  10    3.65    0.34
  -2  -4  10    2.61    0.51
  -2  -4  10    3.55    0.26
  -1  -4  10    1.22    0.17
  -1  -4  10    1.35    0.14
  -1  -4  10    0.52    0.38
   0  -4  10   26.07    1.66
   1  -4  10    4.06    0.31
  -2   4 -10    2.49    0.28
  -3   4 -10    2.99    0.28
  -4   4 -10    1.83    0.20
  -5   4 -10    0.32    0.13
  -5   4 -10    0.45    0.15
  -5   4 -10    0.67    0.16
  -6   4 -10    0.46    0.09
  -6   4 -10    0.53    0.13
  -6   4 -10    0.09    0.12
  -8  -3  10    2.50    0.20
  -8  -3  10    1.70    0.19
  -7  -3  10    0.22    0.10
  -7  -3  10    0.45    0.16
  -6  -3  10    0.29    0.10
  -6  -3  10    0.26    0.11
  -6  -3  10    0.29    0.17
  -5  -3  10    2.01    0.17
  -5  -3  10    1.87    0.23
  -5  -3  10    2.00    0.20
  -4  -3  10    0.51    0.16
  -4  -3  10    0.67    0.15
  -4  -3  10    0.57    0.10
  -4  -3  10    0.56    0.16
  -3  -3  10    0.42    0.07
  -3  -3  10   -0.08    0.15
  -3  -3  10    0.45    0.12
  -3  -3  10    0.18    0.15
  -2  -3  10   18.66    1.10
  -2  -3  10   14.60    1.55
  -1  -3  10    0.36    0.09
  -1  -3  10    0.19    0.14
   0  -3  10   23.20    1.48
  -1   3 -10    0.66    0.16
   1  -3  10    0.67    0.12
  -2   3 -10    8.49    0.59
  -3   3 -10    0.68    0.16
  -3   3 -10    0.52    0.18
  -4   3 -10    0.11    0.16
  -4   3 -10    0.02    0.09
  -5   3 -10    2.57    0.25
  -5   3 -10    3.58    0.28
  -5   3 -10    3.50    0.33
  -6   3 -10    1.95    0.21
  -6   3 -10    2.24    0.18
  -6   3 -10    2.70    0.26
  -8  -2  10   -0.09    0.07
  -8  -2  10   -0.05    0.08
  -7  -2  10    1.49    0.17
  -7  -2  10    2.31    0.24
  -7  -2  10    1.59    0.13
  -6  -2  10    2.31    0.19
  -6  -2  10    1.86    0.22
  -6  -2  10    1.78    0.24
  -5  -2  10   11.59    0.79
  -5  -2  10   13.21    0.88
  -5  -2  10   12.10    0.78
  -4  -2  10    5.58    0.39
  -4  -2  10    5.18    0.42
  -3  -2  10   21.43    1.32
  -3  -2  10   18.91    1.28
  -3  -2  10   20.72    1.41
  -2  -2  10    0.29    0.10
  -2  -2  10    0.27    0.16
  -1  -2  10    2.30    0.26
  -1  -2  10    2.55    0.24
   0  -2  10    0.01    0.10
  -1   2 -10    2.63    0.30
  -2   2 -10    1.54    0.18
  -3   2 -10    0.15    0.14
  -3   2 -10    0.08    0.17
  -4   2 -10    1.01    0.16
  -4   2 -10    0.80    0.10
  -4   2 -10    0.80    0.17
  -5   2 -10    2.96    0.31
  -5   2 -10    2.42    0.26
  -5   2 -10    2.71    0.24
  -6   2 -10    0.13    0.12
  -6   2 -10   -0.01    0.14
  -8  -1  10    0.46    0.11
  -7  -1  10    7.59    0.49
  -7  -1  10    8.22    0.58
  -6  -1  10   -0.01    0.15
  -6  -1  10   -0.13    0.11
  -5  -1  10    4.09    0.30
  -5  -1  10    4.21    0.37
  -5  -1  10    4.31    0.33
  -4  -1  10    4.89    0.35
  -4  -1  10    4.73    0.36
  -4  -1  10    4.97    0.41
  -3  -1  10    1.73    0.17
  -3  -1  10    2.17    0.25
  -3  -1  10    2.11    0.23
  -2  -1  10   12.01    0.77
  -2  -1  10   11.65    0.80
  -1  -1  10   13.79    0.89
   0  -1  10    0.28    0.11
  -1   1 -10    4.26    0.37
  -2   1 -10    0.42    0.15
  -3   1 -10    1.71    0.22
  -3   1 -10    1.79    0.20
  -4   1 -10   12.79    0.87
  -4   1 -10   12.40    0.80
  -4   1 -10   10.99    0.76
  -5   1 -10    0.18    0.13
  -5   1 -10   -0.05    0.14
  -5   1 -10    0.08    0.16
  -6   1 -10    0.35    0.12
  -6   1 -10    0.59    0.15
  -7   0  10    2.54    0.18
  -7   0  10    2.15    0.21
  -6   0  10    3.18    0.30
  -6   0  10    3.12    0.23
  -5   0  10    1.52    0.16
  -5   0  10    1.72    0.18
  -5   0  10    1.39    0.16
  -4   0  10    0.51    0.14
  -4   0  10    0.47    0.12
  -4   0  10    0.29    0.12
  -4   0  10    0.42    0.14
  -3   0  10    0.72    0.09
  -3   0  10    0.93    0.17
  -3   0  10    0.86    0.15
  -3   0  10    0.71    0.13
  -2   0  10    0.34    0.09
  -2   0  10    0.13    0.15
  -2   0  10    0.33    0.13
  -1   0  10    0.53    0.13
   0   0  10   10.63    0.70
  -1   0 -10    0.06    0.15
  -2   0 -10    0.00    0.13
  -3   0 -10    4.34    0.34
  -3   0 -10    4.64    0.41
  -3   0 -10    4.59    0.39
  -4   0 -10    0.34    0.13
  -4   0 -10    0.29    0.16
  -4   0 -10    0.27    0.15
  -5   0 -10    3.11    0.29
  -5   0 -10    2.98    0.27
  -5   0 -10    3.54    0.26
  -6   0 -10    3.10    0.24
  -6   0 -10    3.52    0.29
  -7   1  10   -0.07    0.06
  -7   1  10    0.08    0.10
  -6   1  10    0.82    0.13
  -6   1  10    1.07    0.11
  -6   1  10    0.84    0.11
  -5   1  10    0.17    0.12
  -5   1  10    0.02    0.09
  -5   1  10    0.00    0.09
  -5   1  10    0.02    0.11
  -4   1  10    0.46    0.12
  -4   1  10    0.46    0.13
  -4   1  10    0.50    0.10
  -4   1  10    0.43    0.14
  -3   1  10    0.06    0.14
  -3   1  10    0.08    0.12
  -3   1  10    0.08    0.08
  -2   1  10    0.59    0.15
  -2   1  10    0.43    0.10
  -2   1  10    0.62    0.12
  -1   1  10    0.36    0.11
  -1   1  10    0.25    0.12
   0  -1 -10   -0.26    0.16
   0   1  10    0.09    0.11
  -1  -1 -10    0.12    0.15
  -2  -1 -10    2.91    0.32
  -2  -1 -10    2.70    0.31
  -2  -1 -10    2.92    0.26
  -3  -1 -10    0.40    0.09
  -3  -1 -10    0.38    0.13
  -3  -1 -10    0.64    0.17
  -4  -1 -10    0.83    0.14
  -4  -1 -10    0.55    0.16
  -4  -1 -10    0.62    0.17
  -5  -1 -10    0.03    0.14
  -5  -1 -10   -0.07    0.07
  -5  -1 -10    0.04    0.09
  -6   2  10    0.36    0.10
  -6   2  10    0.09    0.09
  -5   2  10    0.18    0.08
  -5   2  10    0.10    0.08
  -5   2  10    0.19    0.12
  -4   2  10    2.75    0.21
  -4   2  10    2.80    0.23
  -4   2  10    2.34    0.23
  -3   2  10    0.14    0.08
  -3   2  10    0.35    0.14
  -2   2  10    1.50    0.19
  -2   2  10    1.68    0.17
  -1   2  10    2.46    0.22
   0  -2 -10   -0.09    0.15
   0   2  10    0.13    0.11
  -1  -2 -10    3.21    0.29
  -2  -2 -10    3.34    0.27
  -2  -2 -10    3.03    0.32
  -3  -2 -10   -0.03    0.14
  -3  -2 -10   -0.02    0.14
  -4  -2 -10    1.85    0.17
  -4  -2 -10    1.82    0.19
  -4  -2 -10    1.38    0.18
  -6   3  10    0.29    0.09
  -5   3  10    4.16    0.33
  -5   3  10    4.06    0.27
  -5   3  10    3.79    0.28
  -4   3  10    3.86    0.33
  -4   3  10    3.98    0.31
  -4   3  10    4.77    0.31
  -3   3  10    1.10    0.13
  -3   3  10    1.27    0.11
  -3   3  10    1.22    0.14
  -2   3  10    0.01    0.10
  -2   3  10   -0.04    0.14
   1  -3 -10    1.77    0.20
  -1   3  10    1.93    0.19
   0  -3 -10    3.38    0.30
   0   3  10    3.41    0.27
  -1  -3 -10   10.26    0.67
  -2  -3 -10    0.17    0.11
  -2  -3 -10    0.22    0.08
  -3  -3 -10    0.27    0.11
  -3  -3 -10    0.25    0.12
  -4   4  10    3.24    0.28
  -4   4  10    4.15    0.27
  -3   4  10    0.15    0.11
  -3   4  10   -0.02    0.11
  -2   4  10    2.44    0.22
  -2   4  10    2.14    0.16
   1  -4 -10    3.48    0.29
  -1   4  10    4.49    0.28
   0  -4 -10    0.06    0.10
   0   4  10   -0.04    0.07
  -1  -4 -10    0.05    0.10
  -1  -4 -10    0.09    0.08
   1   4  10    0.24    0.07
  -2  -4 -10    0.09    0.12
  -2  -4 -10    0.01    0.12
  -2 -10  11    2.05    0.19
  -1 -10  11    4.25    0.37
  -1 -10  11    5.22    0.33
   0 -10  11    0.07    0.09
   0 -10  11    0.12    0.08
  -4  -9  11   -0.04    0.06
  -4  -9  11   -0.07    0.08
  -3  -9  11    1.66    0.19
  -3  -9  11    1.94    0.17
  -2  -9  11    0.85    0.10
  -2  -9  11    0.96    0.13
  -2  -9  11    0.97    0.13
  -1  -9  11    0.19    0.11
  -1  -9  11   -0.17    0.09
   0  -9  11    2.95    0.19
   0  -9  11    2.83    0.26
   0  -9  11    2.73    0.25
  -1   9 -11   -0.12    0.11
   1  -9  11    0.06    0.06
   1  -9  11    0.07    0.13
  -2   9 -11    0.18    0.09
  -2   9 -11    0.34    0.10
   2  -9  11    0.28    0.08
   2  -9  11    0.27    0.07
  -3   9 -11    0.60    0.07
   3  -9  11    0.61    0.07
  -5  -8  11   -0.04    0.08
  -4  -8  11    0.85    0.10
  -4  -8  11    0.62    0.12
  -3  -8  11    0.84    0.13
  -3  -8  11    0.88    0.10
  -3  -8  11    0.94    0.14
  -2  -8  11    2.01    0.18
  -2  -8  11    1.51    0.16
  -2  -8  11    1.70    0.21
  -1  -8  11    3.06    0.25
  -1  -8  11    2.97    0.30
  -1  -8  11    2.62    0.19
   0  -8  11    0.09    0.07
   0  -8  11    0.15    0.15
   0  -8  11    0.04    0.12
  -1   8 -11    3.04    0.24
   1  -8  11    3.47    0.23
   1  -8  11    2.47    0.26
  -2   8 -11    0.96    0.13
  -2   8 -11    1.30    0.15
   2  -8  11    0.97    0.10
   2  -8  11    1.03    0.12
  -3   8 -11    0.78    0.10
  -3   8 -11    0.78    0.13
   3  -8  11    0.96    0.10
  -4   8 -11    2.82    0.26
  -6  -7  11    0.13    0.08
  -5  -7  11   -0.04    0.10
  -5  -7  11    0.04    0.08
  -4  -7  11    0.75    0.13
  -4  -7  11    0.82    0.17
  -3  -7  11    0.13    0.12
  -3  -7  11    0.10    0.10
  -3  -7  11    0.06    0.11
  -2  -7  11    0.39    0.13
  -2  -7  11    0.48    0.17
  -2  -7  11    0.49    0.12
  -1  -7  11    4.88    0.44
  -1  -7  11    5.15    0.34
   0  -7  11    6.03    0.48
   0  -7  11    5.43    0.43
   0  -7  11    5.66    0.39
  -1   7 -11    0.89    0.16
   1  -7  11    1.08    0.13
   1  -7  11    1.41    0.15
  -2   7 -11    2.47    0.22
   2  -7  11    2.83    0.22
  -3   7 -11    3.46    0.26
  -3   7 -11    2.60    0.29
   3  -7  11    3.87    0.25
  -4   7 -11    1.14    0.17
  -5   7 -11    0.65    0.10
  -6  -6  11    1.90    0.14
  -6  -6  11    2.30    0.20
  -5  -6  11    4.19    0.35
  -4  -6  11    0.39    0.11
  -4  -6  11    0.62    0.12
  -4  -6  11    0.42    0.08
  -4  -6  11    0.57    0.13
  -3  -6  11    0.04    0.12
  -3  -6  11   -0.01    0.12
  -3  -6  11   -0.05    0.11
  -3  -6  11    0.01    0.09
  -2  -6  11    2.12    0.26
  -2  -6  11    1.99    0.22
  -2  -6  11    1.97    0.20
  -2  -6  11    1.96    0.14
  -2  -6  11    1.51    0.18
  -1  -6  11    1.68    0.15
  -1  -6  11    1.65    0.19
  -1  -6  11    1.66    0.21
   0  -6  11    6.33    0.44
  -1   6 -11    4.52    0.38
   1  -6  11    4.97    0.34
  -2   6 -11    8.60    0.57
   2  -6  11    7.98    0.55
  -3   6 -11    0.09    0.10
  -4   6 -11   -0.10    0.12
  -4   6 -11   -0.05    0.06
  -5   6 -11    1.00    0.12
  -7  -5  11    1.42    0.15
  -6  -5  11    1.27    0.15
  -6  -5  11    1.17    0.12
  -6  -5  11    1.09    0.14
  -5  -5  11    2.11    0.21
  -5  -5  11    1.75    0.19
  -4  -5  11    6.57    0.43
  -4  -5  11    6.51    0.42
  -4  -5  11    5.21    0.49
  -4  -5  11    6.80    0.48
  -3  -5  11    0.55    0.16
  -3  -5  11    0.33    0.12
  -3  -5  11    0.40    0.10
  -3  -5  11    0.36    0.10
  -2  -5  11    0.26    0.07
  -2  -5  11    0.41    0.12
  -2  -5  11    0.35    0.13
  -1  -5  11   -0.08    0.13
  -1  -5  11    0.10    0.08
   0  -5  11   17.38    1.11
  -1   5 -11   -0.01    0.14
   1  -5  11    0.21    0.10
  -2   5 -11    2.34    0.26
   2  -5  11    2.37    0.22
  -3   5 -11    2.01    0.21
  -4   5 -11    6.06    0.40
  -4   5 -11    6.30    0.45
  -5   5 -11    2.20    0.22
  -5   5 -11    2.44    0.20
  -7  -4  11    0.81    0.10
  -7  -4  11    0.76    0.10
  -6  -4  11    2.73    0.28
  -6  -4  11    3.69    0.24
  -6  -4  11    4.11    0.30
  -5  -4  11   21.65    1.42
  -5  -4  11   20.20    1.28
  -5  -4  11   19.75    1.51
  -4  -4  11   -0.23    0.14
  -4  -4  11    0.04    0.09
  -4  -4  11   -0.27    0.14
  -3  -4  11    0.47    0.13
  -3  -4  11    0.85    0.15
  -3  -4  11    0.54    0.11
  -2  -4  11    0.09    0.12
  -1  -4  11   -0.02    0.08
  -1  -4  11    0.04    0.13
   0  -4  11   12.45    0.81
  -1   4 -11    0.67    0.16
   1  -4  11    0.76    0.12
  -2   4 -11    0.35    0.14
  -3   4 -11    0.08    0.16
  -3   4 -11    0.22    0.10
  -4   4 -11   -0.02    0.06
  -4   4 -11   -0.23    0.14
  -4   4 -11    0.02    0.11
  -5   4 -11    1.21    0.15
  -5   4 -11    1.10    0.15
  -5   4 -11    0.88    0.15
  -7  -3  11    2.98    0.27
  -7  -3  11    3.21    0.25
  -6  -3  11    0.62    0.12
  -6  -3  11    0.65    0.11
  -6  -3  11    0.44    0.10
  -5  -3  11    4.29    0.30
  -5  -3  11    4.14    0.36
  -4  -3  11    2.92    0.29
  -4  -3  11    2.59    0.23
  -3  -3  11    4.56    0.39
  -3  -3  11    4.70    0.37
  -2  -3  11    0.10    0.16
  -1  -3  11    4.83    0.38
  -1  -3  11    4.81    0.35
   0  -3  11    6.42    0.45
  -1   3 -11   18.69    1.23
   1  -3  11   19.19    1.21
  -2   3 -11    0.82    0.15
  -3   3 -11    0.04    0.10
  -3   3 -11    0.07    0.16
  -4   3 -11    0.30    0.11
  -4   3 -11   -0.07    0.14
  -5   3 -11    0.72    0.11
  -5   3 -11    0.92    0.12
  -5   3 -11    0.77    0.14
  -7  -2  11    0.67    0.12
  -6  -2  11    1.43    0.14
  -6  -2  11    1.12    0.17
  -5  -2  11    1.04    0.14
  -5  -2  11    1.62    0.16
  -4  -2  11    0.41    0.15
  -4  -2  11    0.46    0.12
  -4  -2  11    0.44    0.12
  -3  -2  11    0.29    0.10
  -3  -2  11    0.05    0.12
  -3  -2  11    0.20    0.11
  -2  -2  11    0.41    0.09
  -2  -2  11    0.50    0.14
  -1  -2  11    5.14    0.40
  -1  -2  11    5.28    0.36
   0  -2  11    0.81    0.14
  -1   2 -11    1.58    0.19
   1  -2  11    1.35    0.15
  -2   2 -11    1.17    0.16
  -3   2 -11    6.65    0.45
  -3   2 -11    6.10    0.48
  -4   2 -11    0.25    0.16
  -4   2 -11   -0.03    0.13
  -5   2 -11    0.37    0.10
  -5   2 -11    0.23    0.12
  -5   2 -11    0.34    0.14
  -7  -1  11   -0.06    0.09
  -6  -1  11    0.04    0.07
  -6  -1  11   -0.08    0.13
  -5  -1  11    0.53    0.11
  -5  -1  11    0.74    0.11
  -5  -1  11    0.50    0.07
  -4  -1  11    3.73    0.29
  -4  -1  11    3.55    0.32
  -4  -1  11    3.67    0.29
  -3  -1  11    0.24    0.12
  -3  -1  11    0.09    0.05
  -3  -1  11    0.27    0.12
  -3  -1  11   -0.06    0.14
  -2  -1  11    1.74    0.19
  -2  -1  11    2.01    0.18
  -2  -1  11    1.76    0.19
  -1  -1  11    0.37    0.12
   0  -1  11    2.48    0.22
  -1   1 -11    0.27    0.15
   1  -1  11    0.26    0.11
  -2   1 -11   15.68    1.02
  -3   1 -11    0.26    0.16
  -3   1 -11    0.23    0.09
  -3   1 -11    0.27    0.16
  -4   1 -11    0.44    0.13
  -4   1 -11    0.76    0.13
  -5   1 -11    4.79    0.32
  -5   1 -11    3.87    0.33
  -5   1 -11    5.31    0.37
  -6   0  11    2.48    0.19
  -6   0  11    2.38    0.23
  -5   0  11    0.01    0.10
  -5   0  11    0.09    0.12
  -5   0  11    0.03    0.06
  -4   0  11   -0.06    0.11
  -4   0  11    0.12    0.09
  -4   0  11   -0.01    0.13
  -3   0  11    0.57    0.16
  -3   0  11    0.33    0.05
  -3   0  11    0.55    0.10
  -2   0  11    0.25    0.07
  -2   0  11    0.04    0.14
  -2   0  11    0.31    0.13
  -1   0  11    4.11    0.29
  -1   0  11    3.63    0.32
   0   0 -11    2.49    0.28
   0   0  11    2.37    0.22
  -1   0 -11    0.00    0.14
   1   0  11    0.34    0.11
  -2   0 -11    2.79    0.22
  -2   0 -11    1.88    0.25
  -2   0 -11    2.63    0.28
  -3   0 -11    0.51    0.08
  -3   0 -11    0.71    0.16
  -3   0 -11    0.47    0.15
  -4   0 -11    8.73    0.54
  -4   0 -11    7.13    0.56
  -5   0 -11    1.73    0.21
  -6   1  11    0.90    0.10
  -5   1  11    3.02    0.27
  -5   1  11    3.69    0.25
  -4   1  11    3.37    0.29
  -4   1  11    3.45    0.27
  -4   1  11    3.38    0.27
  -4   1  11    3.51    0.28
  -3   1  11    0.00    0.13
  -3   1  11   -0.08    0.10
  -3   1  11    0.24    0.11
  -2   1  11    5.27    0.46
  -2   1  11    7.24    0.45
  -2   1  11    6.31    0.41
  -1   1  11    0.55    0.10
   0  -1 -11    0.26    0.14
   0   1  11    0.02    0.07
  -1  -1 -11   12.98    0.85
   1   1  11   13.00    0.84
  -2  -1 -11    1.10    0.14
  -2  -1 -11    1.05    0.13
  -2  -1 -11    0.97    0.16
  -3  -1 -11    0.25    0.14
  -3  -1 -11    0.25    0.12
  -4  -1 -11    1.35    0.15
  -5   2  11    0.02    0.08
  -4   2  11    0.01    0.08
  -4   2  11    0.11    0.10
  -4   2  11    0.10    0.10
  -3   2  11    7.35    0.45
  -3   2  11    5.64    0.47
  -2   2  11    0.73    0.09
  -2   2  11    0.51    0.14
   1  -2 -11    0.28    0.10
  -1   2  11    0.44    0.09
   0  -2 -11    1.86    0.21
   0   2  11    1.80    0.18
  -1  -2 -11    0.76    0.11
   1   2  11    0.67    0.09
  -2  -2 -11   -0.07    0.13
  -2  -2 -11   -0.04    0.05
  -3  -2 -11    3.74    0.28
  -4   3  11    1.01    0.10
  -3   3  11    1.97    0.21
  -3   3  11    2.27    0.19
  -2   3  11    0.58    0.06
  -2   3  11    0.48    0.11
  -2   3  11    0.50    0.09
   1  -3 -11    2.32    0.21
  -1   3  11    2.29    0.18
   0  -3 -11    0.91    0.11
   0   3  11    0.82    0.10
  -1  -3 -11    0.07    0.06
   1   3  11    0.14    0.06
  -1  -9  12    2.18    0.17
   0  -9  12   10.18    0.67
  -4  -8  12    2.60    0.19
  -3  -8  12    0.23    0.09
  -3  -8  12    0.27    0.09
  -2  -8  12    0.46    0.10
  -2  -8  12    0.31    0.10
  -2  -8  12    0.36    0.09
  -1  -8  12    6.25    0.39
  -1  -8  12    5.07    0.43
   0  -8  12    0.40    0.05
   0  -8  12    0.14    0.10
  -1   8 -12    1.38    0.16
   1  -8  12    1.94    0.14
  -2   8 -12    3.05    0.24
   2  -8  12    3.36    0.23
  -5  -7  12    0.05    0.06
  -4  -7  12    0.11    0.09
  -4  -7  12    0.19    0.10
  -3  -7  12    1.56    0.18
  -3  -7  12    1.74    0.17
  -3  -7  12    1.72    0.14
  -2  -7  12    3.21    0.25
  -2  -7  12    3.42    0.30
  -1  -7  12    1.03    0.13
  -1  -7  12    0.80    0.12
   0  -7  12    0.38    0.09
   0  -7  12    0.35    0.08
  -1   7 -12    3.30    0.29
   1  -7  12    3.69    0.25
  -2   7 -12    1.14    0.12
   2  -7  12    1.06    0.11
  -3   7 -12    1.25    0.13
   3  -7  12    0.96    0.11
  -5  -6  12    1.33    0.12
  -5  -6  12    0.92    0.13
  -4  -6  12    4.06    0.34
  -4  -6  12    4.36    0.32
  -3  -6  12    0.01    0.09
  -3  -6  12    0.06    0.12
  -3  -6  12    0.20    0.11
  -3  -6  12   -0.04    0.10
  -2  -6  12   -0.27    0.11
  -2  -6  12    0.06    0.10
  -1  -6  12    0.08    0.06
  -1  -6  12    0.16    0.12
   0  -6  12    0.23    0.07
   0  -6  12    0.23    0.12
  -1   6 -12    1.92    0.19
   1  -6  12    2.01    0.16
  -2   6 -12    3.19    0.25
   2  -6  12    2.80    0.21
  -3   6 -12    2.30    0.25
  -3   6 -12    2.86    0.21
   3  -6  12    2.83    0.21
  -4   6 -12    0.12    0.10
  -5  -5  12    0.39    0.09
  -5  -5  12    0.18    0.08
  -4  -5  12    1.01    0.09
  -3  -5  12    0.79    0.12
  -3  -5  12    0.67    0.13
  -3  -5  12    0.88    0.12
  -2  -5  12    0.11    0.12
  -2  -5  12    0.14    0.11
  -1  -5  12    0.06    0.07
  -1  -5  12   -0.13    0.12
   0  -5  12    0.31    0.08
  -1   5 -12    0.27    0.09
   1  -5  12    0.17    0.09
  -2   5 -12    4.55    0.34
   2  -5  12    4.52    0.32
  -3   5 -12    3.33    0.31
  -3   5 -12    4.20    0.28
  -4   5 -12    0.22    0.11
  -4   5 -12    0.09    0.10
  -6  -4  12    0.17    0.05
  -6  -4  12    0.27    0.10
  -5  -4  12    1.25    0.16
  -5  -4  12    1.46    0.15
  -4  -4  12    0.64    0.14
  -4  -4  12    0.55    0.11
  -4  -4  12    0.51    0.08
  -3  -4  12    1.98    0.19
  -3  -4  12    2.31    0.24
  -2  -4  12   -0.03    0.09
  -2  -4  12   -0.03    0.11
  -2  -4  12   -0.07    0.05
  -1  -4  12    0.10    0.12
   0  -4  12    1.52    0.16
  -1   4 -12    9.87    0.67
   1  -4  12   10.17    0.66
  -2   4 -12    0.18    0.11
   2  -4  12   -0.17    0.10
  -3   4 -12    1.04    0.16
  -3   4 -12    1.02    0.11
  -4   4 -12    0.27    0.12
  -4   4 -12    0.28    0.11
  -6  -3  12    0.03    0.10
  -6  -3  12    0.04    0.06
  -5  -3  12    1.76    0.21
  -5  -3  12    1.79    0.16
  -4  -3  12    5.06    0.39
  -4  -3  12    5.25    0.35
  -4  -3  12    4.73    0.34
  -3  -3  12    0.49    0.14
  -3  -3  12    0.41    0.12
  -3  -3  12    0.39    0.10
  -2  -3  12    0.35    0.06
  -2  -3  12    0.39    0.13
  -2  -3  12    0.48    0.11
  -1  -3  12    2.73    0.23
   0  -3  12    2.64    0.21
  -1   3 -12    5.63    0.43
   1  -3  12    6.13    0.41
  -2   3 -12    9.09    0.61
   2  -3  12    9.24    0.60
  -3   3 -12    0.85    0.09
  -3   3 -12    0.54    0.15
  -3   3 -12    0.90    0.13
  -4   3 -12    0.12    0.12
  -4   3 -12   -0.06    0.11
  -6  -2  12    2.05    0.18
  -6  -2  12    2.41    0.16
  -5  -2  12    0.19    0.09
  -5  -2  12    0.29    0.12
  -4  -2  12    0.07    0.13
  -4  -2  12    0.06    0.08
  -4  -2  12    0.04    0.09
  -3  -2  12    0.52    0.12
  -3  -2  12    0.68    0.13
  -3  -2  12    0.48    0.14
  -2  -2  12    5.71    0.40
  -2  -2  12    6.48    0.44
  -2  -2  12    6.43    0.47
  -1  -2  12    2.51    0.23
  -1  -2  12    1.99    0.18
   0   2 -12    1.56    0.19
   0  -2  12    1.82    0.17
  -1   2 -12   16.93    1.11
   1  -2  12   17.45    1.10
  -2   2 -12    0.77    0.12
   2  -2  12    0.92    0.12
  -3   2 -12    0.06    0.06
  -3   2 -12   -0.06    0.09
  -3   2 -12    0.15    0.10
  -4   2 -12    2.18    0.19
  -4   2 -12    2.15    0.22
  -5  -1  12    2.17    0.18
  -5  -1  12    1.97    0.17
  -4  -1  12    0.57    0.10
  -4  -1  12    0.49    0.11
  -4  -1  12    0.66    0.10
  -3  -1  12    1.43    0.17
  -3  -1  12    1.77    0.18
  -2  -1  12    5.67    0.39
  -2  -1  12    5.22    0.41
  -2  -1  12    5.25    0.35
  -1  -1  12    0.13    0.13
  -1  -1  12   -0.05    0.12
  -1  -1  12   -0.02    0.07
   0   1 -12    1.04    0.16
   0  -1  12    1.09    0.12
  -1   1 -12    0.01    0.11
   1  -1  12   -0.08    0.09
  -2   1 -12    1.20    0.16
  -2   1 -12    0.89    0.17
  -2   1 -12    0.97    0.12
   2  -1  12    0.86    0.12
  -3   1 -12    1.21    0.13
  -3   1 -12    0.86    0.14
  -5   0  12    0.24    0.09
  -5   0  12    0.09    0.09
  -4   0  12    0.10    0.07
  -4   0  12    0.00    0.09
  -4   0  12   -0.08    0.10
  -3   0  12   13.17    0.94
  -3   0  12   13.83    0.88
  -2   0  12    0.06    0.06
  -2   0  12    0.13    0.12
  -2   0  12    0.07    0.10
  -1   0  12    0.18    0.10
  -1   0  12   -0.11    0.12
  -1   0  12    0.02    0.07
   0   0 -12    1.56    0.17
   0   0  12    1.93    0.16
   0   0  12    1.51    0.18
  -1   0 -12    0.24    0.11
  -1   0 -12    0.27    0.12
   1   0  12    0.09    0.06
  -2   0 -12   -0.12    0.11
  -2   0 -12   -0.12    0.12
  -2   0 -12   -0.07    0.06
   2   0  12   -0.02    0.08
  -3   0 -12    3.60    0.27
  -4   1  12    0.45    0.07
  -3   1  12    0.05    0.11
  -2   1  12    0.27    0.08
   1  -1 -12    8.07    0.58
  -1   1  12    9.20    0.56
   0  -1 -12    0.02    0.10
   0   1  12   -0.06    0.08
  -1  -1 -12    0.76    0.10
   1   1  12    0.98    0.10
  -1   2  12    1.32    0.11
   0  -2 -12    0.06    0.07
  -2  -7  13    1.89    0.15
  -1  -7  13    0.24    0.08
   1  -7  13    1.84    0.13
  -4  -6  13    0.21    0.08
  -3  -6  13    0.02    0.09
  -2  -6  13    0.77    0.11
  -2  -6  13    0.73    0.11
  -1  -6  13    4.04    0.32
  -1  -6  13    4.20    0.30
   0   6 -13    0.01    0.10
   0  -6  13    0.08    0.05
   0  -6  13    0.06    0.07
  -1   6 -13   -0.06    0.09
   1  -6  13    0.02    0.05
  -2   6 -13    2.28    0.18
   2  -6  13    2.14    0.16
  -4  -5  13    3.56    0.24
  -3  -5  13    1.35    0.13
  -3  -5  13    1.47    0.13
  -2  -5  13    0.02    0.08
  -2  -5  13    0.07    0.10
  -1  -5  13   -0.08    0.10
  -1  -5  13    0.04    0.08
   0   5 -13    0.15    0.11
   0  -5  13    0.05    0.11
   0  -5  13    0.15    0.06
  -1   5 -13    0.60    0.10
   1  -5  13    0.62    0.08
  -2   5 -13    1.29    0.13
  -4  -4  13    0.18    0.09
  -4  -4  13    0.27    0.10
  -3  -4  13    0.54    0.11
  -3  -4  13    0.61    0.10
  -2  -4  13    1.71    0.17
  -2  -4  13    1.88    0.17
  -1  -4  13    0.92    0.13
  -1  -4  13    0.73    0.10
   0   4 -13    0.86    0.10
  -1   4 -13    5.33    0.38
   1  -4  13    5.55    0.36
  -2   4 -13   -0.08    0.07
  -4  -3  13    0.41    0.09
  -4  -3  13    0.36    0.10
  -3  -3  13   -0.10    0.06
  -3  -3  13    0.04    0.07
  -2  -3  13    0.43    0.11
  -1  -3  13    0.18    0.10
  -1  -3  13    0.06    0.11
   0   3 -13    1.42    0.15
  -1   3 -13    1.65    0.15
  -2   3 -13    0.85    0.09
  -2   3 -13    0.97    0.14
   2  -3  13    0.80    0.09
  -4  -2  13    0.29    0.10
  -4  -2  13    0.41    0.09
  -3  -2  13    3.64    0.26
  -2  -2  13    0.36    0.08
  -2  -2  13    0.48    0.10
  -1  -2  13    0.76    0.12
  -1  -2  13    0.86    0.09
  -1  -2  13    0.98    0.12
   0   2 -13    0.98    0.13
   0  -2  13    1.11    0.13
   0  -2  13    1.25    0.13
  -1   2 -13    5.32    0.38
   1  -2  13    5.73    0.37
  -3  -1  13    0.20    0.10
  -3  -1  13    0.17    0.07
  -2  -1  13    0.41    0.10
  -2  -1  13    0.35    0.10
   1   1 -13    6.70    0.48
  -1  -1  13    7.38    0.45
  -1  -1  13    7.00    0.49
  -1  -1  13    6.94    0.47
   0   1 -13    0.02    0.09
   0  -1  13    0.04    0.06
  -1   1 -13    1.68    0.14
   1  -1  13    1.70    0.14
   0   0   0    0.00    0.00
;
_shelx_hkl_checksum   44280

