data_c17028 
 
_audit_creation_method            'SHELXL-2016/6' 
# CIF edited on-the-fly by script CIFFIX (S. Parkin, 2000-2016). 
# CIFFIX: http://xray.uky.edu/people/parkin/programs/ciffix 
_audit_update_record              ? 
 
_shelx_SHELXL_version_number      '2016/6' 
 
_publ_section_exptl_refinement 
; 
H atoms were found in difference Fourier maps, but subsequently included 
in the refinement using riding models, with constrained distances set to 
0.95 \%A (C~sp2~H), 0.98 \%A (RCH~3~) and 1.00 \%A (R~3~CH).  U~iso~(H) 
parameters were set to values of either 1.2U~eq~ or 1.5U~eq~ (RCH~3~ only) 
of the attached atom. 
; 
 
_publ_section_references 
; 
Bruker-AXS (2016). 
  <i>APEX3</i> Bruker-AXS Inc., Madison, WI, USA. 
 
Hope, H. (1994). 
  <i>Prog. Inorg. Chem.</i> <b>41</b>, 1--19. 
 
Krause, L., Herbst-Irmer, R., Sheldrick, G.M. & Stalke, D. (2015). 
  <i>J. Appl. Cryst.</i> <b>48</b>, 3--10. 
 
Parkin, S. & Hope, H. (1998). 
  <i>J. Appl. Cryst.</i> <b>31</b>, 945--953. 
 
Parkin, S. (2000). 
  <i>Acta Cryst.</i> A<b>56</b>, 157--162. 
 
Parkin, S. (2013). 
  <i>CIFFIX</i>, http://xray.uky.edu/people/parkin/programs/ciffix 
 
Sheldrick, G.M. (2008). 
  <i>Acta Cryst.</i> A<b>64</b>, 112--122. 
 
Sheldrick, G.M. (2015a). 
  <i>Acta Cryst.</i> A<b>71</b>, 3--8. 
 
Sheldrick, G.M. (2015b). 
  <i>Acta Cryst.</i> C<b>71</b>, 3--8. 
 
Spek, A.L. (2009). 
  <i>Acta Cryst.</i> D<b>65</b>, 148--155. 
; 
 
_publ_section_acknowledgements 
; 
The D8 Venture diffractometer was funded by the NSF (MRI CHE1625732), 
and by the University of Kentucky. 
; 
 
_chemical_name_systematic         ? 
_chemical_name_common             ? 
_chemical_melting_point           ? 
_chemical_formula_moiety          'C40 H52 N2 Si2' 
_chemical_formula_sum             'C40 H52 N2 Si2' 
_chemical_formula_weight          617.01 
 
loop_ 
 _atom_type_symbol 
 _atom_type_description 
 _atom_type_scat_dispersion_real 
 _atom_type_scat_dispersion_imag 
 _atom_type_scat_source 
 'C'  'C'   0.0181   0.0091 
 'International Tables Vol C Tables 4.2.6.8 and 6.1.1.4' 
 'H'  'H'   0.0000   0.0000 
 'International Tables Vol C Tables 4.2.6.8 and 6.1.1.4' 
 'N'  'N'   0.0311   0.0180 
 'International Tables Vol C Tables 4.2.6.8 and 6.1.1.4' 
 'Si'  'Si'   0.2541   0.3302 
 'International Tables Vol C Tables 4.2.6.8 and 6.1.1.4' 
 
_space_group_crystal_system       triclinic 
_space_group_IT_number            2 
_space_group_name_H-M_alt         'P -1' 
_space_group_name_Hall            '-P 1' 
 
_shelx_space_group_comment 
; 
The symmetry employed for this shelxl refinement is uniquely defined 
by the following loop, which should always be used as a source of 
symmetry information in preference to the above space-group names. 
They are only intended as comments. 
; 
 
loop_ 
 _space_group_symop_operation_xyz 
 'x, y, z' 
 '-x, -y, -z' 
 
_cell_length_a                    8.2227(5) 
_cell_length_b                    10.3179(6) 
_cell_length_c                    11.9239(7) 
_cell_angle_alpha                 105.145(2) 
_cell_angle_beta                  102.777(2) 
_cell_angle_gamma                 105.184(2) 
_cell_volume                      895.72(9) 
_cell_formula_units_Z             1 
_cell_measurement_temperature     90.0(2) 
_cell_measurement_reflns_used     9887 
_cell_measurement_theta_min       7.25 
_cell_measurement_theta_max       74.89 
 
_exptl_crystal_description        plate 
_exptl_crystal_colour             purple 
_exptl_crystal_density_meas       ? 
_exptl_crystal_density_method     ? 
_exptl_crystal_density_diffrn     1.144 
_exptl_crystal_F_000              334 
_exptl_transmission_factor_min    ? 
_exptl_transmission_factor_max    ? 
_exptl_crystal_size_max           0.250 
_exptl_crystal_size_mid           0.120 
_exptl_crystal_size_min           0.020 
_exptl_absorpt_coefficient_mu     1.107 
_shelx_estimated_absorpt_T_min    0.769 
_shelx_estimated_absorpt_T_max    0.978 
_exptl_absorpt_correction_type    multi-scan 
_exptl_absorpt_correction_T_min   0.749 
_exptl_absorpt_correction_T_max   0.929 
_exptl_absorpt_process_details    '<i>SADABS</i> (Krause et al., 2015)' 
_exptl_absorpt_special_details 
; 
In addition to absorption, multi-scan techniques also correct other slowly 
varying changes in scale factor over reciprocal space, such as those caused 
by x-ray beam inhomogeneity, goniometer imperfection, crystal decomposition, 
crystal longer than the x-ray beam cross section, absorption by the crystal 
mount etc.  These account, by and large, for much of the difference between 
estimated values of Tmin and Tmax and the _exptl_absorpt_correction_ values. 
; 
 
_exptl_special_details 
; 
The crystal was mounted using polyisobutene oil on the tip of a fine glass 
fibre, which was fastened in a copper mounting pin with electrical solder. 
It was placed directly into the cold gas stream of a liquid-nitrogen based 
cryostat (Hope, 1994; Parkin & Hope, 1998). 
 
Diffraction data were collected with the crystal at 90K, which is standard 
practice in this laboratory for the majority of flash-cooled crystals. 
; 
 
_diffrn_ambient_temperature       90.0(2) 
_diffrn_radiation_wavelength      1.54178 
_diffrn_radiation_type            CuK\a 
_diffrn_source                    'microsource' 
_diffrn_measurement_device_type   'Bruker D8 Venture dual source' 
_diffrn_measurement_method        '\f and \w scans' 
_diffrn_detector_area_resol_mean  5.6 
_diffrn_reflns_number             14568 
_diffrn_reflns_av_unetI/netI      0.0344 
_diffrn_reflns_av_R_equivalents   0.0395 
_diffrn_reflns_limit_h_min        -10 
_diffrn_reflns_limit_h_max        9 
_diffrn_reflns_limit_k_min        -12 
_diffrn_reflns_limit_k_max        12 
_diffrn_reflns_limit_l_min        -14 
_diffrn_reflns_limit_l_max        14 
_diffrn_reflns_theta_min          7.250 
_diffrn_reflns_theta_max          75.042 
_diffrn_reflns_theta_full         67.679 
_diffrn_measured_fraction_theta_max                0.980 
_diffrn_measured_fraction_theta_full               0.987 
_diffrn_reflns_Laue_measured_fraction_max          0.980 
_diffrn_reflns_Laue_measured_fraction_full         0.987 
_diffrn_reflns_point_group_measured_fraction_max   0.980 
_diffrn_reflns_point_group_measured_fraction_full  0.987 
 
_reflns_number_total              3616 
_reflns_number_gt                 3444 
_reflns_threshold_expression      'I > 2\s(I)' 
_reflns_Friedel_coverage          0.000 
_reflns_Friedel_fraction_max      . 
_reflns_Friedel_fraction_full     . 
_reflns_special_details 
; 
Reflections were merged by SHELXL according to the crystal 
class for the calculation of statistics and refinement. 
 
_reflns_Friedel_fraction is defined as the number of unique 
Friedel pairs measured divided by the number that would be 
possible theoretically, ignoring centric projections and 
systematic absences. 
; 
 
_computing_data_collection        '<i>APEX3</i> (Bruker-AXS, 2016)' 
_computing_cell_refinement        '<i>APEX3</i> (Bruker-AXS, 2016)' 
_computing_data_reduction         '<i>APEX3</i> (Bruker-AXS, 2016)' 
_computing_structure_solution     '<i>SHELXT</i> (Sheldrick, 2015a)' 
_computing_structure_refinement   '<i>SHELXL-2016/6</i> (Sheldrick, 2015b)' 
_computing_molecular_graphics     '<i>XP in SHELXTL</i> (Sheldrick, 2008)' 
_computing_publication_material 
'<i>SHELX</i> (Sheldrick, 2008) and <i>CIFFIX</i> (Parkin, 2013)' 
 
_refine_special_details 
; 
Refinement progress was checked using <i>Platon</i> (Spek, 2009) and by 
an <i>R</i>-tensor (Parkin, 2000). The final model was further checked 
with the IUCr utility <i>checkCIF</i>. 
; 
_refine_ls_structure_factor_coef  Fsqd 
_refine_ls_matrix_type            full 
_refine_ls_weighting_scheme       calc 
_refine_ls_weighting_details 
'w=1/[\s^2^(Fo^2^)+(0.0502P)^2^+0.4315P] where P=(Fo^2^+2Fc^2^)/3' 
_atom_sites_solution_primary      direct 
_atom_sites_solution_secondary    difmap 
_atom_sites_solution_hydrogens    difmap 
_refine_ls_hydrogen_treatment     constr 
_refine_ls_extinction_method      none 
_refine_ls_extinction_coef        . 
_refine_ls_number_reflns          3616 
_refine_ls_number_parameters      205 
_refine_ls_number_restraints      0 
_refine_ls_R_factor_all           0.0408 
_refine_ls_R_factor_gt            0.0392 
_refine_ls_wR_factor_ref          0.1067 
_refine_ls_wR_factor_gt           0.1049 
_refine_ls_goodness_of_fit_ref    1.043 
_refine_ls_restrained_S_all       1.043 
_refine_ls_shift/su_max           0.000 
_refine_ls_shift/su_mean          0.000 
 
loop_ 
 _atom_site_label 
 _atom_site_type_symbol 
 _atom_site_fract_x 
 _atom_site_fract_y 
 _atom_site_fract_z 
 _atom_site_U_iso_or_equiv 
 _atom_site_adp_type 
 _atom_site_occupancy 
 _atom_site_site_symmetry_order 
 _atom_site_calc_flag 
 _atom_site_refinement_flags_posn 
 _atom_site_refinement_flags_adp 
 _atom_site_refinement_flags_occupancy 
 _atom_site_disorder_assembly 
 _atom_site_disorder_group 
Si1 Si 0.67422(4) 0.16526(3) 0.81743(3) 0.01814(12) Uani 1 1 d . . . . . 
C1 C 0.54675(16) 0.41608(13) 0.57545(11) 0.0193(3) Uani 1 1 d . . . . . 
C2 C 0.62011(16) 0.43125(13) 0.48222(11) 0.0189(3) Uani 1 1 d . . . . . 
N3 N 0.74218(14) 0.37571(11) 0.44264(10) 0.0192(2) Uani 1 1 d . . . . . 
C4 C 0.83022(17) 0.29366(14) 0.48740(12) 0.0225(3) Uani 1 1 d . . . . . 
H4A H 0.806575 0.264997 0.553342 0.027 Uiso 1 1 calc R U . . . 
C5 C 0.94979(18) 0.25410(14) 0.43768(13) 0.0249(3) Uani 1 1 d . . . . . 
H5A H 1.009776 0.197466 0.468471 0.030 Uiso 1 1 calc R U . . . 
C6 C 0.98597(18) 0.29758(14) 0.33860(13) 0.0252(3) Uani 1 1 d . . . . . 
H6A H 1.070722 0.270323 0.304146 0.030 Uiso 1 1 calc R U . . . 
C7 C 0.89960(18) 0.37770(14) 0.29359(13) 0.0242(3) Uani 1 1 d . . . . . 
H7A H 0.923410 0.404937 0.227090 0.029 Uiso 1 1 calc R U . . . 
C8 C 0.77398(17) 0.42123(14) 0.34490(12) 0.0209(3) Uani 1 1 d . . . . . 
C9 C 0.67213(16) 0.50400(14) 0.32247(12) 0.0205(3) Uani 1 1 d . . . . . 
H9A H 0.667426 0.547407 0.261244 0.025 Uiso 1 1 calc R U . . . 
C10 C 0.57588(16) 0.51255(13) 0.40717(12) 0.0189(3) Uani 1 1 d . . . . . 
C11 C 0.58608(16) 0.33423(14) 0.65120(12) 0.0203(3) Uani 1 1 d . . . . . 
C12 C 0.61429(17) 0.26468(14) 0.71601(12) 0.0215(3) Uani 1 1 d . . . . . 
C13 C 0.51998(17) 0.15755(14) 0.91317(12) 0.0225(3) Uani 1 1 d . . . . . 
H13A H 0.563603 0.116454 0.976184 0.027 Uiso 1 1 calc R U . . . 
C14 C 0.33038(19) 0.05914(16) 0.83692(15) 0.0331(3) Uani 1 1 d . . . . . 
H14A H 0.253359 0.060517 0.888971 0.050 Uiso 1 1 calc R U . . . 
H14B H 0.329563 -0.038446 0.802878 0.050 Uiso 1 1 calc R U . . . 
H14C H 0.286988 0.092445 0.770170 0.050 Uiso 1 1 calc R U . . . 
C15 C 0.52134(19) 0.30653(15) 0.98110(14) 0.0280(3) Uani 1 1 d . . . . . 
H15A H 0.438705 0.297915 1.028887 0.042 Uiso 1 1 calc R U . . . 
H15B H 0.485012 0.351823 0.921772 0.042 Uiso 1 1 calc R U . . . 
H15C H 0.641174 0.364992 1.036011 0.042 Uiso 1 1 calc R U . . . 
C16 C 0.90855(17) 0.27627(14) 0.91857(12) 0.0213(3) Uani 1 1 d . . . . . 
H16A H 0.901799 0.367910 0.968563 0.026 Uiso 1 1 calc R U . . . 
C17 C 0.98683(18) 0.21138(16) 1.01058(13) 0.0276(3) Uani 1 1 d . . . . . 
H17A H 1.097893 0.282063 1.069682 0.041 Uiso 1 1 calc R U . . . 
H17B H 1.010169 0.127002 0.966954 0.041 Uiso 1 1 calc R U . . . 
H17C H 0.902333 0.183707 1.053755 0.041 Uiso 1 1 calc R U . . . 
C18 C 1.03760(18) 0.31760(16) 0.84845(14) 0.0287(3) Uani 1 1 d . . . . . 
H18A H 1.149721 0.388341 0.906125 0.043 Uiso 1 1 calc R U . . . 
H18B H 0.986128 0.358320 0.789809 0.043 Uiso 1 1 calc R U . . . 
H18C H 1.059487 0.232559 0.804581 0.043 Uiso 1 1 calc R U . . . 
C19 C 0.64003(17) -0.02091(14) 0.71756(12) 0.0219(3) Uani 1 1 d . . . . . 
H19A H 0.513546 -0.060784 0.664513 0.026 Uiso 1 1 calc R U . . . 
C20 C 0.6614(2) -0.12037(15) 0.79158(14) 0.0311(3) Uani 1 1 d . . . . . 
H20A H 0.625182 -0.218483 0.735566 0.047 Uiso 1 1 calc R U . . . 
H20B H 0.586832 -0.116119 0.845269 0.047 Uiso 1 1 calc R U . . . 
H20C H 0.785703 -0.089934 0.841101 0.047 Uiso 1 1 calc R U . . . 
C21 C 0.7520(2) -0.02831(16) 0.63053(15) 0.0333(3) Uani 1 1 d . . . . . 
H21A H 0.712643 -0.126173 0.573388 0.050 Uiso 1 1 calc R U . . . 
H21B H 0.877019 0.000157 0.677823 0.050 Uiso 1 1 calc R U . . . 
H21C H 0.737827 0.036364 0.584701 0.050 Uiso 1 1 calc R U . . . 
 
loop_ 
 _atom_site_aniso_label 
 _atom_site_aniso_U_11 
 _atom_site_aniso_U_22 
 _atom_site_aniso_U_33 
 _atom_site_aniso_U_23 
 _atom_site_aniso_U_13 
 _atom_site_aniso_U_12 
Si1 0.01620(19) 0.01976(19) 0.0237(2) 0.01072(14) 0.00784(14) 0.00964(14) 
C1 0.0175(6) 0.0200(6) 0.0221(6) 0.0086(5) 0.0052(5) 0.0086(5) 
C2 0.0164(6) 0.0200(6) 0.0228(6) 0.0081(5) 0.0059(5) 0.0095(5) 
N3 0.0175(5) 0.0213(5) 0.0222(5) 0.0084(4) 0.0074(4) 0.0100(4) 
C4 0.0212(6) 0.0238(6) 0.0258(6) 0.0098(5) 0.0065(5) 0.0124(5) 
C5 0.0236(7) 0.0259(7) 0.0290(7) 0.0096(5) 0.0074(5) 0.0144(5) 
C6 0.0210(6) 0.0255(7) 0.0321(7) 0.0079(6) 0.0117(5) 0.0115(5) 
C7 0.0226(6) 0.0251(6) 0.0293(7) 0.0096(5) 0.0128(5) 0.0108(5) 
C8 0.0195(6) 0.0214(6) 0.0238(6) 0.0088(5) 0.0084(5) 0.0075(5) 
C9 0.0195(6) 0.0223(6) 0.0238(6) 0.0101(5) 0.0092(5) 0.0093(5) 
C10 0.0167(6) 0.0193(6) 0.0223(6) 0.0085(5) 0.0057(5) 0.0074(5) 
C11 0.0183(6) 0.0226(6) 0.0233(6) 0.0084(5) 0.0080(5) 0.0105(5) 
C12 0.0193(6) 0.0237(6) 0.0263(6) 0.0097(5) 0.0095(5) 0.0116(5) 
C13 0.0199(6) 0.0248(6) 0.0291(7) 0.0134(5) 0.0107(5) 0.0107(5) 
C14 0.0219(7) 0.0322(8) 0.0443(9) 0.0088(7) 0.0152(6) 0.0077(6) 
C15 0.0270(7) 0.0294(7) 0.0331(7) 0.0102(6) 0.0159(6) 0.0132(6) 
C16 0.0175(6) 0.0218(6) 0.0275(6) 0.0094(5) 0.0079(5) 0.0095(5) 
C17 0.0214(6) 0.0358(7) 0.0289(7) 0.0144(6) 0.0067(5) 0.0125(6) 
C18 0.0196(6) 0.0318(7) 0.0383(8) 0.0174(6) 0.0107(6) 0.0075(5) 
C19 0.0209(6) 0.0207(6) 0.0264(6) 0.0089(5) 0.0073(5) 0.0099(5) 
C20 0.0388(8) 0.0228(7) 0.0348(8) 0.0123(6) 0.0094(6) 0.0148(6) 
C21 0.0381(8) 0.0269(7) 0.0388(8) 0.0075(6) 0.0204(7) 0.0138(6) 
 
_geom_special_details 
; 
 All esds (except the esd in the dihedral angle between two l.s. planes) 
 are estimated using the full covariance matrix.  The cell esds are taken 
 into account individually in the estimation of esds in distances, angles 
 and torsion angles; correlations between esds in cell parameters are only 
 used when they are defined by crystal symmetry.  An approximate (isotropic) 
 treatment of cell esds is used for estimating esds involving l.s. planes. 
; 
 
loop_ 
 _geom_bond_atom_site_label_1 
 _geom_bond_atom_site_label_2 
 _geom_bond_distance 
 _geom_bond_site_symmetry_2 
 _geom_bond_publ_flag 
Si1 C12 1.8458(14) . ? 
Si1 C13 1.8850(13) . ? 
Si1 C19 1.8870(13) . ? 
Si1 C16 1.8903(14) . ? 
C1 C2 1.4008(18) . ? 
C1 C10 1.4156(17) 2_666 ? 
C1 C11 1.4304(17) . ? 
C2 N3 1.3885(16) . ? 
C2 C10 1.4300(17) . ? 
N3 C4 1.3827(16) . ? 
N3 C8 1.4155(16) . ? 
C4 C5 1.3515(19) . ? 
C4 H4A 0.9500 . ? 
C5 C6 1.431(2) . ? 
C5 H5A 0.9500 . ? 
C6 C7 1.3588(19) . ? 
C6 H6A 0.9500 . ? 
C7 C8 1.4219(18) . ? 
C7 H7A 0.9500 . ? 
C8 C9 1.3774(18) . ? 
C9 C10 1.4134(18) . ? 
C9 H9A 0.9500 . ? 
C11 C12 1.2098(19) . ? 
C13 C14 1.5328(19) . ? 
C13 C15 1.5348(19) . ? 
C13 H13A 1.0000 . ? 
C14 H14A 0.9800 . ? 
C14 H14B 0.9800 . ? 
C14 H14C 0.9800 . ? 
C15 H15A 0.9800 . ? 
C15 H15B 0.9800 . ? 
C15 H15C 0.9800 . ? 
C16 C18 1.5326(18) . ? 
C16 C17 1.5374(18) . ? 
C16 H16A 1.0000 . ? 
C17 H17A 0.9800 . ? 
C17 H17B 0.9800 . ? 
C17 H17C 0.9800 . ? 
C18 H18A 0.9800 . ? 
C18 H18B 0.9800 . ? 
C18 H18C 0.9800 . ? 
C19 C21 1.5323(19) . ? 
C19 C20 1.5368(18) . ? 
C19 H19A 1.0000 . ? 
C20 H20A 0.9800 . ? 
C20 H20B 0.9800 . ? 
C20 H20C 0.9800 . ? 
C21 H21A 0.9800 . ? 
C21 H21B 0.9800 . ? 
C21 H21C 0.9800 . ? 
 
loop_ 
 _geom_angle_atom_site_label_1 
 _geom_angle_atom_site_label_2 
 _geom_angle_atom_site_label_3 
 _geom_angle 
 _geom_angle_site_symmetry_1 
 _geom_angle_site_symmetry_3 
 _geom_angle_publ_flag 
C12 Si1 C13 107.61(6) . . ? 
C12 Si1 C19 107.67(6) . . ? 
C13 Si1 C19 109.87(6) . . ? 
C12 Si1 C16 105.25(6) . . ? 
C13 Si1 C16 109.72(6) . . ? 
C19 Si1 C16 116.30(6) . . ? 
C2 C1 C10 115.98(11) . 2_666 ? 
C2 C1 C11 124.82(11) . . ? 
C10 C1 C11 119.20(12) 2_666 . ? 
N3 C2 C1 130.08(11) . . ? 
N3 C2 C10 106.63(11) . . ? 
C1 C2 C10 123.28(11) . . ? 
C4 N3 C2 129.60(11) . . ? 
C4 N3 C8 121.71(11) . . ? 
C2 N3 C8 108.65(10) . . ? 
C5 C4 N3 120.24(13) . . ? 
C5 C4 H4A 119.9 . . ? 
N3 C4 H4A 119.9 . . ? 
C4 C5 C6 119.94(12) . . ? 
C4 C5 H5A 120.0 . . ? 
C6 C5 H5A 120.0 . . ? 
C7 C6 C5 120.28(12) . . ? 
C7 C6 H6A 119.9 . . ? 
C5 C6 H6A 119.9 . . ? 
C6 C7 C8 120.76(13) . . ? 
C6 C7 H7A 119.6 . . ? 
C8 C7 H7A 119.6 . . ? 
C9 C8 N3 108.88(11) . . ? 
C9 C8 C7 134.05(12) . . ? 
N3 C8 C7 117.07(11) . . ? 
C8 C9 C10 107.50(11) . . ? 
C8 C9 H9A 126.2 . . ? 
C10 C9 H9A 126.2 . . ? 
C9 C10 C1 130.93(12) . 2_666 ? 
C9 C10 C2 108.34(11) . . ? 
C1 C10 C2 120.74(12) 2_666 . ? 
C12 C11 C1 177.92(13) . . ? 
C11 C12 Si1 175.95(12) . . ? 
C14 C13 C15 110.46(11) . . ? 
C14 C13 Si1 111.8(1) . . ? 
C15 C13 Si1 111.96(9) . . ? 
C14 C13 H13A 107.5 . . ? 
C15 C13 H13A 107.5 . . ? 
Si1 C13 H13A 107.5 . . ? 
C13 C14 H14A 109.5 . . ? 
C13 C14 H14B 109.5 . . ? 
H14A C14 H14B 109.5 . . ? 
C13 C14 H14C 109.5 . . ? 
H14A C14 H14C 109.5 . . ? 
H14B C14 H14C 109.5 . . ? 
C13 C15 H15A 109.5 . . ? 
C13 C15 H15B 109.5 . . ? 
H15A C15 H15B 109.5 . . ? 
C13 C15 H15C 109.5 . . ? 
H15A C15 H15C 109.5 . . ? 
H15B C15 H15C 109.5 . . ? 
C18 C16 C17 110.17(11) . . ? 
C18 C16 Si1 114.04(9) . . ? 
C17 C16 Si1 114.06(9) . . ? 
C18 C16 H16A 105.9 . . ? 
C17 C16 H16A 105.9 . . ? 
Si1 C16 H16A 105.9 . . ? 
C16 C17 H17A 109.5 . . ? 
C16 C17 H17B 109.5 . . ? 
H17A C17 H17B 109.5 . . ? 
C16 C17 H17C 109.5 . . ? 
H17A C17 H17C 109.5 . . ? 
H17B C17 H17C 109.5 . . ? 
C16 C18 H18A 109.5 . . ? 
C16 C18 H18B 109.5 . . ? 
H18A C18 H18B 109.5 . . ? 
C16 C18 H18C 109.5 . . ? 
H18A C18 H18C 109.5 . . ? 
H18B C18 H18C 109.5 . . ? 
C21 C19 C20 110.52(11) . . ? 
C21 C19 Si1 114.83(9) . . ? 
C20 C19 Si1 112.47(9) . . ? 
C21 C19 H19A 106.1 . . ? 
C20 C19 H19A 106.1 . . ? 
Si1 C19 H19A 106.1 . . ? 
C19 C20 H20A 109.5 . . ? 
C19 C20 H20B 109.5 . . ? 
H20A C20 H20B 109.5 . . ? 
C19 C20 H20C 109.5 . . ? 
H20A C20 H20C 109.5 . . ? 
H20B C20 H20C 109.5 . . ? 
C19 C21 H21A 109.5 . . ? 
C19 C21 H21B 109.5 . . ? 
H21A C21 H21B 109.5 . . ? 
C19 C21 H21C 109.5 . . ? 
H21A C21 H21C 109.5 . . ? 
H21B C21 H21C 109.5 . . ? 
 
loop_ 
 _geom_torsion_atom_site_label_1 
 _geom_torsion_atom_site_label_2 
 _geom_torsion_atom_site_label_3 
 _geom_torsion_atom_site_label_4 
 _geom_torsion 
 _geom_torsion_site_symmetry_1 
 _geom_torsion_site_symmetry_2 
 _geom_torsion_site_symmetry_3 
 _geom_torsion_site_symmetry_4 
 _geom_torsion_publ_flag 
C10 C1 C2 N3 -179.99(12) 2_666 . . . ? 
C11 C1 C2 N3 -0.5(2) . . . . ? 
C10 C1 C2 C10 -0.3(2) 2_666 . . . ? 
C11 C1 C2 C10 179.16(12) . . . . ? 
C1 C2 N3 C4 -2.5(2) . . . . ? 
C10 C2 N3 C4 177.74(12) . . . . ? 
C1 C2 N3 C8 179.75(13) . . . . ? 
C10 C2 N3 C8 0.03(14) . . . . ? 
C2 N3 C4 C5 -177.72(13) . . . . ? 
C8 N3 C4 C5 -0.28(19) . . . . ? 
N3 C4 C5 C6 0.2(2) . . . . ? 
C4 C5 C6 C7 -0.5(2) . . . . ? 
C5 C6 C7 C8 0.8(2) . . . . ? 
C4 N3 C8 C9 -178.29(11) . . . . ? 
C2 N3 C8 C9 -0.37(14) . . . . ? 
C4 N3 C8 C7 0.60(18) . . . . ? 
C2 N3 C8 C7 178.52(11) . . . . ? 
C6 C7 C8 C9 177.66(14) . . . . ? 
C6 C7 C8 N3 -0.88(19) . . . . ? 
N3 C8 C9 C10 0.55(14) . . . . ? 
C7 C8 C9 C10 -178.07(14) . . . . ? 
C8 C9 C10 C1 179.74(13) . . . 2_666 ? 
C8 C9 C10 C2 -0.53(14) . . . . ? 
N3 C2 C10 C9 0.30(14) . . . . ? 
C1 C2 C10 C9 -179.44(12) . . . . ? 
N3 C2 C10 C1 -179.93(11) . . . 2_666 ? 
C1 C2 C10 C1 0.3(2) . . . 2_666 ? 
C12 Si1 C13 C14 70.43(11) . . . . ? 
C19 Si1 C13 C14 -46.52(11) . . . . ? 
C16 Si1 C13 C14 -175.57(9) . . . . ? 
C12 Si1 C13 C15 -54.13(11) . . . . ? 
C19 Si1 C13 C15 -171.08(9) . . . . ? 
C16 Si1 C13 C15 59.88(11) . . . . ? 
C12 Si1 C16 C18 -51.55(11) . . . . ? 
C13 Si1 C16 C18 -167.06(9) . . . . ? 
C19 Si1 C16 C18 67.50(11) . . . . ? 
C12 Si1 C16 C17 -179.33(9) . . . . ? 
C13 Si1 C16 C17 65.15(11) . . . . ? 
C19 Si1 C16 C17 -60.28(11) . . . . ? 
C12 Si1 C19 C21 60.25(11) . . . . ? 
C13 Si1 C19 C21 177.16(10) . . . . ? 
C16 Si1 C19 C21 -57.48(12) . . . . ? 
C12 Si1 C19 C20 -172.21(9) . . . . ? 
C13 Si1 C19 C20 -55.29(11) . . . . ? 
C16 Si1 C19 C20 70.06(11) . . . . ? 
 
_refine_diff_density_max    0.410 
_refine_diff_density_min   -0.315 
_refine_diff_density_rms    0.045 
 
_shelx_res_file 
; 
TITL c17028 : space group P1bar 
    c17028.res 
    created by SHELXL-2016/6 at 13:56:02 on 25-May-2017 
 
CELL  1.54178   8.2227  10.3179  11.9239  105.145  102.777  105.184 
ZERR    1.000   0.0005   0.0006   0.0007    0.002    0.002    0.002 
LATT  1 
SFAC C H N SI 
UNIT 40 52 2 2 
TEMP -183 
SIZE 0.25 0.12 0.02 
REM FORM plate 
REM COLR purple 
L.S. 10 
BOND $H 
LIST 4 
ACTA 
CONF 
HTAB 
FMAP 2 
PLAN 5 
WGHT    0.050200    0.431500 
FVAR       1.08628 
SI1   4    0.674221    0.165260    0.817425    11.00000    0.01620    0.01976 = 
         0.02366    0.01072    0.00784    0.00964 
C1    1    0.546745    0.416076    0.575450    11.00000    0.01754    0.02001 = 
         0.02209    0.00864    0.00519    0.00855 
C2    1    0.620111    0.431246    0.482220    11.00000    0.01642    0.02004 = 
         0.02279    0.00805    0.00588    0.00950 
N3    3    0.742178    0.375711    0.442644    11.00000    0.01752    0.02126 = 
         0.02224    0.00844    0.00737    0.00997 
C4    1    0.830220    0.293662    0.487401    11.00000    0.02122    0.02384 = 
         0.02578    0.00983    0.00650    0.01239 
AFIX  43 
H4A   2    0.806575    0.264997    0.553342    11.00000   -1.20000 
AFIX   0 
C5    1    0.949790    0.254097    0.437678    11.00000    0.02356    0.02587 = 
         0.02898    0.00962    0.00738    0.01443 
AFIX  43 
H5A   2    1.009776    0.197466    0.468471    11.00000   -1.20000 
AFIX   0 
C6    1    0.985966    0.297582    0.338598    11.00000    0.02099    0.02550 = 
         0.03205    0.00794    0.01166    0.01153 
AFIX  43 
H6A   2    1.070722    0.270323    0.304146    11.00000   -1.20000 
AFIX   0 
C7    1    0.899596    0.377697    0.293595    11.00000    0.02257    0.02514 = 
         0.02929    0.00961    0.01280    0.01081 
AFIX  43 
H7A   2    0.923410    0.404937    0.227090    11.00000   -1.20000 
AFIX   0 
C8    1    0.773982    0.421226    0.344901    11.00000    0.01948    0.02143 = 
         0.02383    0.00885    0.00842    0.00746 
C9    1    0.672127    0.503996    0.322467    11.00000    0.01951    0.02231 = 
         0.02382    0.01009    0.00916    0.00931 
AFIX  43 
H9A   2    0.667426    0.547407    0.261244    11.00000   -1.20000 
AFIX   0 
C10   1    0.575883    0.512546    0.407169    11.00000    0.01672    0.01932 = 
         0.02230    0.00852    0.00571    0.00743 
C11   1    0.586077    0.334228    0.651199    11.00000    0.01835    0.02260 = 
         0.02333    0.00839    0.00797    0.01049 
C12   1    0.614290    0.264678    0.716006    11.00000    0.01928    0.02371 = 
         0.02629    0.00971    0.00948    0.01162 
C13   1    0.519976    0.157545    0.913166    11.00000    0.01986    0.02479 = 
         0.02908    0.01340    0.01071    0.01067 
AFIX  13 
H13A  2    0.563603    0.116454    0.976184    11.00000   -1.20000 
AFIX   0 
C14   1    0.330377    0.059143    0.836922    11.00000    0.02192    0.03215 = 
         0.04429    0.00877    0.01519    0.00775 
AFIX 137 
H14A  2    0.253359    0.060517    0.888971    11.00000   -1.50000 
H14B  2    0.329563   -0.038446    0.802878    11.00000   -1.50000 
H14C  2    0.286988    0.092445    0.770170    11.00000   -1.50000 
AFIX   0 
C15   1    0.521340    0.306533    0.981098    11.00000    0.02699    0.02943 = 
         0.03312    0.01020    0.01595    0.01317 
AFIX 137 
H15A  2    0.438705    0.297915    1.028887    11.00000   -1.50000 
H15B  2    0.485012    0.351823    0.921772    11.00000   -1.50000 
H15C  2    0.641174    0.364992    1.036011    11.00000   -1.50000 
AFIX   0 
C16   1    0.908547    0.276273    0.918571    11.00000    0.01749    0.02184 = 
         0.02753    0.00935    0.00794    0.00951 
AFIX  13 
H16A  2    0.901799    0.367910    0.968563    11.00000   -1.20000 
AFIX   0 
C17   1    0.986831    0.211379    1.010580    11.00000    0.02144    0.03579 = 
         0.02892    0.01444    0.00668    0.01249 
AFIX 137 
H17A  2    1.097893    0.282063    1.069682    11.00000   -1.50000 
H17B  2    1.010169    0.127002    0.966954    11.00000   -1.50000 
H17C  2    0.902333    0.183707    1.053755    11.00000   -1.50000 
AFIX   0 
C18   1    1.037603    0.317598    0.848451    11.00000    0.01960    0.03183 = 
         0.03829    0.01739    0.01074    0.00746 
AFIX 137 
H18A  2    1.149721    0.388341    0.906125    11.00000   -1.50000 
H18B  2    0.986128    0.358320    0.789809    11.00000   -1.50000 
H18C  2    1.059487    0.232559    0.804581    11.00000   -1.50000 
AFIX   0 
C19   1    0.640034   -0.020914    0.717561    11.00000    0.02089    0.02073 = 
         0.02643    0.00890    0.00731    0.00991 
AFIX  13 
H19A  2    0.513546   -0.060784    0.664513    11.00000   -1.20000 
AFIX   0 
C20   1    0.661371   -0.120372    0.791579    11.00000    0.03876    0.02280 = 
         0.03480    0.01226    0.00936    0.01479 
AFIX 137 
H20A  2    0.625182   -0.218483    0.735566    11.00000   -1.50000 
H20B  2    0.586832   -0.116119    0.845269    11.00000   -1.50000 
H20C  2    0.785703   -0.089934    0.841101    11.00000   -1.50000 
AFIX   0 
C21   1    0.751967   -0.028307    0.630526    11.00000    0.03806    0.02689 = 
         0.03880    0.00754    0.02043    0.01377 
AFIX 137 
H21A  2    0.712643   -0.126173    0.573388    11.00000   -1.50000 
H21B  2    0.877019    0.000157    0.677823    11.00000   -1.50000 
H21C  2    0.737827    0.036364    0.584701    11.00000   -1.50000 
 
AFIX   0 
HKLF 4 
 
 
 
 
REM  c17028 : space group P1bar 
REM R1 =  0.0392 for    3444 Fo > 4sig(Fo)  and  0.0408 for all    3616 data 
REM    205 parameters refined using      0 restraints 
 
END 
 
WGHT      0.0502      0.4315 
 
REM No hydrogen bonds found for HTAB generation 
 
REM Highest difference peak  0.410,  deepest hole -0.315,  1-sigma level  0.045 
Q1    1   0.6591  0.0612  0.7641  11.00000  0.05    0.41 
Q2    1   0.7881  0.2475  0.8745  11.00000  0.05    0.33 
Q3    1   0.5256  0.5498  0.4139  11.00000  0.05    0.27 
Q4    1   0.7459  0.4835  0.3356  11.00000  0.05    0.27 
Q5    1   0.5196  0.2338  0.9446  11.00000  0.05    0.26 
; 
_shelx_res_checksum   85431 
 
_shelx_hkl_file
;
   2   0   0 354.175 21.1968  14
   4   0   0 1.53865 0.34187  14
   5   0   0 14.3260 1.16332  14
  -6   0   0 132.551 8.21426  16
  -6   0   0 134.442 8.26381  11
  -6   0   0 130.170 8.32213   4
  -6   0   0 125.846 8.27926   2
  -6   0   0 145.497 8.24994   9
  -6   0   0 128.796 8.33835   7
  -7   0   0 58.5604 3.92311  16
  -7   0   0 60.0612 3.91963  11
  -7   0   0 57.0544 4.02249   4
  -7   0   0 56.9239 3.82487   9
  -8   0   0 3.37839 0.74784   4
  -8   0   0 7.00283 1.24335  16
  -8   0   0 4.16050 0.75124   9
  -9   0   0 115.030 7.31019  11
  -9   0   0 120.654 7.45566   4
  -9   0   0 126.291 7.36892  16
  -9   1   0 11.8941 1.47435   4
  -9   1   0 12.5795 1.23601  11
  -9   1   0 13.4921 1.29897  16
  -8   1   0 17.5141 1.69607  11
  -8   1   0 15.1227 1.84152   4
  -8   1   0 16.8045 1.63118  16
  -7   1   0 182.268 10.5895   6
  -7   1   0 173.480 10.7341   7
  -7   1   0 173.301 10.6079  16
  -7   1   0 153.069 10.7608   1
  -7   1   0 180.269 10.6783  11
  -7   1   0 165.675 10.6988   4
  -7   1   0 180.066 10.6070   9
  -6   1   0 487.148 28.2693   6
  -6   1   0 471.904 28.0304  16
  -6   1   0 441.405 28.1408   7
  -6   1   0 466.577 28.0953  11
  -6   1   0 462.687 28.1231   4
   5  -1   0 386.769 23.2805  14
   4  -1   0 1.44725 0.37376  14
   3  -1   0 16.6956 1.27335  14
   3  -1   0 19.1589 1.19564   5
   3  -1   0 18.5621 1.16657   5
   2  -1   0 589.025 35.6917   5
   2  -1   0 615.871 35.6982   5
   2  -1   0 602.957 35.6760  17
   2  -1   0 597.776 35.6719  17
   2  -1   0 588.188 35.7318  14
  -2   1   0 663.568 35.6768  17
  -2   1   0 613.562 35.6767  17
  -2   1   0 571.549 35.6711   8
  -2   1   0 535.133 35.6796   5
   2   1   0 864.589 52.6241   8
   2   1   0 933.043 52.6138   5
   2   1   0 871.146 52.6074   5
   2   1   0 855.406 52.6087  14
   3   1   0 1861.47 113.138   8
   3   1   0 1928.56 113.140  14
   4   1   0 2.76801 0.45339  14
  -5  -1   0 55.6993 3.65343  11
  -5  -1   0 54.8679 3.81411   2
  -5  -1   0 57.6703 3.59611  10
  -6  -1   0 232.207 14.6110  13
  -6  -1   0 240.080 14.9487   9
  -6  -1   0 239.393 14.8472  11
  -6  -1   0 243.721 15.0777   4
  -6  -1   0 269.582 14.8833  16
  -6  -1   0 251.513 14.8765   2
  -6  -1   0 220.193 14.9386   7
  -7  -1   0 0.36777 0.66879   9
  -7  -1   0 1.19181 0.78342   4
  -7  -1   0 0.58854 0.68809  16
  -8  -1   0 30.6333 2.11957  11
  -8  -1   0 30.4217 2.35516   4
  -8  -1   0 31.1688 2.24594  16
  -8  -1   0 28.3314 2.09064   9
  -9  -1   0 1.86241 0.43268   4
  -9  -1   0 1.70653 0.44594  16
  -9   2   0 94.8823 6.18431   4
  -9   2   0 103.636 6.14912  11
  -9   2   0 96.5510 6.10997  16
  -8   2   0 2.70607 0.80767  16
  -8   2   0 1.02246 0.43876   1
  -8   2   0 1.59867 0.72685   4
  -7   2   0 425.447 25.9060  16
  -7   2   0 428.083 25.9857  11
  -7   2   0 428.520 25.9423   1
  -7   2   0 419.552 26.0585   7
  -7   2   0 455.238 25.9860   6
  -7   2   0 422.554 26.0166   4
  -6   2   0 34.2920 2.72854   4
  -6   2   0 40.0278 2.65117   6
  -6   2   0 37.5866 2.66589  11
  -6   2   0 33.8960 2.83190   7
  -6   2   0 39.3531 2.77032   1
  -6   2   0 38.6574 2.61228  16
   5  -2   0 131.279 7.67032  14
   5  -2   0 131.776 7.49878   5
   5  -2   0 109.433 7.51596   5
   4  -2   0 496.441 32.3852  17
   4  -2   0 573.020 32.4316   5
   4  -2   0 556.745 32.5275  14
   3  -2   0 42.1695 2.32772  17
   3  -2   0 35.0208 2.44402  14
   3  -2   0 36.3396 2.33455  17
   3  -2   0 35.4746 2.32292   8
   3  -2   0 39.4501 2.37961   5
  -3   2   0 42.4708 2.33662  17
  -3   2   0 38.1585 2.31876  17
  -3   2   0 35.2512 2.32558   5
   1  -2   0 26.2012 1.61228   8
   1  -2   0 23.2487 1.61605   5
   1  -2   0 24.8678 1.63424   5
   1  -2   0 26.2712 1.59484  17
   1  -2   0 25.8860 1.63350  14
   1  -2   0 26.3935 1.59345  17
  -1   2   0 29.0848 1.61456   8
  -1   2   0 26.3780 1.59419  17
  -1   2   0 25.2825 1.62917   5
  -1   2   0 23.8786 1.61758   5
  -1   2   0 25.3592 1.59030  17
   0  -2   0 803.147 47.1457  14
   0  -2   0 827.759 47.1497  17
   0  -2   0 714.074 47.1605   5
   0  -2   0 791.727 47.1516  17
   0  -2   0 778.677 47.1755   5
   0  -2   0 780.273 47.1690   8
   0   2   0 839.553 47.1524  17
   0   2   0 815.468 47.1536  17
   0   2   0 772.158 47.1709   5
   0   2   0 806.743 47.1731   8
   0   2   0 756.506 47.1730   5
  -2  -2   0 1875.44 109.217  17
  -2  -2   0 1780.44 109.225  17
   2   2   0 1854.19 109.261   5
   2   2   0 1724.12 109.269   8
   2   2   0 1833.39 109.262   5
   2   2   0 1768.57 109.225  17
   2   2   0 1973.17 109.222  17
   3   2   0 47.9463 3.16177   5
   3   2   0 58.0712 3.15454   5
   3   2   0 47.2582 3.17725   8
  -5  -2   0 75.7832 5.87760  11
  -5  -2   0 92.1615 5.78464   2
  -5  -2   0 93.2421 5.60219  13
  -5  -2   0 90.8174 5.74051  16
  -5  -2   0 89.1511 5.83589   4
  -5  -2   0 104.275 5.78829   9
  -5  -2   0 88.7813 5.63501  10
  -6  -2   0 108.874 6.75386  13
  -6  -2   0 108.148 6.89826  16
  -6  -2   0 110.414 6.87623  11
  -6  -2   0 118.264 6.93151   9
  -6  -2   0 105.206 6.99986   4
  -6  -2   0 109.729 6.97148   2
  -7  -2   0 184.220 11.9122  13
  -7  -2   0 202.908 12.0844   9
  -7  -2   0 204.310 12.1737   4
  -7  -2   0 195.199 12.0479  16
  -7  -2   0 200.393 12.0034  11
  -8  -2   0 1.99606 0.60283   4
  -8  -2   0 2.05299 0.49023   9
  -8  -2   0 2.50797 0.64306  16
  -9   3   0 198.390 13.2592   4
  -9   3   0 236.779 13.4706  16
  -9   3   0 219.956 13.4144  11
  -8   3   0 345.679 21.0548   1
  -8   3   0 343.709 21.0792   6
  -8   3   0 357.739 21.1184  11
  -8   3   0 354.973 21.0541  16
  -8   3   0 339.573 21.1374   4
  -7   3   0 134.874 8.33654   1
  -7   3   0 136.423 8.29376   6
  -7   3   0 128.150 8.34297   4
  -7   3   0 128.847 8.28818  11
  -7   3   0 135.390 8.23818  16
  -6   3   0 231.546 12.7769   6
  -6   3   0 195.162 12.8027   7
  -6   3   0 201.942 12.7231   4
  -6   3   0 213.405 12.7760   1
  -6   3   0 202.322 12.6232  16
  -6   3   0 202.449 12.7033  11
   5  -3   0 1.25546 0.44232  14
   5  -3   0 1.11180 0.29480   5
   4  -3   0 480.960 30.6193  17
   4  -3   0 552.430 30.7853  14
   4  -3   0 500.628 30.6984   5
   4  -3   0 553.182 30.6905   5
   4  -3   0 512.310 30.6174  17
  -4   3   0 509.277 30.6103  17
  -4   3   0 475.651 30.6191  17
   3  -3   0 267.437 15.7973   5
   3  -3   0 254.381 15.6883  17
   3  -3   0 250.773 15.6939   8
   3  -3   0 268.076 15.6927  17
   3  -3   0 264.908 15.7852  14
   3  -3   0 266.687 15.7426   5
  -3   3   0 261.681 15.6862  17
  -3   3   0 266.100 15.7004   8
  -3   3   0 256.135 15.6897  17
   2  -3   0 36.5629 2.29119   8
   2  -3   0 36.7292 2.34935  14
   2  -3   0 38.0764 2.27207  17
   2  -3   0 35.9575 2.33473   5
   2  -3   0 36.4771 2.26647  17
   2  -3   0 32.9538 2.30343   5
  -2   3   0 35.8123 2.26153  17
  -2   3   0 37.9503 2.28941   8
  -2   3   0 37.7984 2.26719  17
  -2   3   0 36.7326 2.34946   5
   1  -3   0 2057.44 121.214  17
   1  -3   0 1807.00 121.236   5
  -1   3   0 2089.19 121.376   5
  -1   3   0 2086.80 121.219  17
  -1   3   0 2112.75 121.244   8
   0  -3   0 398.514 23.2743  17
   0  -3   0 381.614 23.3171   5
   0  -3   0 377.405 23.2520  14
   0  -3   0 399.041 23.2652  17
   0   3   0 392.673 23.3134   5
   0   3   0 403.955 23.3544   8
   0   3   0 358.323 23.3035   5
   0   3   0 401.008 23.2688  17
   0   3   0 388.325 23.2719  17
  -1  -3   0 307.614 19.0860   5
  -1  -3   0 321.164 19.0383  17
  -1  -3   0 317.878 19.0507  17
   1   3   0 320.996 19.0542  17
   1   3   0 310.441 19.0914   5
   1   3   0 334.706 19.0452  17
   1   3   0 314.427 19.1071   8
  -2  -3   0 95.1581 6.14051   5
  -2  -3   0 97.4966 6.11894  17
   2   3   0 104.043 6.17069  17
   2   3   0 100.574 6.18343   5
   2   3   0 105.418 6.17524   5
   2   3   0 105.339 6.10875  17
   3   3   0 589.431 33.7528   5
   3   3   0 535.148 33.6765   5
  -4  -3   0 11.8316 1.73222   9
  -4  -3   0 18.4760 1.32810  12
  -4  -3   0 15.7776 1.30802  10
  -4  -3   0 16.1941 1.25461  13
   4   3   0 15.7600 1.19151   5
  -5  -3   0 281.757 17.5150   9
  -5  -3   0 304.069 17.2220  13
  -5  -3   0 269.290 17.3189  15
  -5  -3   0 286.032 17.2754  10
  -5  -3   0 284.959 17.3545   2
  -6  -3   0 392.965 23.7259   9
  -6  -3   0 394.162 23.6869  16
  -6  -3   0 397.528 23.5888  13
  -6  -3   0 371.348 23.7421   4
  -6  -3   0 405.969 23.8089   2
  -7  -3   0 36.7603 2.47087  13
  -7  -3   0 33.3490 2.52587   9
  -7  -3   0 37.8483 2.59951  16
  -7  -3   0 38.7351 2.77000   4
  -8  -3   0 55.0442 3.52326  16
  -8  -3   0 43.2201 3.16692   9
  -8  -3   0 54.4403 3.35636   4
 -10   4   0 83.0235 5.18387  16
 -10   4   0 87.2686 5.20496  11
  -9   4   0 0.51545 0.37669   1
  -9   4   0 -0.0066 0.74910  11
  -9   4   0 -0.6379 0.50601   4
  -8   4   0 153.263 9.61609   1
  -8   4   0 152.399 9.58631   6
  -8   4   0 150.740 9.63224   4
  -8   4   0 157.854 9.60455  11
  -8   4   0 160.477 9.54841  16
  -7   4   0 135.269 8.22096  16
  -7   4   0 133.001 8.29690   6
  -7   4   0 129.617 8.32855   4
  -7   4   0 126.217 8.26361  11
  -7   4   0 138.571 8.40391   1
  -6   4   0 1.96661 0.62226  11
  -6   4   0 0.64926 0.53047   6
  -6   4   0 1.56943 0.58426   1
  -6   4   0 1.76810 0.62669  16
  -6   4   0 1.30621 0.65208   7
   5  -4   0 177.844 11.2414   5
   5  -4   0 193.022 11.4277  14
   4  -4   0 180.867 9.61261   5
   4  -4   0 167.705 9.65766  14
   4  -4   0 156.665 9.55608  17
   4  -4   0 150.308 9.59735   5
  -4   4   0 143.578 9.61773   5
  -4   4   0 146.998 9.52460   8
   3  -4   0 1.22525 0.35712  14
   3  -4   0 0.93755 0.31484   5
   3  -4   0 1.37728 0.36485   8
   3  -4   0 1.42837 0.34487   5
   3  -4   0 1.34219 0.27952  17
   3  -4   0 1.55635 0.30239  17
  -3   4   0 1.23734 0.26300  17
  -3   4   0 1.44095 0.29985   5
  -3   4   0 1.63962 0.28929  17
   2  -4   0 109.814 6.54246   8
   2  -4   0 113.067 6.57399  14
   2  -4   0 107.582 6.50550  17
   2  -4   0 97.2693 6.60163  17
   2  -4   0 96.1258 6.55017   5
   2  -4   0 107.734 6.70894   5
  -2   4   0 113.332 6.51276  17
  -2   4   0 112.752 6.51601  17
  -2   4   0 109.216 6.56831   5
   1  -4   0 2079.93 126.183  14
   1  -4   0 2095.18 126.227   5
   1  -4   0 2083.03 126.169  17
   1  -4   0 2111.00 126.161  17
  -1   4   0 2158.24 126.166  17
  -1   4   0 2102.96 126.225   5
  -1   4   0 2161.54 126.173  17
   0  -4   0 3.04877 0.41742  17
   0  -4   0 3.06819 0.40472  17
   0  -4   0 3.53853 0.62357   5
   0   4   0 3.16684 0.42787  17
   0   4   0 3.10005 0.61721   5
   0   4   0 3.24964 0.46697  17
   0   4   0 3.28350 0.51877   5
  -1  -4   0 154.902 9.27924  17
  -1  -4   0 149.038 9.34061   5
  -1  -4   0 149.838 9.43154  17
   1   4   0 152.236 9.36369   5
   1   4   0 154.033 9.30114  17
   1   4   0 159.558 9.37372   5
   1   4   0 158.846 9.28146  17
  -2  -4   0 841.822 54.4268  17
   2   4   0 910.334 54.5245   5
   2   4   0 1009.79 54.5875   5
   2   4   0 880.885 54.4105  17
  -3  -4   0 128.576 7.74979  16
  -3  -4   0 139.686 7.71464  12
  -3  -4   0 123.013 7.65585  13
  -3  -4   0 131.015 7.78606   9
  -3  -4   0 110.711 7.78174   4
   3   4   0 119.537 7.68009   5
  -4  -4   0 366.723 23.5235   4
  -4  -4   0 381.395 23.4413  16
  -4  -4   0 365.427 23.4854   2
  -4  -4   0 388.249 23.4692  15
  -4  -4   0 371.460 23.3679  10
  -4  -4   0 402.146 23.3882  13
  -4  -4   0 391.820 23.5075   9
  -4  -4   0 442.989 23.4630  12
  -5  -4   0 198.203 11.7347   9
  -5  -4   0 192.483 11.5770  13
  -5  -4   0 192.436 11.6809  16
  -5  -4   0 183.695 11.7671   4
  -5  -4   0 193.647 11.7318   2
  -5  -4   0 190.589 11.5984  10
  -5  -4   0 183.104 11.6215  15
  -6  -4   0 14.4348 1.53919  16
  -6  -4   0 12.7179 1.63923   4
  -6  -4   0 16.1577 1.44995   2
  -6  -4   0 12.2715 1.31229   9
  -6  -4   0 12.0161 1.14141  13
  -7  -4   0 75.1974 4.60360   4
  -7  -4   0 68.4498 4.50764   9
  -7  -4   0 67.2528 4.37354  13
  -7  -4   0 74.3904 4.49533  16
 -10   5   0 26.8884 1.81959  16
 -10   5   0 28.2381 1.81449  11
  -9   5   0 6.88454 1.08653  11
  -9   5   0 5.76688 1.13978   4
  -9   5   0 5.97805 0.89706  16
  -8   5   0 5.10559 0.82304  16
  -8   5   0 3.54593 0.67716   6
  -8   5   0 2.78993 0.71483   4
  -7   5   0 11.0646 1.40321  16
  -7   5   0 11.2664 1.73700   1
  -7   5   0 8.05225 1.24868   6
  -7   5   0 12.3436 1.53706   4
  -7   5   0 10.0459 1.33851  11
  -6   5   0 546.401 32.9040   1
  -6   5   0 549.445 32.7223  16
  -6   5   0 581.821 32.8779   6
  -6   5   0 520.531 32.7629  11
  -6   5   0 525.495 32.7882   4
   5  -5   0 204.684 11.8878   5
  -5   5   0 181.987 11.8384   4
  -5   5   0 183.053 11.8042  11
  -5   5   0 199.498 11.8160   6
  -5   5   0 192.239 11.7030  16
   4  -5   0 270.493 15.7035   5
   4  -5   0 248.062 15.7208  14
   3  -5   0 81.1852 5.24654  17
   3  -5   0 85.7955 5.26177  17
   3  -5   0 89.3738 5.35363   5
   3  -5   0 88.5312 5.35312  14
  -3   5   0 84.1307 5.24614  17
  -3   5   0 88.0581 5.32086   5
  -3   5   0 82.3638 5.24087  17
   2  -5   0 1577.83 96.3440  17
   2  -5   0 1637.32 96.3947  14
   2  -5   0 1603.71 96.3588  17
   2  -5   0 1651.74 96.4384   5
  -2   5   0 1615.49 96.4248   5
  -2   5   0 1604.26 96.3478  17
  -2   5   0 1599.60 96.3553  17
   1  -5   0 375.379 21.8773   5
   1  -5   0 357.188 21.7810  17
   1  -5   0 354.223 21.7945  17
   1  -5   0 354.120 21.7794  14
  -1   5   0 361.086 21.7886  17
  -1   5   0 373.656 21.8070  17
  -1   5   0 366.999 21.8718   5
   0  -5   0 11.0340 0.86888  17
   0  -5   0 10.3138 0.97988   5
   0   5   0 9.82927 1.21942  17
   0   5   0 10.3307 1.03402   5
   0   5   0 11.2318 0.84111  17
  -1  -5   0 270.537 16.5600   5
   1   5   0 263.550 16.4674  17
   1   5   0 288.339 16.5967   5
  -2  -5   0 8.25926 0.84655  12
  -2  -5   0 8.12527 0.84303   3
  -2  -5   0 8.13593 1.24726  10
  -2  -5   0 7.57202 0.83677  13
   2   5   0 6.85750 0.99574   5
  -3  -5   0 83.2975 5.51702   2
  -3  -5   0 95.0519 5.46644  12
  -3  -5   0 81.9934 5.59001   4
  -3  -5   0 88.2404 5.52491  15
  -3  -5   0 90.7256 5.54694   9
  -3  -5   0 91.8051 5.42700  13
  -3  -5   0 82.0802 5.48217  16
  -3  -5   0 83.4304 5.40648  10
  -4  -5   0 16.9188 1.40552  12
  -4  -5   0 16.3476 1.50278   9
  -4  -5   0 15.9403 1.64702  16
  -4  -5   0 15.0954 1.41178  15
  -4  -5   0 17.2020 1.34769  13
  -4  -5   0 15.7169 1.83396   4
  -4  -5   0 14.8217 1.44852  10
  -4  -5   0 17.4775 1.62085   2
  -5  -5   0 7.42155 0.91254  15
  -5  -5   0 7.66403 1.40254  16
  -5  -5   0 7.62143 1.13033  10
  -5  -5   0 7.81802 1.18809  13
  -5  -5   0 8.98549 1.33112   2
  -6  -5   0 56.6720 3.89151   9
  -6  -5   0 61.8574 4.01123   4
  -6  -5   0 60.3407 3.78343  13
  -6  -5   0 62.5760 3.91026  16
  -7  -5   0 62.0660 3.54716  16
  -7  -5   0 59.6285 3.92900   4
  -7  -5   0 54.7582 3.59488   9
  -7  -5   0 50.3244 3.45207  13
  -9   6   0 124.031 8.12568   1
  -9   6   0 140.844 8.10759  11
  -9   6   0 127.135 8.08664   4
  -9   6   0 136.750 8.07943  16
  -8   6   0 146.643 9.60296   6
  -8   6   0 157.069 9.71822   1
  -8   6   0 154.968 9.56392  11
  -8   6   0 163.093 9.55156  16
  -8   6   0 155.562 9.60326   4
  -7   6   0 78.3315 5.45272   1
  -7   6   0 81.2301 5.23530  11
  -7   6   0 79.9592 5.30540   6
  -7   6   0 81.1351 5.31678   4
  -7   6   0 88.2875 5.22222  16
  -6   6   0 620.940 41.4261  11
  -6   6   0 764.057 41.6334   6
  -6   6   0 674.931 41.8117   1
  -6   6   0 644.176 41.5717   4
  -6   6   0 742.956 41.5475  16
  -5   6   0 359.078 21.2778  16
  -5   6   0 334.252 21.3368   4
  -5   6   0 366.208 21.4092   6
   4  -6   0 74.9443 4.87412  14
   4  -6   0 77.8519 4.89334   5
  -4   6   0 76.1535 4.76262  16
   3  -6   0 324.333 19.1916   5
   3  -6   0 309.620 19.1405  14
   2  -6   0 16.4569 1.21112  14
   2  -6   0 16.7662 1.38294   5
   2  -6   0 14.1274 1.20982  17
   2  -6   0 13.2295 1.16542  17
  -2   6   0 16.4575 1.35558   5
  -2   6   0 14.7611 1.16873  17
  -2   6   0 15.6944 1.19737  17
   1  -6   0 174.150 10.7222  17
   1  -6   0 186.271 10.8301   5
   1  -6   0 162.660 10.6895  17
   1  -6   0 178.511 10.6522  14
  -1   6   0 186.476 10.8324   5
  -1   6   0 174.577 10.7287  17
  -1   6   0 173.914 10.7072  17
  -1  -6   0 350.484 20.6469  15
  -1  -6   0 352.374 20.5559  12
  -1  -6   0 327.220 20.5374   3
  -1  -6   0 323.742 20.5027  13
  -1  -6   0 330.033 20.5065  10
   1   6   0 362.298 20.7411   5
  -2  -6   0 -0.2928 0.37924  10
  -2  -6   0 -0.0880 0.37972   2
  -2  -6   0 -0.2932 0.44909   9
  -2  -6   0 -0.7229 0.45026  12
  -2  -6   0 -0.0688 0.54130   4
  -2  -6   0 0.43894 0.43939  13
  -2  -6   0 0.04587 0.51446  15
  -3  -6   0 75.0562 4.78158  15
  -3  -6   0 72.2084 4.76610   9
  -3  -6   0 76.2067 4.79518   2
  -3  -6   0 73.9241 4.70055  12
  -3  -6   0 72.5483 4.65975  10
  -3  -6   0 70.2887 4.86732   4
  -3  -6   0 74.7654 4.65225  13
  -3  -6   0 75.0303 4.76279  16
  -4  -6   0 9.65920 1.24976  10
  -4  -6   0 9.75860 1.14795  15
  -4  -6   0 11.1948 1.08939  13
  -4  -6   0 9.36076 1.17721   9
  -4  -6   0 10.5986 1.10303  12
  -4  -6   0 10.0645 1.41067  16
  -4  -6   0 10.8239 1.65468   4
  -5  -6   0 5.24060 0.94248   9
  -5  -6   0 6.78512 1.36883   4
  -5  -6   0 6.77072 0.84192  13
  -5  -6   0 6.61266 0.72407  15
  -5  -6   0 5.83609 1.03494  10
  -5  -6   0 5.61737 1.08778   2
  -5  -6   0 5.98054 0.86755  16
  -6  -6   0 67.3331 4.07448   4
  -6  -6   0 61.0060 3.92336  13
  -6  -6   0 67.5448 3.99724  16
  -6  -6   0 58.4059 4.00776   9
  -9   7   0 23.1497 1.77577   1
  -9   7   0 24.4678 1.68681  16
  -9   7   0 22.6154 1.64460  11
  -8   7   0 44.1266 2.79380  16
  -8   7   0 39.3801 2.99154   1
  -8   7   0 37.8119 2.72791  11
  -8   7   0 40.3289 2.79106   4
  -7   7   0 1155.58 60.9823   1
  -7   7   0 930.186 60.4199  11
  -7   7   0 932.288 60.2988  16
   6  -7   0 358.231 22.4355  10
  -6   7   0 347.388 22.4626  11
  -6   7   0 371.748 22.5553   4
  -6   7   0 402.179 22.4941  16
  -6   7   0 371.811 22.6874   1
  -6   7   0 386.744 22.6255   6
   5  -7   0 253.064 15.7032  10
  -5   7   0 282.664 15.7605  16
  -5   7   0 235.456 15.7146  11
  -5   7   0 276.581 15.8862   6
  -5   7   0 253.707 15.8119   4
   4  -7   0 19.8615 1.55478  10
   4  -7   0 21.3636 1.85658   5
  -4   7   0 20.7154 1.60785  16
  -4   7   0 20.7521 1.62193   6
   3  -7   0 5.80561 1.07452   5
   3  -7   0 4.86794 0.81262  10
  -3   7   0 3.43264 0.54979  16
   2  -7   0 217.864 12.6728  10
   2  -7   0 200.215 12.6415   2
   2  -7   0 203.637 12.7723   5
   2  -7   0 198.085 12.6040  14
   2  -7   0 216.631 12.7770  15
  -2   7   0 213.479 12.8029   5
   1  -7   0 9.48423 1.20084  15
   1  -7   0 8.46428 0.91036  12
   1  -7   0 8.62740 1.34375   2
   1  -7   0 7.72655 0.97432  10
  -1   7   0 11.7940 1.23682   5
   0  -7   0 361.870 23.3077   2
   0  -7   0 399.470 23.3365  12
   0  -7   0 380.354 23.3209   3
   0  -7   0 425.453 23.4790  15
   0  -7   0 365.591 23.2463  10
   0   7   0 392.976 23.5027   5
  -1  -7   0 43.7834 2.84215   3
  -1  -7   0 45.7015 3.01158  15
  -1  -7   0 43.4050 2.80921  13
  -1  -7   0 39.9742 2.77017  10
  -1  -7   0 45.9264 2.86563  12
  -1  -7   0 41.3510 2.87174   2
  -1  -7   0 39.9511 2.87722   9
  -2  -7   0 71.8430 4.65079   2
  -2  -7   0 75.4076 4.73651  15
  -2  -7   0 72.9309 4.55528  10
  -2  -7   0 65.2172 4.69908   4
  -2  -7   0 73.9851 4.60191  12
  -2  -7   0 71.9349 4.65505   9
  -2  -7   0 74.7967 4.57153  13
  -3  -7   0 20.6713 1.56807  13
  -3  -7   0 21.0713 1.71040  15
  -3  -7   0 20.3146 1.76719  16
  -3  -7   0 19.9397 1.67504  10
  -3  -7   0 19.0682 1.94503   4
  -3  -7   0 20.6447 1.62147  12
  -3  -7   0 19.8979 1.67216   9
  -4  -7   0 -0.5752 0.44736  10
  -4  -7   0 -0.5933 0.57892  16
  -4  -7   0 -0.1022 0.47457   9
  -4  -7   0 0.09733 0.61910   4
  -4  -7   0 -0.1877 0.44423  13
  -4  -7   0 0.02858 0.42790  15
  -4  -7   0 -0.0092 0.49891  12
  -5  -7   0 93.9618 5.86278  13
  -5  -7   0 100.923 5.87001  10
  -5  -7   0 95.7807 5.96722   4
  -5  -7   0 86.8886 5.91736   9
  -5  -7   0 101.377 5.92336  16
  -9   8   0 1.00614 0.47412   1
  -9   8   0 1.06127 0.41819  16
   8  -8   0 139.485 9.26987  10
  -8   8   0 165.227 9.37524  16
  -8   8   0 143.119 9.30789  11
  -8   8   0 167.872 9.57437   1
   7  -8   0 282.138 17.9026  10
  -7   8   0 309.824 18.1900   1
  -7   8   0 302.941 17.9571  16
  -7   8   0 295.716 17.9341  11
   6  -8   0 81.2354 5.03695  10
  -6   8   0 82.2532 5.35990   1
  -6   8   0 85.8737 5.08978  16
  -6   8   0 70.0754 5.15649  11
  -6   8   0 83.2120 5.17630   6
   5  -8   0 1.46760 0.43210  10
  -5   8   0 2.32248 0.59999  16
  -5   8   0 1.57351 0.50753   6
   4  -8   0 157.816 11.1859  12
  -4   8   0 203.744 11.1191  16
   3  -8   0 36.7654 2.51509  12
   3  -8   0 38.8026 2.65122   2
   3  -8   0 38.7168 2.52710  10
   2  -8   0 0.64029 0.35515   2
   2  -8   0 0.37168 0.41702  12
   2  -8   0 0.97720 0.39299  10
   1  -8   0 188.819 10.8570  15
   1  -8   0 187.996 10.6267  10
   1  -8   0 177.725 10.6584  12
   1  -8   0 163.410 10.6198   3
   1  -8   0 156.432 10.6100   2
   0  -8   0 4.77892 0.77600  12
   0  -8   0 3.82501 0.55049  10
   0  -8   0 5.36540 1.02300  15
   0  -8   0 2.93881 0.51541   2
  -1  -8   0 273.271 16.9617   4
  -1  -8   0 284.316 16.8172  10
  -1  -8   0 290.149 16.8553  13
  -1  -8   0 298.405 17.0547  15
  -1  -8   0 276.822 16.8932  12
  -1  -8   0 260.547 16.8814   9
  -1  -8   0 269.617 16.8934   2
  -2  -8   0 58.5066 3.85903   9
  -2  -8   0 62.2835 3.95492   2
  -2  -8   0 64.8585 4.10161  12
  -2  -8   0 52.5646 4.14390  15
  -3  -8   0 22.1085 1.72709  16
  -3  -8   0 19.6863 1.89167   4
  -3  -8   0 20.3491 1.61222  10
  -3  -8   0 18.8456 1.53502   9
  -3  -8   0 18.0072 1.51649  12
  -3  -8   0 20.1190 1.62350  15
  -4  -8   0 0.09497 0.49654   4
  -4  -8   0 0.32672 0.38691   9
  -4  -8   0 0.14901 0.38786  13
  -4  -8   0 0.10139 0.47507  16
  -4  -8   0 0.10425 0.41746  10
  -5  -8   0 12.7654 1.04336   4
  -5  -8   0 12.1429 0.89118  13
  -5  -8   0 13.4473 1.24010  16
  -9   9   0 23.0156 1.60573   1
   8  -9   0 18.4683 1.35028  10
  -8   9   0 21.8042 1.51734  16
  -8   9   0 21.7614 1.70109   1
  -7   9   0 48.5697 3.33358   1
  -7   9   0 46.8957 3.11817  16
   6  -9   0 67.0440 4.22405  10
  -6   9   0 68.0912 4.51564   1
  -6   9   0 66.8179 4.27896  16
   5  -9   0 306.031 18.7807  10
  -5   9   0 316.987 18.7841  16
   4  -9   0 45.8944 2.94742   2
   4  -9   0 46.7911 2.87621  10
   4  -9   0 38.8551 3.02269  12
  -4   9   0 41.9566 3.10381   1
   3  -9   0 47.6994 2.99257  10
   3  -9   0 41.9155 2.96809  12
   3  -9   0 47.7487 3.05164   2
   2  -9   0 0.99085 0.42261   2
   2  -9   0 1.24787 0.48704  12
   2  -9   0 1.08097 0.44716  10
   1  -9   0 103.638 6.46272  15
   1  -9   0 92.0101 6.23440   2
   1  -9   0 100.202 6.25001  12
   1  -9   0 106.274 6.19307  10
   0  -9   0 392.805 22.5527  15
   0  -9   0 343.700 22.3537   2
   0  -9   0 380.067 22.2804  10
   0  -9   0 363.088 22.3523  12
   0  -9   0 374.263 22.4379   4
  -1  -9   0 4.72914 1.06795   2
  -1  -9   0 6.47855 1.09777  15
  -1  -9   0 4.93067 0.84406  12
  -1  -9   0 5.09278 0.79212  13
  -1  -9   0 5.69872 1.00021  10
  -1  -9   0 6.20326 1.29982   4
  -2  -9   0 132.556 7.90420   4
  -2  -9   0 120.507 7.77175   9
  -2  -9   0 138.549 7.77242  10
  -2  -9   0 128.857 7.76184  13
  -2  -9   0 121.952 7.79103   2
  -2  -9   0 122.011 7.90540  15
  -2  -9   0 118.071 7.78541  12
  -2  -9   0 134.097 7.82155  16
  -3  -9   0 13.6583 1.17514  10
  -3  -9   0 13.8305 1.42244   4
  -3  -9   0 14.9548 1.23685  16
  -3  -9   0 14.4327 1.06829  13
  -3  -9   0 12.1950 1.03805   9
  -4  -9   0 64.7677 4.11091  13
  -4  -9   0 70.3955 4.19372   4
   8 -10   0 21.1759 1.45170   2
  -8  10   0 19.3498 1.46548   1
   7 -10   0 93.4008 5.57993   2
   7 -10   0 85.8586 5.46527  10
  -7  10   0 90.6949 5.64239   1
   6 -10   0 2.23038 0.46027   2
   5 -10   0 1.71356 0.42530  10
   5 -10   0 1.79365 0.49280   2
  -5  10   0 2.54323 0.61024   1
   4 -10   0 672.745 40.9184   2
   4 -10   0 694.544 40.8721  10
  -4  10   0 680.251 41.0244   1
   3 -10   0 62.4887 4.09559  12
   3 -10   0 63.6538 4.13863   2
   3 -10   0 69.6752 4.11474  10
   2 -10   0 27.4757 1.79935  10
   2 -10   0 23.9516 1.76675  12
   2 -10   0 22.8818 1.86396   2
   1 -10   0 349.245 19.4391  10
   1 -10   0 308.349 19.4772   2
   1 -10   0 311.832 19.4776  12
   0 -10   0 1.07198 0.49168  12
   0 -10   0 0.56850 0.41558   2
   0 -10   0 0.39420 0.43268  10
   0 -10   0 0.56206 0.55383   4
  -1 -10   0 30.9267 2.04047  13
  -1 -10   0 32.2091 2.31619   4
  -1 -10   0 31.6315 2.16576   2
  -1 -10   0 31.4522 2.13599  12
  -1 -10   0 32.4946 2.52613  16
  -2 -10   0 8.29982 0.89303  10
  -2 -10   0 9.46642 1.06875   4
  -2 -10   0 7.61259 0.68443  13
  -2 -10   0 9.44421 0.95764  16
   7 -11   0 0.65170 0.28890   2
   6 -11   0 4.70347 0.78351   2
   6 -11   0 3.74178 0.65664  10
  -6  11   0 4.59347 0.77621   1
   5 -11   0 92.1035 5.77187  10
   5 -11   0 97.5423 5.83702   2
   3 -11   0 53.3996 3.37071  10
   2 -11   0 546.087 34.3343   2
   2 -11   0 514.760 34.3122  12
   2 -11   0 642.839 34.3443  10
   2 -11   0 588.180 34.3800   4
   1 -11   0 285.249 16.7588   4
   1 -11   0 255.971 16.6862  12
   1 -11   0 265.051 16.6994   2
   1 -11   0 304.051 16.6914  10
   0 -11   0 8.57488 0.75928  12
   0 -11   0 6.07147 0.86390   2
   0 -11   0 7.03410 1.06233   4
   0 -11   0 9.65116 0.90337  10
  -1 -11   0 35.4426 2.55843   4
  -1 -11   0 33.7993 2.26382  16
  -1 -11   0 37.3481 2.25506  10
   5 -12   0 1.27387 0.25356  10
   5 -12   0 1.46404 0.29784   2
   4 -12   0 28.1387 1.81430  10
   4 -12   0 26.5335 1.80330   2
   3 -12   0 0.56699 0.35960  10
   3 -12   0 0.30806 0.25001   2
   2 -12   0 0.87297 0.50899  10
   1 -12   0 157.091 9.97863  16
   1 -12   0 174.847 9.97416  10
   1 -12   1 20.7975 1.50190   4
   1 -12   1 20.4444 1.42659  16
   1 -12   1 21.6233 1.69328  10
   2 -12   1 106.988 6.70593   4
   2 -12   1 112.576 6.64940  10
   3 -12   1 2.80534 0.50748   4
   3 -12   1 3.50809 0.61246   2
   4 -12   1 17.8489 1.34204   2
   4 -12   1 18.7990 1.27750  10
   5 -12   1 8.36321 0.76019   2
   5 -12   1 7.20764 0.69635  10
   6 -12   1 227.813 13.7730   2
  -1 -11   1 6.74743 1.42236   4
  -1 -11   1 6.68406 0.93674  16
  -1 -11   1 6.76081 0.78865  10
  -1 -11   1 6.55315 0.65397  12
   0 -11   1 362.491 21.1528   4
   0 -11   1 322.294 21.0842  12
   0 -11   1 368.351 21.0633  10
   1 -11   1 221.794 13.6059   4
   1 -11   1 244.203 13.2897  10
   1 -11   1 207.222 13.2808   2
   1 -11   1 207.856 13.2963  12
   2 -11   1 10.9196 1.39200   2
   2 -11   1 12.1301 1.06189  10
   2 -11   1 9.31836 0.96475  12
   3 -11   1 15.8394 1.22897  12
   3 -11   1 17.2900 1.29612  10
   3 -11   1 16.8369 1.35827   2
   4 -11   1 164.739 10.1425   2
   4 -11   1 168.934 10.0907  10
  -5  11  -1 72.8113 4.71930   1
   5 -11   1 75.6122 4.65644   2
   5 -11   1 75.6781 4.62974  10
  -6  11  -1 15.4782 1.79531   1
   6 -11   1 13.5637 1.05362  10
   6 -11   1 13.5513 1.16044   2
   7 -11   1 0.43920 0.21760  10
   7 -11   1 0.32110 0.28216   2
  -3 -10   1 1.17613 0.50731  16
  -3 -10   1 1.46847 0.28581  13
  -3 -10   1 1.16636 0.40705   4
  -2 -10   1 17.6600 1.54489   4
  -2 -10   1 18.4500 1.33041  10
  -2 -10   1 17.5419 1.36052  16
  -2 -10   1 14.6584 1.16507  13
  -2 -10   1 15.2498 1.23180  12
  -1 -10   1 202.011 11.5968  10
  -1 -10   1 174.808 11.6312  12
  -1 -10   1 200.606 11.7308   4
  -1 -10   1 191.221 11.7753  15
  -1 -10   1 189.958 11.5798  13
   0 -10   1 88.4096 5.39992   4
   0 -10   1 78.7938 5.23674  12
   0 -10   1 86.8798 5.44649  15
   0 -10   1 89.3135 5.21548  10
   0 -10   1 76.6104 5.21936   2
   1 -10   1 18.2418 1.46516  12
   1 -10   1 20.3398 1.48866  10
   1 -10   1 17.3575 1.51836   2
   2 -10   1 367.069 22.4273   2
   2 -10   1 378.085 22.4492  12
   3 -10   1 717.950 44.3260   2
   3 -10   1 651.942 44.3022  12
   3 -10   1 849.379 44.4014  10
  -4  10  -1 3.12081 0.70302   1
   4 -10   1 2.67416 0.49558  10
   4 -10   1 2.63078 0.48719  12
   4 -10   1 4.18933 0.90081   2
  -5  10  -1 21.4087 1.93580   1
   5 -10   1 22.3120 1.73540   2
   5 -10   1 23.7999 1.67178  10
  -6  10  -1 18.9601 1.75159   1
   6 -10   1 18.3923 1.41178  10
   6 -10   1 19.3297 1.63536   2
  -7  10  -1 26.8870 2.12537   1
   7 -10   1 27.3317 1.83592  10
   7 -10   1 29.6368 2.04802   2
  -8  10  -1 4.99804 0.78864   1
   8 -10   1 4.83292 0.72796   2
  -4  -9   1 13.9436 1.07861  16
  -4  -9   1 12.4178 1.05090   9
  -4  -9   1 15.0101 1.04628  10
  -4  -9   1 15.0892 1.04640  13
  -4  -9   1 14.7004 1.76674   4
  -3  -9   1 11.7546 1.06608   9
  -3  -9   1 14.9492 1.07564  13
  -3  -9   1 11.9051 1.19213  12
  -3  -9   1 14.6054 1.24241  15
  -3  -9   1 12.6715 1.27871  16
  -3  -9   1 14.0590 1.19123  10
  -3  -9   1 15.3580 1.62394   4
  -2  -9   1 1.21733 0.47106  10
  -2  -9   1 1.65398 0.57569  12
  -2  -9   1 1.77022 0.43499  13
  -2  -9   1 1.15084 0.58776  16
  -2  -9   1 0.90250 0.64972   4
  -2  -9   1 1.45094 0.60080  15
  -2  -9   1 1.24004 0.49482   9
  -1  -9   1 103.686 6.94702   2
  -1  -9   1 115.437 7.21463  10
  -1  -9   1 113.662 7.30805  15
  -1  -9   1 110.972 6.89392  13
  -1  -9   1 118.654 7.00986  12
   0  -9   1 0.12794 0.41566  13
   0  -9   1 0.85029 0.42935  10
   0  -9   1 0.30952 0.36676   2
   0  -9   1 0.68878 0.51209  12
   0  -9   1 0.76507 0.66158  15
   1  -9   1 9.67821 0.98619  10
   1  -9   1 8.82855 0.94720  12
   1  -9   1 8.45162 1.19476  15
   1  -9   1 7.09356 0.86711   3
   1  -9   1 7.82818 1.03131   2
   2  -9   1 5.20550 0.81816  12
   2  -9   1 6.10343 0.88458  10
   2  -9   1 6.06854 0.91649   2
   3  -9   1 23.9965 1.81324   2
   3  -9   1 23.2967 1.72132  12
   3  -9   1 24.8774 1.76518  10
   4  -9   1 368.687 23.0850  12
   4  -9   1 398.292 23.0663  10
  -5   9  -1 1.91305 0.58883  16
   5  -9   1 1.55583 0.45806  10
  -6   9  -1 9.66358 1.59003   1
  -6   9  -1 12.2231 1.24331  16
   6  -9   1 10.6680 1.11849  10
  -7   9  -1 107.785 6.68100   1
  -7   9  -1 105.240 6.45309  16
   7  -9   1 101.055 6.40188  10
  -8   9  -1 0.79585 0.45280  16
  -8   9  -1 1.02515 0.56680   1
   8  -9   1 1.36452 0.40994  10
  -5  -8   1 107.037 6.69345  16
  -5  -8   1 115.380 6.74132  13
  -5  -8   1 100.037 6.73009   9
  -5  -8   1 120.277 6.94163   4
  -4  -8   1 14.1324 1.24941  15
  -4  -8   1 17.1744 1.71421   4
  -4  -8   1 17.8262 1.24579  13
  -4  -8   1 13.5418 1.42826  16
  -4  -8   1 14.0418 1.25405   9
  -4  -8   1 15.4756 1.28401  10
  -3  -8   1 92.9705 6.28611   9
  -3  -8   1 105.381 6.24002  13
  -3  -8   1 96.9650 6.36045  15
  -3  -8   1 110.448 6.24711  10
  -3  -8   1 96.1205 6.26534  12
  -3  -8   1 104.633 6.31216  16
  -3  -8   1 98.9340 6.40309   4
  -2  -8   1 1.48864 0.57265  13
  -2  -8   1 1.25371 0.53105   9
  -2  -8   1 1.57293 0.47782   2
  -2  -8   1 1.47516 0.65625  15
  -2  -8   1 1.13517 0.45417  10
  -2  -8   1 1.29286 0.55200  12
  -2  -8   1 0.85311 0.65541   4
  -1  -8   1 56.2865 3.51999  12
  -1  -8   1 53.3851 3.50046   3
  -1  -8   1 53.2809 3.52637   9
  -1  -8   1 49.9058 3.49860   2
  -1  -8   1 54.0572 3.45406  13
  -1  -8   1 58.1931 3.68950  15
  -1  -8   1 52.0356 3.43702  10
   0  -8   1 123.615 8.66185  15
   0  -8   1 142.467 8.28625  13
   0  -8   1 133.820 8.31243   2
   0  -8   1 141.866 8.34240   3
   1  -8   1 44.0216 2.87006  10
   1  -8   1 47.6883 3.11186  15
   1  -8   1 42.3606 2.89804   3
   1  -8   1 41.3808 2.89709   2
   1  -8   1 46.9249 2.94114  12
  -2   8  -1 57.6676 3.67229   5
   2  -8   1 48.1305 3.24512  10
   2  -8   1 50.9237 3.46412  15
   2  -8   1 50.3987 3.29730  12
   2  -8   1 48.1039 3.28112   2
  -3   8  -1 75.9569 4.81032  16
   3  -8   1 77.5675 4.81815  12
   3  -8   1 77.0203 4.79026  10
  -4   8  -1 99.6833 6.28918   6
   4  -8   1 100.977 6.22311  12
  -5   8  -1 661.474 38.7699   6
  -5   8  -1 660.293 38.6349  16
   5  -8   1 648.186 38.6162  10
   5  -8   1 606.842 38.6522  12
  -6   8  -1 295.756 17.6286  16
  -6   8  -1 300.120 17.7773   6
  -6   8  -1 281.689 17.8595  11
  -6   8  -1 290.898 17.8752   1
   6  -8   1 291.082 17.6079  10
  -7   8  -1 56.5759 3.45592  16
  -7   8  -1 50.7052 3.39768  11
  -7   8  -1 52.0707 3.76787   1
  -7   8  -1 51.3297 3.53019   6
   7  -8   1 52.9556 3.39817  10
  -8   8  -1 228.933 13.7589  11
   8  -8   1 227.745 13.7427  10
  -9   8  -1 75.2975 4.76514  16
  -9   8  -1 75.2529 4.68799   1
  -6  -7   1 181.279 12.3318   9
  -6  -7   1 195.482 12.2885  13
  -6  -7   1 216.186 12.3544   4
  -6  -7   1 225.755 12.3891  16
  -5  -7   1 25.3377 1.80234  15
  -5  -7   1 27.6884 1.84734  10
  -5  -7   1 26.2966 1.92910  13
  -5  -7   1 25.4583 1.91922   9
  -5  -7   1 26.9770 1.97048  16
  -4  -7   1 155.236 9.36779   4
  -4  -7   1 149.846 9.20687  12
  -4  -7   1 143.773 9.24826  15
  -4  -7   1 146.936 9.15570  13
  -4  -7   1 156.539 9.16811  10
  -4  -7   1 142.174 9.25133   9
  -4  -7   1 155.880 9.24127  16
  -3  -7   1 51.8090 3.32978  10
  -3  -7   1 50.8290 3.60330   4
  -3  -7   1 50.0544 3.43972  15
  -3  -7   1 51.8181 3.29337  13
  -3  -7   1 52.0687 3.34788  12
  -3  -7   1 49.3930 3.39785   2
  -3  -7   1 48.7797 3.41522  16
  -3  -7   1 50.0273 3.41490   9
  -2  -7   1 225.187 13.2188  15
  -2  -7   1 223.725 13.0566  13
  -2  -7   1 212.736 13.0321  10
  -2  -7   1 200.838 13.1852   4
  -2  -7   1 209.229 13.0808   3
  -2  -7   1 218.938 13.1395   2
  -2  -7   1 215.650 13.0908  12
  -1  -7   1 454.639 28.6795   9
  -1  -7   1 454.013 28.5467  10
  -1  -7   1 513.378 28.6518  12
  -1  -7   1 481.856 28.6388   3
  -1  -7   1 506.281 28.7643  15
  -1  -7   1 474.302 28.5877  13
  -1  -7   1 449.110 28.6145   2
   0  -7   1 393.348 23.1275   3
   0  -7   1 407.860 23.1332  12
   0  -7   1 369.307 23.0342  10
   0  -7   1 343.198 23.1320  13
   0  -7   1 362.564 23.0761   2
   0  -7   1 427.512 23.2580  15
  -1   7  -1 1330.88 77.2645   5
   1  -7   1 1298.84 77.1225  12
   1  -7   1 1185.50 77.0465  10
   1  -7   1 1278.64 77.2123  15
   1  -7   1 1353.07 77.5089   5
  -2   7  -1 727.926 44.5641  16
  -2   7  -1 766.841 44.7535   5
   2  -7   1 780.493 45.0133   5
   2  -7   1 701.994 44.5512  10
   2  -7   1 746.139 44.5875  14
   3  -7   1 337.436 20.4601   5
  -4   7  -1 201.858 12.1122  16
  -4   7  -1 199.065 12.2131   4
  -4   7  -1 208.425 12.2429   6
   4  -7   1 196.388 12.1020  10
   4  -7   1 201.888 12.2827   5
   4  -7   1 190.751 12.1219  12
  -5   7  -1 0.13607 0.49805   6
  -5   7  -1 0.89753 0.53600  16
  -5   7  -1 -0.2655 0.48640   4
   5  -7   1 0.41366 0.40091  12
  -6   7  -1 4.30767 0.71029  11
  -6   7  -1 5.17476 0.80500   6
  -7   7  -1 110.108 8.17674   6
  -7   7  -1 129.642 7.95358  11
  -7   7  -1 145.868 8.31661   4
  -8   7  -1 676.284 40.9372   1
  -8   7  -1 669.212 40.8313   4
  -8   7  -1 643.782 40.8662   6
  -8   7  -1 682.859 40.7874  11
  -8   7  -1 703.321 40.7757  16
   8  -7   1 705.316 40.7777  10
  -9   7  -1 79.4331 5.06326  16
  -9   7  -1 78.0202 5.11648   1
  -9   7  -1 89.7203 5.35772  11
  -6  -6   1 29.3186 2.13344   4
  -6  -6   1 27.0428 1.94795   9
  -6  -6   1 25.8859 1.83228  13
  -6  -6   1 28.2012 1.96216  16
  -5  -6   1 209.990 12.7623  13
  -5  -6   1 194.677 12.8021  15
  -5  -6   1 220.976 12.8463  16
  -5  -6   1 210.324 12.8736   9
  -5  -6   1 219.510 12.7691  10
  -5  -6   1 208.824 12.9306   4
  -4  -6   1 71.6137 4.39568  12
  -4  -6   1 69.1128 4.35724  10
  -4  -6   1 64.4112 4.46622   2
  -4  -6   1 68.6374 4.46331  16
  -4  -6   1 65.7001 4.59763   4
  -4  -6   1 67.5468 4.44116  15
  -4  -6   1 71.6698 4.34334  13
  -4  -6   1 68.2526 4.46927   9
  -3  -6   1 70.7107 4.72147   9
  -3  -6   1 71.6119 4.79162  10
  -3  -6   1 71.3637 5.09364  16
  -3  -6   1 70.6185 4.57696   2
  -3  -6   1 71.1591 4.69968  15
  -2  -6   1 0.57808 0.33833  10
  -2  -6   1 0.30331 0.39398   3
  -2  -6   1 -0.0245 0.38260  12
  -2  -6   1 -0.4967 0.56278   4
  -2  -6   1 0.26562 0.47829   9
  -2  -6   1 0.54669 0.44706  13
  -2  -6   1 0.36469 0.46868  15
   1   6  -1 70.8535 4.80047   5
  -1  -6   1 77.5851 4.73046  12
  -1  -6   1 77.9224 4.83253  15
   0   6  -1 366.842 22.2259  17
  -1   6  -1 649.189 37.6481   5
  -1   6  -1 617.886 37.5931  17
   1  -6   1 618.184 37.5614  17
   1  -6   1 641.299 37.6397   5
   1  -6   1 635.677 37.4952  14
   1  -6   1 597.872 37.6473  17
  -2   6  -1 182.850 11.5331  17
  -2   6  -1 198.997 11.6376   5
  -2   6  -1 193.649 11.5508  17
   2  -6   1 178.065 11.5335  17
   2  -6   1 186.053 11.5422  17
   2  -6   1 197.138 11.6355   5
   2  -6   1 197.353 11.5476  14
  -3   6  -1 -0.1301 0.29474  17
   3  -6   1 -0.4768 0.35345  17
   3  -6   1 0.77393 0.37430  14
   3  -6   1 0.77527 0.42746   5
  -4   6  -1 30.0268 2.08496  16
   4  -6   1 29.0554 2.12862  14
   4  -6   1 30.3499 2.17856   5
  -5   6  -1 28.1666 1.99804  16
  -5   6  -1 28.2185 2.14619   4
  -5   6  -1 28.0128 2.12940   6
   5  -6   1 24.0900 1.87263  12
  -6   6  -1 190.327 11.8432   6
  -6   6  -1 196.711 12.0759   4
  -6   6  -1 187.924 11.6946  16
  -7   6  -1 629.976 37.2917   1
  -7   6  -1 581.512 37.1816   6
  -7   6  -1 603.707 37.1097  11
  -7   6  -1 632.838 37.1688   4
  -7   6  -1 637.674 37.0720  16
  -8   6  -1 17.0130 1.64293  16
  -8   6  -1 16.8446 1.80225   1
  -8   6  -1 19.1992 1.60918  11
  -8   6  -1 16.1629 1.54103   6
  -8   6  -1 17.3696 1.81453   4
  -9   6  -1 30.7846 2.12641   1
  -9   6  -1 33.0970 2.20303   4
  -9   6  -1 32.2275 2.15524  16
   9  -6   1 26.8197 1.96084  10
  -7  -5   1 49.8262 3.39361  16
  -7  -5   1 52.4514 3.26202   4
  -7  -5   1 47.6586 3.07343  13
  -7  -5   1 46.7289 3.14566   9
  -6  -5   1 166.570 10.1181  13
  -6  -5   1 171.866 10.1984  16
  -6  -5   1 162.670 10.2292   9
  -6  -5   1 165.922 10.2857   4
  -5  -5   1 62.0938 4.24723   4
  -5  -5   1 60.6631 3.94615  10
  -5  -5   1 55.8962 4.02831   9
  -5  -5   1 62.3168 4.05724  16
  -5  -5   1 58.7992 3.96883  15
  -5  -5   1 66.6420 4.00237  12
  -5  -5   1 62.4991 3.90180  13
  -4  -5   1 26.7858 1.92774  12
  -4  -5   1 28.1271 2.29848  15
  -4  -5   1 24.6916 2.00792   9
  -4  -5   1 23.5904 2.39059   4
  -4  -5   1 25.5103 2.03347   2
  -4  -5   1 25.5688 1.85483  13
   3   5  -1 85.9783 5.40611   5
  -3  -5   1 88.2317 5.39199   3
  -3  -5   1 76.7031 5.49621   4
  -3  -5   1 91.8344 5.49967  15
  -3  -5   1 96.3925 5.41365  12
  -3  -5   1 81.9645 5.42066  16
  -3  -5   1 82.4951 5.33715  10
  -3  -5   1 86.1848 5.36560  13
  -3  -5   1 87.5664 5.49211   9
   2   5  -1 26.6941 1.90385   5
   1   5  -1 9.75793 0.78263  17
   1   5  -1 10.0157 1.15610   5
  -1  -5   1 9.74959 0.90119   5
  -1  -5   1 10.2345 0.78169  17
   0   5  -1 50.8929 3.08247  17
   0   5  -1 52.7974 3.07830  17
   0   5  -1 49.6097 3.16284   5
   0   5  -1 40.9336 3.40511   5
   0  -5   1 48.2742 3.05579  17
   0  -5   1 51.2212 3.09174  17
   0  -5   1 49.5415 3.14520   5
  -1   5  -1 51.5707 3.26804   5
  -1   5  -1 50.4888 3.18002  17
  -1   5  -1 51.5418 3.18784  17
   1  -5   1 52.3537 3.16965  14
   1  -5   1 51.8297 3.27313   5
   1  -5   1 49.1415 3.18537  17
   1  -5   1 50.0703 3.17279  17
  -2   5  -1 74.6126 4.60239  17
  -2   5  -1 75.4539 4.67596   5
  -2   5  -1 75.1391 4.59213  17
   2  -5   1 76.0654 4.60443  17
   2  -5   1 72.5207 4.59724  17
   2  -5   1 75.2364 4.68087   5
   2  -5   1 74.5411 4.63364  14
  -3   5  -1 484.125 30.1279  17
  -3   5  -1 500.325 30.1767   5
  -3   5  -1 487.502 30.1117  17
   3  -5   1 507.440 30.1366  17
   3  -5   1 510.179 30.1932  14
   3  -5   1 513.497 30.1963   5
   3  -5   1 516.112 30.1361  17
   4  -5   1 36.0297 2.49556  14
   4  -5   1 37.4297 2.47207   5
  -5   5  -1 27.8183 2.12386   4
  -5   5  -1 25.2741 1.97772  11
  -6   5  -1 629.149 38.4674   1
  -6   5  -1 695.200 38.4734   6
  -6   5  -1 616.693 38.4624   7
  -6   5  -1 608.678 38.3299  11
  -6   5  -1 632.681 38.3748   4
  -6   5  -1 644.352 38.2802  16
  -7   5  -1 7.22905 1.36965  16
  -7   5  -1 7.40758 1.59047   4
  -7   5  -1 10.9503 1.28785   6
  -7   5  -1 8.00528 1.19877   1
  -7   5  -1 9.82032 1.37633  11
  -8   5  -1 336.134 20.6926   4
  -8   5  -1 341.417 20.6990   6
  -8   5  -1 328.734 20.6914   1
  -8   5  -1 354.087 20.6112  16
  -8   5  -1 344.959 20.6587  11
  -9   5  -1 14.8848 1.44511   4
  -9   5  -1 11.1287 1.11677   1
  -9   5  -1 13.2751 1.34434  16
  -8  -4   1 3.22051 0.53946   9
  -8  -4   1 4.72613 0.79330   4
  -7  -4   1 426.267 26.7153   9
  -7  -4   1 439.128 26.5632  13
  -7  -4   1 464.098 26.6688  16
  -6  -4   1 43.4962 3.04546   9
  -6  -4   1 45.0268 2.89849  13
  -6  -4   1 44.8656 3.10003  16
  -6  -4   1 44.7643 3.29144   4
  -5  -4   1 0.44897 0.49883   9
  -5  -4   1 -0.3844 0.60154  16
  -5  -4   1 0.08195 0.48086  13
  -5  -4   1 0.13179 0.49189   2
  -5  -4   1 0.72594 0.69907   4
  -5  -4   1 -0.3872 0.52196  12
  -5  -4   1 -0.0751 0.41637  10
  -5  -4   1 -0.2214 0.47388  15
  -4  -4   1 63.1195 4.20437  10
  -4  -4   1 70.7887 4.36590   2
  -4  -4   1 66.4783 4.30800  15
  -4  -4   1 69.5772 4.35271   9
  -4  -4   1 59.9753 4.41351   4
  -4  -4   1 61.9491 4.29510  16
  -4  -4   1 75.9291 4.28120  12
  -4  -4   1 66.1377 4.20276  13
   3   4  -1 10.9424 0.96529   5
   2   4  -1 108.449 6.64851   5
   2   4  -1 109.528 6.64710   5
   2   4  -1 108.535 6.55687  17
  -2  -4   1 110.076 6.60960   5
  -2  -4   1 106.227 6.56568  17
   1   4  -1 76.8087 4.77772  17
   1   4  -1 79.2813 4.84817   5
   1   4  -1 80.1131 4.77333  17
   1   4  -1 78.1814 4.85109   5
  -1  -4   1 77.3023 4.77444  17
  -1  -4   1 75.6147 4.76047  17
  -1  -4   1 82.2325 4.90954   5
   0   4  -1 63.8243 3.82960  17
   0   4  -1 63.3714 3.89307   5
   0   4  -1 58.8544 3.88819   5
   0   4  -1 63.5967 3.83157  17
   0  -4   1 62.2322 3.82020  17
   0  -4   1 63.3176 3.88672   5
   0  -4   1 62.6721 3.83125  17
  -1   4  -1 21.0275 1.52835   5
  -1   4  -1 22.1462 1.44692  17
  -1   4  -1 22.6537 1.45389  17
   1  -4   1 21.1261 1.53439   5
   1  -4   1 22.4758 1.45509  17
   1  -4   1 22.6935 1.44702  17
   1  -4   1 22.4348 1.47112  14
  -2   4  -1 898.287 54.7045  17
  -2   4  -1 935.286 54.7195  17
  -2   4  -1 951.831 54.7417   8
  -2   4  -1 897.317 54.7528   5
   2  -4   1 917.740 54.7524  14
   2  -4   1 953.637 54.7181  17
   2  -4   1 854.224 54.7714   5
  -3   4  -1 34.2947 2.14864  17
  -3   4  -1 33.3109 2.16824  17
  -3   4  -1 36.0435 2.35604   5
   3  -4   1 31.0337 2.25548   5
   3  -4   1 33.8621 2.26652  14
   3  -4   1 35.1689 2.24311   5
   3  -4   1 34.0948 2.17302  17
   3  -4   1 35.9001 2.16990  17
  -4   4  -1 595.140 33.6953  17
   4  -4   1 567.510 33.6621  17
   4  -4   1 602.556 33.7814  14
   4  -4   1 483.040 33.9708   5
  -5   4  -1 588.461 36.9136  16
  -5   4  -1 555.019 37.0275   7
  -5   4  -1 682.082 36.9886   6
   5  -4   1 619.693 36.9113  14
   5  -4   1 624.569 36.8066   5
  -6   4  -1 2.85084 0.78635   7
  -6   4  -1 2.97483 0.73864  11
  -6   4  -1 1.80978 0.71120   4
  -6   4  -1 3.60785 0.77574   1
  -6   4  -1 2.17657 0.64888  16
  -6   4  -1 3.64605 0.71761   6
  -7   4  -1 1496.51 88.8353  16
  -7   4  -1 1455.89 89.0163   7
  -7   4  -1 1477.29 88.9414   4
  -7   4  -1 1434.49 88.9005  11
  -7   4  -1 1549.54 88.9855   6
  -7   4  -1 1494.70 88.9762   1
  -8   4  -1 104.978 6.92646   4
  -8   4  -1 109.005 6.84121   6
  -8   4  -1 113.408 6.87717  11
  -8   4  -1 104.320 6.80509   1
  -8   4  -1 110.755 6.80709  16
  -9   4  -1 0.35870 0.60225  16
  -9   4  -1 1.27488 0.62104  11
  -9   4  -1 0.60562 0.58554   4
  -8  -3   1 176.953 11.6151   9
  -8  -3   1 201.110 11.6759   4
  -8  -3   1 197.360 11.5977  16
  -7  -3   1 282.402 16.8506  16
  -7  -3   1 284.754 16.8937   9
  -7  -3   1 281.882 16.9506   4
  -7  -3   1 264.891 16.7503  13
  -6  -3   1 39.0039 2.84151   2
  -6  -3   1 40.0387 2.83115  16
  -6  -3   1 37.7153 2.59759  13
  -6  -3   1 40.9300 2.78275   9
  -6  -3   1 39.3278 2.99380   4
  -5  -3   1 9.00279 1.04904  10
  -5  -3   1 7.27726 1.09241   9
  -5  -3   1 9.62542 1.56451   4
  -5  -3   1 8.00980 0.90319  13
  -5  -3   1 7.05437 1.25424  16
  -5  -3   1 9.59237 1.02805  12
  -4  -3   1 816.732 52.6710   4
  -4  -3   1 945.548 52.6961   9
  -4  -3   1 872.519 52.5605  13
   3   3  -1 4.63531 0.49511   5
   3   3  -1 3.37910 0.52715   5
   2   3  -1 62.8064 3.64389  17
   2   3  -1 58.5809 3.64901  17
   2   3  -1 62.0122 3.70507   5
   2   3  -1 59.0019 3.70418   5
  -2  -3   1 57.2261 3.63439  17
  -2  -3   1 60.9735 3.65104  17
   1   3  -1 804.552 48.7044  17
   1   3  -1 771.864 48.7424   5
   1   3  -1 821.189 48.7673   8
   1   3  -1 838.020 48.7606   5
   1   3  -1 837.269 48.7048  17
  -1  -3   1 828.050 48.6999  17
  -1  -3   1 806.690 48.7042  17
   0   3  -1 -0.0910 0.23751   5
   0   3  -1 0.18808 0.20304  17
   0   3  -1 0.14170 0.22817   5
   0   3  -1 0.01786 0.21754  17
   0   3  -1 -0.0472 0.28605   8
   0  -3   1 0.29476 0.20802  17
   0  -3   1 0.07118 0.19158   5
   0  -3   1 0.21381 0.26362   5
   0  -3   1 0.31294 0.21517  17
  -1   3  -1 190.004 11.0913   8
  -1   3  -1 170.140 11.1069   5
  -1   3  -1 186.851 11.0662  17
  -1   3  -1 191.700 11.0738  17
  -1   3  -1 176.821 11.0995  14
  -1   3  -1 185.168 11.1061   5
   1  -3   1 195.338 11.0741  17
   1  -3   1 183.892 11.0858  14
   1  -3   1 183.452 11.1079   5
   1  -3   1 172.465 11.1049   5
   1  -3   1 193.092 11.0722  17
  -2   3  -1 66.0660 4.34958  14
  -2   3  -1 76.7341 4.28650   8
  -2   3  -1 70.5857 4.26591  17
  -2   3  -1 71.9530 4.27961  17
   2  -3   1 68.7778 4.31751   5
   2  -3   1 66.5620 4.32169   5
   2  -3   1 70.8551 4.27750  17
   2  -3   1 69.7701 4.32603  14
   2  -3   1 71.2848 4.27143  17
  -3   3  -1 209.862 12.4121  17
  -3   3  -1 209.314 12.4594   5
  -3   3  -1 197.242 12.3790   8
  -3   3  -1 210.471 12.3943  17
   3  -3   1 205.273 12.3971  17
   3  -3   1 203.213 12.4077  17
   3  -3   1 206.296 12.4847  14
   3  -3   1 217.813 12.4571   5
   3  -3   1 200.192 12.4720   5
  -4   3  -1 22.0039 1.59584   5
   4  -3   1 26.3557 1.78833  14
   4  -3   1 23.7015 1.62240  17
   4  -3   1 25.9067 1.72035   5
   4  -3   1 27.6118 1.67667   5
   5  -3   1 4.85756 0.60252   5
   5  -3   1 4.22721 0.89563  14
  -6   3  -1 591.117 36.0517  11
  -6   3  -1 578.903 35.9614  16
  -6   3  -1 663.957 36.1403   6
  -6   3  -1 604.011 36.0821   4
  -6   3  -1 560.169 36.1237   7
  -6   3  -1 596.729 36.0952   1
  -7   3  -1 1.30209 0.58122   6
  -7   3  -1 0.74458 0.73402   7
  -7   3  -1 0.45168 0.53499   1
  -7   3  -1 1.24955 0.68465  16
  -7   3  -1 0.99118 0.76063  11
  -7   3  -1 0.39893 0.64744   4
  -8   3  -1 87.3025 5.69643   1
  -8   3  -1 94.7647 5.89713  11
  -8   3  -1 89.9831 5.78346   6
  -8   3  -1 93.3630 5.95712   4
  -8   3  -1 92.5843 5.82540  16
  -9   3  -1 2.08060 0.74198  11
  -9   3  -1 -0.1183 0.58445   4
  -9   3  -1 0.92750 0.63049  16
  -8  -2   1 34.0075 2.42643   9
  -8  -2   1 37.4342 2.51478  16
  -8  -2   1 36.7805 3.17921   4
  -7  -2   1 31.2942 2.30377  13
  -7  -2   1 36.0812 2.76339   4
  -7  -2   1 35.7792 2.50617   9
  -7  -2   1 36.7433 2.56767  16
  -7  -2   1 36.7736 2.47634  11
  -6  -2   1 1.07626 0.65838  16
  -6  -2   1 0.74329 0.51018   9
  -6  -2   1 0.46120 0.69992  11
  -6  -2   1 0.00154 0.61538   4
  -6  -2   1 -0.4935 0.36780  13
  -5  -2   1 1055.57 69.6955  11
  -5  -2   1 1166.10 69.7277   4
  -5  -2   1 1182.14 69.6244  10
  -5  -2   1 1249.81 69.6529  16
   4   2  -1 160.091 9.67277   8
   2   2  -1 570.865 35.5099   5
   2   2  -1 624.478 35.4803  17
   2   2  -1 584.604 35.5106   5
  -2  -2   1 596.727 35.4768  17
   1   2  -1 542.535 33.1284   5
   1   2  -1 569.210 33.1034  17
   1   2  -1 586.191 33.1046  17
   1   2  -1 516.456 33.1198   5
  -1  -2   1 574.023 33.1013  17
  -1  -2   1 530.323 33.1153   5
  -1  -2   1 562.265 33.1034  17
  -1  -2   1 553.086 33.1186   5
  -1   2  -1 15.2172 1.05502   5
  -1   2  -1 15.7925 1.08130  14
  -1   2  -1 16.6963 1.02741  17
  -1   2  -1 15.8308 1.01040  17
  -1   2  -1 16.5210 1.06454   5
   1  -2   1 14.7122 1.05402   5
   1  -2   1 16.3111 1.01892  17
   1  -2   1 16.6575 1.02791  17
   1  -2   1 15.2326 1.06127  14
   1  -2   1 15.2776 1.06133   5
  -2   2  -1 267.693 17.1527  14
  -2   2  -1 266.111 17.1198   5
  -2   2  -1 294.628 17.0928  17
  -2   2  -1 301.309 17.0743   8
  -2   2  -1 279.501 17.1020   5
   2  -2   1 292.035 17.1190   5
   2  -2   1 291.831 17.0847  17
   2  -2   1 281.920 17.1257   5
   2  -2   1 285.372 17.1398  14
   2  -2   1 295.164 17.0928  17
  -3   2  -1 20.9268 1.31607  17
   3  -2   1 20.3344 1.32601  17
   3  -2   1 20.5941 1.43938  14
   3  -2   1 20.7486 1.35053   5
   3  -2   1 20.4613 1.28980  17
   3  -2   1 19.5940 1.36975   5
  -4   2  -1 0.29069 0.14946  17
  -4   2  -1 0.10222 0.19810  17
   4  -2   1 -0.1516 0.32693  14
   4  -2   1 0.10633 0.23898   5
   4  -2   1 0.18408 0.20611   5
   4  -2   1 -0.0875 0.20454  17
   4  -2   1 0.37629 0.17363  17
   5  -2   1 1.31191 0.42708  14
   5  -2   1 0.88260 0.25831   5
  -6   2  -1 151.689 9.33377   4
  -6   2  -1 147.207 9.27125   1
  -6   2  -1 152.585 9.23065  16
  -6   2  -1 158.371 9.32558   6
  -6   2  -1 140.603 9.38615   7
  -6   2  -1 148.707 9.29181  11
  -7   2  -1 27.5096 2.33331  11
  -7   2  -1 27.9020 2.22245  16
  -7   2  -1 28.5485 2.40476   4
  -7   2  -1 28.2918 2.55286   7
  -7   2  -1 30.7051 2.16685   6
  -7   2  -1 25.6585 2.09155   1
  -8   2  -1 89.2939 5.41550  11
  -8   2  -1 85.4917 5.49271   4
  -8   2  -1 85.5306 5.33987  16
  -8   2  -1 73.7295 5.19222   6
  -9   2  -1 918.986 53.7256  11
  -9   2  -1 889.739 53.6856  16
  -9   2  -1 882.913 53.7429   4
  -9  -1   1 12.0445 1.06926  16
  -9  -1   1 10.1565 1.16101   4
  -8  -1   1 149.883 9.02002  11
  -8  -1   1 140.097 8.71607  16
  -8  -1   1 135.821 8.80934   4
  -7  -1   1 83.4912 5.10242  16
  -7  -1   1 78.1881 5.06746  11
  -7  -1   1 80.2655 5.23545   4
  -7  -1   1 72.4861 4.88153  13
  -7  -1   1 81.3933 5.06602   9
  -6  -1   1 168.028 10.5017  11
  -6  -1   1 196.854 10.5721   9
  -6  -1   1 167.989 10.3842  13
  -6  -1   1 170.004 10.4860  16
  -6  -1   1 163.961 10.5919   4
  -6  -1   1 161.121 10.5165   2
  -5  -1   1 2.26735 0.64497   4
  -5  -1   1 0.05485 0.54183  16
   4   1  -1 773.205 47.5069   8
   4   1  -1 792.068 47.4442  14
   4   1  -1 814.998 47.4428   8
   3   1  -1 2.43335 0.43387  14
   2   1  -1 544.504 32.5418  14
  -2   1  -1 218.160 14.3761   5
  -2   1  -1 243.567 14.3661  17
  -2   1  -1 222.105 14.3945   5
  -2   1  -1 252.183 14.3792  17
  -2   1  -1 236.503 14.4441  14
   2  -1   1 238.302 14.3682  17
   2  -1   1 246.917 14.4038   5
   2  -1   1 239.389 14.4221  14
   2  -1   1 260.429 14.3803  17
   2  -1   1 245.738 14.3937   5
   4  -1   1 252.006 15.0788   5
   4  -1   1 256.592 15.0354   5
   4  -1   1 243.405 15.1054  14
  -5   1  -1 366.873 23.5125  16
   5  -1   1 400.683 23.2869   5
   5  -1   1 398.305 23.3885  14
  -6   1  -1 0.31039 0.53148  11
  -6   1  -1 0.21445 0.60489   4
  -6   1  -1 0.35609 0.51432   6
  -6   1  -1 0.57954 0.62334  16
  -6   1  -1 0.74635 0.51527   2
  -7   1  -1 7.56429 1.68663   7
  -7   1  -1 7.40956 1.34431  16
  -7   1  -1 7.63308 1.42558  11
  -7   1  -1 6.75445 1.06362   9
  -7   1  -1 8.42622 1.58309   4
  -7   1  -1 6.94522 1.19643   6
  -8   1  -1 548.238 33.2191   4
  -8   1  -1 528.911 33.1159  16
  -8   1  -1 576.927 33.2005  11
  -9   1  -1 6.38486 1.02242  16
  -9   1  -1 6.84276 1.16412   4
  -9   0   1 23.0097 1.65412  16
  -9   0   1 22.0505 1.78381   4
  -9   0   1 18.4707 1.57343  11
  -8   0   1 83.8961 5.26234  16
  -8   0   1 79.6808 5.36172   4
  -8   0   1 78.2191 5.19664   9
  -8   0   1 89.0554 5.27898  11
  -7   0   1 15.7173 1.51784  11
  -7   0   1 14.7651 1.37040   9
  -7   0   1 12.8708 1.76193   4
  -7   0   1 16.5904 1.56035  16
  -6   0   1 205.181 14.8060   7
  -6   0   1 236.931 14.3227  11
  -6   0   1 272.596 14.3585   9
  -6   0   1 233.551 14.2646  16
  -6   0   1 226.837 14.3648   4
   5   0  -1 1802.34 107.808  14
   4   0  -1 3.88599 0.39787   8
   4   0  -1 3.09138 0.60625  14
   3   0  -1 214.714 12.5548   8
   3   0  -1 204.018 12.6051  14
   2   0  -1 284.538 17.4397  14
   2   0  -1 297.590 17.4109   8
  -1   0  -1 95.4928 5.76177   5
  -1   0  -1 98.1710 5.74792  17
  -1   0  -1 96.8748 5.77742  14
  -1   0  -1 97.8184 5.74727  17
   1   0   1 95.5007 5.74451  17
   1   0   1 91.7415 5.75819   5
   1   0   1 95.1570 5.75669   5
   1   0   1 92.3031 5.76111  14
   1   0   1 100.209 5.74747  17
  -3   0  -1 19.2873 1.28266  17
  -3   0  -1 21.1449 1.30614  17
  -3   0  -1 19.2153 1.44757  14
   3   0   1 19.7947 1.38498  14
   3   0   1 22.0615 1.33520   5
   3   0   1 21.5639 1.30158  17
   3   0   1 20.2941 1.29211  17
   3   0   1 21.3550 1.34399   5
   4   0   1 21.6516 1.39424   5
   4   0   1 21.5759 1.42328   5
   4   0   1 20.5965 1.45891  14
  -5   0  -1 27.4130 1.96623   9
  -5   0  -1 26.2326 2.26425   4
  -5   0  -1 26.6460 2.15774   2
  -5   0  -1 29.7860 2.25516  16
  -5   0  -1 25.6159 1.99103  11
   5   0   1 26.3274 1.80782  14
  -6   0  -1 475.380 28.9310   2
  -6   0  -1 517.212 28.8556  11
  -6   0  -1 434.948 28.7571   7
  -6   0  -1 477.282 28.6963   9
  -7   0  -1 82.6655 5.62944   4
  -7   0  -1 83.8808 5.53653  16
  -7   0  -1 92.9624 5.62477  11
  -7   0  -1 85.8729 5.55541   9
  -8   0  -1 29.4806 2.24366  16
  -8   0  -1 31.8250 2.65034  11
  -8   0  -1 28.0639 2.03563   9
  -8   0  -1 29.3614 2.37978   4
  -9   0  -1 49.7503 3.18045   4
  -9   0  -1 48.2359 3.11273  16
  -9   1   1 114.803 7.49958   4
  -9   1   1 124.381 7.44714  11
  -9   1   1 124.204 7.44255  16
  -8   1   1 65.8102 4.23349  16
  -8   1   1 60.8418 4.34469   4
  -8   1   1 67.6548 4.26752  11
  -7   1   1 -0.3305 0.42260   6
  -7   1   1 -0.5644 0.53543   4
  -7   1   1 0.66296 0.60924  11
  -7   1   1 0.51967 0.58818  16
   6  -1  -1 466.188 30.0385  14
  -6   1   1 485.146 29.9569  11
  -6   1   1 571.695 29.9915   6
  -6   1   1 494.943 29.9060  16
  -6   1   1 470.147 29.9756   4
   5  -1  -1 0.77968 0.42253  14
   4  -1  -1 78.5878 4.74867   8
   4  -1  -1 78.2429 4.87348  14
   3  -1  -1 371.829 22.6645  14
   3  -1  -1 383.469 22.5921   8
   2  -1  -1 8.15988 0.62944   5
   2  -1  -1 9.10258 0.64832   5
   2  -1  -1 9.33310 0.65755   8
   2  -1  -1 9.17782 0.60026  17
   2  -1  -1 8.68025 0.76509  14
   2  -1  -1 9.22272 0.59543  17
  -2   1   1 9.18533 0.69509  17
  -2   1   1 8.94793 0.63112   8
  -2   1   1 9.09187 0.59080  17
   1  -1  -1 96.6921 5.58117  17
   1  -1  -1 97.8831 5.60141   8
   1  -1  -1 92.7250 5.58241  17
   1  -1  -1 94.1184 5.60053   5
   1  -1  -1 87.3387 5.59236   5
  -1   1   1 86.2810 5.59510   5
  -1   1   1 91.4465 5.59352   5
  -1   1   1 98.3886 5.58101  17
  -2  -1  -1 100.965 6.32904  14
  -2  -1  -1 105.911 6.28402  17
  -2  -1  -1 104.377 6.28682  17
  -2  -1  -1 99.9580 6.36043   5
   2   1   1 105.795 6.29073  17
   2   1   1 97.2561 6.29581   8
   2   1   1 115.233 6.33557   5
   2   1   1 108.592 6.31629   5
   2   1   1 103.321 6.29109  14
  -3  -1  -1 392.909 25.3112  17
   3   1   1 435.450 25.3540   5
   3   1   1 404.427 25.3383  14
   3   1   1 441.326 25.3886  17
   3   1   1 443.404 25.3625   5
   4   1   1 269.494 16.0233  14
   4   1   1 264.358 16.0558   5
   4   1   1 267.378 16.0448   5
  -5  -1  -1 1.39030 0.69016   7
  -5  -1  -1 0.23291 0.37918  13
  -5  -1  -1 1.52322 0.69706  16
  -5  -1  -1 1.28917 0.47073  10
  -5  -1  -1 1.02928 0.50296  11
  -5  -1  -1 1.70595 0.55119   2
  -5  -1  -1 0.62851 0.61573   4
  -5  -1  -1 0.51855 0.51550   9
  -6  -1  -1 23.0200 1.77393   9
  -6  -1  -1 18.8972 1.54220  13
  -6  -1  -1 21.2315 2.05572   2
  -6  -1  -1 23.4100 1.87741  11
  -6  -1  -1 20.6534 2.09992   4
  -6  -1  -1 22.0908 1.94530  16
  -6  -1  -1 23.8265 2.10624   7
  -7  -1  -1 1.24728 0.65071   4
  -7  -1  -1 1.98895 0.72576  11
  -7  -1  -1 1.97193 0.72304  16
  -7  -1  -1 1.79849 0.61988   9
  -8  -1  -1 150.856 9.37496  11
  -8  -1  -1 161.668 9.51052   4
  -8  -1  -1 163.663 9.41775  16
  -8  -1  -1 140.062 9.37272   9
 -10   2   1 24.8339 1.65138  11
  -9   2   1 59.9562 4.00802  11
  -9   2   1 52.1475 3.90963   4
  -9   2   1 69.3673 4.31376  16
  -8   2   1 3.20041 0.76463  16
  -8   2   1 2.88961 0.71866  11
  -8   2   1 2.44572 0.60910   1
  -8   2   1 1.30175 0.73635   4
  -7   2   1 38.9731 2.68773  16
  -7   2   1 39.8947 2.75173   1
  -7   2   1 36.7589 2.73489  11
  -7   2   1 35.2772 2.81108   4
  -7   2   1 39.4231 2.64724   6
  -6   2   1 276.956 16.0295  11
  -6   2   1 242.479 16.1945   4
  -6   2   1 274.477 15.9583  16
  -6   2   1 251.071 16.5049   7
  -6   2   1 272.911 16.2455   1
   5  -2  -1 42.2136 2.83040  14
   4  -2  -1 0.37373 0.19482   5
   4  -2  -1 0.91666 0.27652   8
   4  -2  -1 0.43781 0.21876   5
   4  -2  -1 0.49985 0.36596  14
   3  -2  -1 20.8199 1.29853   8
   3  -2  -1 19.4113 1.24446  17
   3  -2  -1 21.2772 1.25161  17
   3  -2  -1 19.6624 1.41420  14
   3  -2  -1 19.9488 1.33185   5
   3  -2  -1 17.2268 1.28455   5
  -3   2   1 19.5318 1.26806   8
  -3   2   1 19.8517 1.23785  17
  -3   2   1 19.1121 1.25353   5
  -3   2   1 19.8175 1.23954  17
   2  -2  -1 52.0829 3.19073  14
   2  -2  -1 55.0407 3.13600   8
   2  -2  -1 52.7006 3.10779  17
   2  -2  -1 47.5968 3.12570   5
   2  -2  -1 50.7935 3.14602   5
   2  -2  -1 51.8412 3.09869  17
  -2   2   1 47.4786 3.11963   5
  -2   2   1 51.9274 3.12365   8
  -2   2   1 52.5295 3.09689  17
  -2   2   1 51.9428 3.10445  17
  -2   2   1 47.3843 3.12511   5
   1  -2  -1 780.757 45.8725   8
   1  -2  -1 786.294 45.8535  17
   1  -2  -1 752.481 45.8787   5
   1  -2  -1 783.264 45.8473  17
   1  -2  -1 706.139 45.8649   5
  -1   2   1 801.690 45.8494  17
  -1   2   1 786.941 45.8722   8
  -1   2   1 748.966 45.8750   5
  -1   2   1 776.667 45.8527  17
  -1   2   1 754.094 45.9042   5
   0  -2  -1 757.884 43.9835   8
   0  -2  -1 756.487 43.9501  17
   0  -2  -1 739.668 43.9571  17
   0  -2  -1 662.522 43.9642   5
   0   2   1 760.920 43.9595  17
   0   2   1 770.599 43.9530  17
   0   2   1 732.857 43.9787   8
   0   2   1 719.841 43.9823   5
   0   2   1 722.670 43.9843   5
  -2  -2  -1 3278.10 198.531  17
  -2  -2  -1 3237.06 198.603   5
  -2  -2  -1 3175.23 198.513  17
   2   2   1 3254.04 198.530  17
   2   2   1 3677.72 198.586  17
   2   2   1 3336.44 198.574   5
  -3  -2  -1 113.308 7.20101  17
   3   2   1 110.367 7.20334   8
   3   2   1 130.603 7.23418   5
   3   2   1 120.433 7.16052  17
   3   2   1 119.683 7.22896   5
  -4  -2  -1 1.61444 0.52169   9
  -4  -2  -1 2.60815 0.63817   4
  -4  -2  -1 2.94673 0.57935  10
  -4  -2  -1 1.99087 0.54844  16
   4   2   1 1.74095 0.38881   5
  -5  -2  -1 88.9562 5.24266   9
  -5  -2  -1 82.5786 5.24641  16
  -5  -2  -1 77.8753 5.32580   4
  -5  -2  -1 80.0394 5.13548  10
  -5  -2  -1 82.6287 5.07045  13
  -5  -2  -1 81.7769 5.31885   2
  -5  -2  -1 78.0157 5.19272  11
  -6  -2  -1 34.8587 2.54384  11
  -6  -2  -1 33.3435 2.74752   4
  -6  -2  -1 34.8914 2.62233  16
  -6  -2  -1 33.6369 2.30360  13
  -6  -2  -1 36.7153 2.51807   9
  -6  -2  -1 34.8855 2.73922   2
  -7  -2  -1 2.18462 0.66805   4
  -7  -2  -1 1.38379 0.51045  13
  -7  -2  -1 2.58714 0.72027  16
  -7  -2  -1 1.63095 0.60713   9
  -8  -2  -1 64.3625 4.02064  16
  -8  -2  -1 63.1944 4.09820   4
 -10   3   1 80.9573 4.88045  11
 -10   3   1 78.2820 4.86022  16
  -9   3   1 2.27284 0.57615   4
  -9   3   1 1.68048 0.40654   1
  -9   3   1 2.58865 0.70161  11
  -9   3   1 3.44561 0.70160  16
  -8   3   1 170.384 10.5327   1
  -8   3   1 169.419 10.6077   4
  -7   3   1 372.616 21.8146   6
  -7   3   1 345.754 21.7781  11
  -7   3   1 357.571 21.7293  16
  -7   3   1 371.995 21.8541   1
  -7   3   1 351.591 21.8110   4
  -6   3   1 15.8686 1.40830   6
  -6   3   1 15.7835 1.43334  16
  -6   3   1 16.2110 1.60562   1
  -6   3   1 15.4446 1.77612   4
  -6   3   1 15.4597 1.47634  11
   5  -3  -1 55.9238 3.20427   5
   5  -3  -1 42.6115 3.31223   5
   5  -3  -1 53.9130 3.38128  14
   4  -3  -1 664.048 41.3615  17
   4  -3  -1 646.511 41.4211   5
   4  -3  -1 681.374 41.3968   8
   4  -3  -1 708.051 41.3707  17
   4  -3  -1 768.778 41.5647  14
   4  -3  -1 734.661 41.4404   5
  -4   3   1 682.265 41.3948   8
  -4   3   1 660.459 41.3614  17
  -4   3   1 683.784 41.3622  17
   3  -3  -1 16.7141 1.28329  14
   3  -3  -1 17.4065 1.24053   5
   3  -3  -1 17.1371 1.17581   8
   3  -3  -1 16.3626 1.11089  17
   3  -3  -1 16.5631 1.13045  17
  -3   3   1 17.1703 1.15629   8
  -3   3   1 16.6088 1.10234  17
  -3   3   1 16.5631 1.11432  17
   2  -3  -1 141.710 8.16256   8
   2  -3  -1 136.981 8.13194  17
   2  -3  -1 136.113 8.19472  14
   2  -3  -1 137.726 8.12003  17
   2  -3  -1 135.442 8.18006   5
   2  -3  -1 122.172 8.15236   5
  -2   3   1 140.455 8.16186   8
  -2   3   1 137.079 8.12869  17
  -2   3   1 122.624 8.31138   5
  -2   3   1 138.753 8.12060  17
   1  -3  -1 12.9566 0.89593  17
   1  -3  -1 13.0380 0.86299  17
   1  -3  -1 12.8504 0.97015   8
   1  -3  -1 11.0490 1.02801   5
   1  -3  -1 11.9310 0.99019   5
  -1   3   1 10.9959 0.92218   5
  -1   3   1 13.5075 0.86981  17
  -1   3   1 13.1780 0.90146  17
  -1   3   1 12.3185 0.99543   5
  -1   3   1 12.3159 0.92769   8
   0  -3  -1 1493.03 89.0996  14
   0  -3  -1 1523.81 89.1437  17
   0  -3  -1 1566.55 89.1780   8
   0  -3  -1 1447.65 89.1780   5
   0  -3  -1 1491.46 89.1202  17
   0   3   1 1446.24 89.1735   5
   0   3   1 1425.34 89.1730   5
   0   3   1 1542.03 89.1329  17
   0   3   1 1439.24 89.1654   8
   0   3   1 1551.72 89.1407  17
  -1  -3  -1 113.140 7.44465   5
  -1  -3  -1 121.714 7.38625  17
   1   3   1 124.916 7.46898   5
   1   3   1 124.676 7.44843   5
   1   3   1 126.016 7.39146  17
   1   3   1 125.678 7.41635  17
  -2  -3  -1 943.106 59.1866  17
  -2  -3  -1 962.555 59.1683  17
  -2  -3  -1 969.123 59.2424   5
   2   3   1 1014.43 59.2518   5
   2   3   1 1049.82 59.1838  17
   2   3   1 1038.83 59.2633   5
   2   3   1 956.040 59.1938  17
  -3  -3  -1 51.1272 3.19025  17
   3   3   1 47.2183 3.24474  17
   3   3   1 56.3389 3.30613   5
  -4  -3  -1 291.789 18.3073   4
  -4  -3  -1 281.570 18.2758   2
  -4  -3  -1 303.322 18.2211  16
  -4  -3  -1 330.891 18.3007   9
  -4  -3  -1 292.350 18.1540  10
  -4  -3  -1 307.656 18.1486  13
  -5  -3  -1 87.1900 5.43754   9
  -5  -3  -1 84.0169 5.28348  13
  -5  -3  -1 83.7002 5.34813  10
  -5  -3  -1 85.6863 5.45080  16
  -5  -3  -1 88.1350 5.55241   2
  -5  -3  -1 81.2149 5.54076   4
  -6  -3  -1 1.92784 0.64669   9
  -6  -3  -1 1.80932 0.65672   2
  -6  -3  -1 2.28061 0.73652   4
  -6  -3  -1 2.49054 0.83865  16
  -6  -3  -1 2.25820 0.52739  13
  -7  -3  -1 414.711 23.4313   4
  -7  -3  -1 356.846 23.3577   9
  -7  -3  -1 332.568 23.1006  13
  -7  -3  -1 439.288 23.3828  16
  -8  -3  -1 22.5004 1.45275  16
  -8  -3  -1 22.6312 1.53271   4
  -8  -3  -1 17.8316 1.38659   9
 -10   4   1 6.08415 0.73755  16
 -10   4   1 5.96653 0.76000  11
  -9   4   1 17.2831 1.50353  11
  -9   4   1 16.4694 1.47653  16
  -9   4   1 14.3272 1.30547   1
  -9   4   1 14.3257 1.43979   4
  -8   4   1 478.431 26.4886  16
  -8   4   1 413.442 26.4409   6
  -8   4   1 448.947 26.5549   1
  -8   4   1 412.653 26.4506   4
  -7   4   1 41.1043 2.88116  11
  -7   4   1 39.1701 2.82517  16
  -7   4   1 38.8746 2.92279   4
  -7   4   1 41.4553 2.85234   6
  -7   4   1 40.8376 3.01079   1
  -6   4   1 386.834 23.5479  16
  -6   4   1 380.140 23.6023  11
  -6   4   1 421.034 23.6724   6
  -6   4   1 397.632 23.7125   1
  -6   4   1 370.086 23.6049   4
   5  -4  -1 47.6245 3.42894   8
   5  -4  -1 62.2570 3.76921  14
   5  -4  -1 57.1481 3.53802   5
   4  -4  -1 48.3953 3.24340  17
   4  -4  -1 50.7136 3.27923   5
   4  -4  -1 57.3043 3.39942  14
   4  -4  -1 53.3722 3.23916   8
  -4   4   1 47.8847 3.42531   5
   3  -4  -1 228.091 13.5693  14
   3  -4  -1 233.257 13.5450   5
   3  -4  -1 205.603 13.5168   5
   3  -4  -1 230.386 13.4748  17
   3  -4  -1 218.367 13.4498  17
   3  -4  -1 223.331 13.4963   8
  -3   4   1 232.065 13.6125   5
  -3   4   1 226.590 13.4657  17
  -3   4   1 217.712 13.4524  17
   2  -4  -1 554.199 33.2755   5
   2  -4  -1 554.898 33.2475   8
   2  -4  -1 561.830 33.2731  14
   2  -4  -1 548.487 33.3359   5
   2  -4  -1 548.975 33.2143  17
   2  -4  -1 558.204 33.2006  17
  -2   4   1 554.405 33.2030  17
  -2   4   1 553.663 33.2705   5
  -2   4   1 560.125 33.2166  17
   1  -4  -1 554.413 34.3660   5
   1  -4  -1 575.840 34.3124  17
   1  -4  -1 598.954 34.3594   8
   1  -4  -1 559.446 34.2903  17
  -1   4   1 579.836 34.2977  17
  -1   4   1 564.378 34.3686   5
  -1   4   1 580.593 34.3147  17
   0  -4  -1 451.590 27.7694  17
   0  -4  -1 467.362 27.8589   5
   0  -4  -1 464.424 27.7960  17
   0   4   1 472.430 27.7797  17
   0   4   1 466.707 27.8606   5
   0   4   1 481.809 27.8081  17
   0   4   1 444.365 27.8587   5
  -1  -4  -1 84.7914 5.25132  17
  -1  -4  -1 79.4514 5.21382  17
  -1  -4  -1 84.4716 5.31355   5
   1   4   1 90.0982 5.35325   5
   1   4   1 80.1599 5.31447   5
   1   4   1 92.0919 5.23680  17
   1   4   1 90.5725 5.27494  17
  -2  -4  -1 244.893 15.1816  17
   2   4   1 258.370 15.2417   5
  -3  -4  -1 165.668 10.1910  16
  -3  -4  -1 162.146 10.1869  10
  -3  -4  -1 161.566 10.7137   4
  -3  -4  -1 161.494 10.2470  15
  -3  -4  -1 180.968 10.1849  12
  -3  -4  -1 177.282 10.2694   9
  -3  -4  -1 164.969 10.1212  13
  -3  -4  -1 164.737 10.3218   2
   3   4   1 160.064 10.1958   5
  -4  -4  -1 3.29266 0.62955  15
  -4  -4  -1 4.53765 0.94169   9
  -4  -4  -1 4.61276 1.15564   4
  -4  -4  -1 3.74991 0.60481  13
  -4  -4  -1 6.44751 1.18325   2
  -4  -4  -1 4.33179 0.91572  12
  -5  -4  -1 40.9128 3.08025   2
  -5  -4  -1 42.2842 2.76411  13
  -5  -4  -1 40.6753 2.91903   9
  -5  -4  -1 43.6902 3.00774  16
  -5  -4  -1 41.8094 2.87514  10
  -5  -4  -1 41.3960 3.11815   4
  -6  -4  -1 448.593 26.9254   4
  -6  -4  -1 442.457 26.9569   2
  -6  -4  -1 435.449 26.7842  13
  -6  -4  -1 439.221 26.9135   9
  -6  -4  -1 466.314 26.8664  16
  -7  -4  -1 19.6405 1.58599   4
  -7  -4  -1 18.0050 1.21608  13
  -7  -4  -1 16.9573 1.38771   9
  -7  -4  -1 18.9326 1.48068  16
 -10   5   1 155.301 9.18102  11
 -10   5   1 148.641 9.15132  16
  -9   5   1 9.92362 1.12446   4
  -9   5   1 9.71250 1.17545   1
  -9   5   1 10.9253 1.58491  11
  -8   5   1 40.2954 2.83239  11
  -8   5   1 41.7080 2.81692  16
  -8   5   1 41.3396 2.99574   1
  -8   5   1 39.6858 2.79663   6
  -8   5   1 37.9771 2.86234   4
  -7   5   1 1788.80 104.302   6
  -7   5   1 1678.20 104.221  11
  -7   5   1 1636.12 104.221   4
  -7   5   1 1809.98 104.378   1
  -7   5   1 1798.83 104.190  16
  -6   5   1 33.6537 2.44375   6
  -6   5   1 31.6985 2.40083   4
  -6   5   1 34.8886 2.38112  16
  -6   5   1 33.7333 2.40084  11
  -6   5   1 32.4166 2.59923   1
  -5   5   1 1.06842 0.66920   1
  -5   5   1 -0.0102 0.49113  11
  -5   5   1 0.46057 0.41562   6
  -5   5   1 0.73693 0.50299  16
   4  -5  -1 14.0475 1.29868  14
   4  -5  -1 13.9557 1.13255   8
   4  -5  -1 14.6350 1.25250   5
   3  -5  -1 30.0515 2.03042  17
   3  -5  -1 31.4196 2.12363   8
   3  -5  -1 31.5607 2.07919  17
   3  -5  -1 33.2278 2.21654   5
   3  -5  -1 32.6577 2.19286  14
  -3   5   1 29.1311 2.02610  17
  -3   5   1 31.4604 2.04676  17
  -3   5   1 32.2779 2.12854   5
   2  -5  -1 440.090 27.0159   8
   2  -5  -1 453.427 27.0208  14
   2  -5  -1 459.578 27.0634   5
   2  -5  -1 438.654 26.9545  17
   2  -5  -1 444.531 26.9783  17
  -2   5   1 454.323 26.9834  17
  -2   5   1 474.714 27.1648   5
  -2   5   1 433.159 26.9551  17
   1  -5  -1 575.015 34.7231  17
   1  -5  -1 580.202 34.7150  14
   1  -5  -1 607.938 34.9346   5
   1  -5  -1 554.444 34.6925  17
  -1   5   1 568.040 34.7636  17
  -1   5   1 577.398 34.7997   5
  -1   5   1 594.337 34.7336  17
   0  -5  -1 343.669 20.5291   5
   0  -5  -1 299.957 20.3968  17
   0  -5  -1 348.344 20.4535  17
   0   5   1 345.508 20.4628  17
   0   5   1 361.135 20.5534   5
   0   5   1 342.848 20.4270  17
   1   5   1 0.86850 0.49515   5
  -2  -5  -1 561.823 30.7957  12
  -2  -5  -1 475.080 30.7528  10
  -2  -5  -1 532.155 30.7587  13
  -2  -5  -1 516.720 30.8389  15
  -2  -5  -1 511.894 30.8299   9
  -2  -5  -1 484.080 30.8023   2
   2   5   1 504.009 30.8606   5
  -3  -5  -1 19.1956 1.66576  10
  -3  -5  -1 20.9297 1.94285   4
  -3  -5  -1 21.5821 1.83870   2
  -3  -5  -1 19.5110 1.81242  16
  -3  -5  -1 20.5966 1.67788  15
  -3  -5  -1 22.0971 1.74779   9
  -3  -5  -1 23.5378 1.66997  12
  -3  -5  -1 21.7476 1.61587  13
  -4  -5  -1 260.480 15.5539  10
  -4  -5  -1 254.056 15.6969   2
  -4  -5  -1 245.416 15.6091  15
  -4  -5  -1 253.630 15.7192   4
  -4  -5  -1 249.465 15.6615   9
  -4  -5  -1 260.005 15.5508  13
  -4  -5  -1 271.959 15.6422  16
  -4  -5  -1 262.049 15.6223  12
  -5  -5  -1 179.448 11.1745   2
  -5  -5  -1 177.701 11.1602   9
  -5  -5  -1 183.682 11.0627  10
  -5  -5  -1 188.785 11.1419  16
  -5  -5  -1 181.135 11.0482  13
  -5  -5  -1 180.124 11.2019   4
  -6  -5  -1 0.86573 0.51086   9
  -6  -5  -1 0.34787 0.37908  13
  -6  -5  -1 0.96027 0.56085  16
  -6  -5  -1 1.30679 0.52261   4
 -10   6   1 0.70739 0.34477  11
 -10   6   1 0.52492 0.36152  16
  -9   6   1 20.8694 1.76461   1
  -9   6   1 21.7500 1.68358  16
  -9   6   1 22.8439 1.67919  11
   8  -6  -1 413.846 28.4196  10
  -8   6   1 503.948 28.7137   1
  -8   6   1 496.727 28.5677  11
  -8   6   1 457.251 28.5386   4
  -8   6   1 501.596 28.5363  16
   7  -6  -1 12.0998 1.23778  10
  -7   6   1 12.0056 1.73959   1
  -7   6   1 13.9447 1.44485   4
  -7   6   1 13.6590 1.42495  16
  -7   6   1 13.9315 1.41881  11
  -7   6   1 10.4941 1.30133   6
  -6   6   1 16.3198 1.60394   6
  -6   6   1 19.6649 2.66379   1
  -6   6   1 21.5289 1.87586  16
  -6   6   1 18.0029 1.57471   4
   5  -6  -1 0.56787 0.40357  10
  -5   6   1 0.69957 0.47907   6
  -5   6   1 0.72744 0.49812   4
  -5   6   1 0.64105 0.52008  16
  -5   6   1 0.65497 0.63328   1
   4  -6  -1 506.537 29.5418   5
   4  -6  -1 457.059 29.5131  14
  -4   6   1 483.884 29.3862  16
  -4   6   1 511.682 29.5004   6
   3  -6  -1 40.3817 2.72378   5
   3  -6  -1 37.2272 2.63233  14
   2  -6  -1 13.0346 1.18481  17
   2  -6  -1 15.7284 1.25393  17
   2  -6  -1 17.8022 1.46021   5
  -2   6   1 18.5502 1.44089   5
  -2   6   1 15.1654 1.27204  17
  -2   6   1 15.2511 1.20583  17
   1  -6  -1 113.558 7.41205   5
  -1   6   1 124.719 7.72206   5
   0  -6  -1 19.4305 1.43224  10
   0  -6  -1 20.9509 1.62881  15
   0   6   1 21.1562 1.75500   5
  -1  -6  -1 298.830 17.3698  13
  -1  -6  -1 286.297 17.4439   9
  -1  -6  -1 266.209 17.3160  10
  -1  -6  -1 267.001 17.4556   4
  -1  -6  -1 281.286 17.4219   2
  -1  -6  -1 302.045 17.5078  15
  -1  -6  -1 310.155 17.4140  12
   1   6   1 292.995 17.5515   5
  -2  -6  -1 199.355 11.6929  13
  -2  -6  -1 201.623 11.7313  12
  -2  -6  -1 174.790 11.7820   4
  -2  -6  -1 195.755 11.8156  15
  -2  -6  -1 186.867 11.6569  10
  -2  -6  -1 200.672 11.7986   9
  -2  -6  -1 187.912 11.7597   2
  -3  -6  -1 87.2724 5.40874  12
  -3  -6  -1 81.2350 5.44432   9
  -3  -6  -1 87.0837 5.45704  16
  -3  -6  -1 85.6533 5.51660   2
  -3  -6  -1 81.2685 5.54479   4
  -3  -6  -1 87.1980 5.37052  13
  -3  -6  -1 89.3553 5.48209  15
  -3  -6  -1 86.4644 5.37061  10
  -4  -6  -1 0.63296 0.49719  10
  -4  -6  -1 0.69311 0.55238   9
  -4  -6  -1 0.92333 0.49270  15
  -4  -6  -1 0.35531 0.67845   4
  -4  -6  -1 0.79038 0.40630  13
  -4  -6  -1 0.58081 0.49761   2
  -4  -6  -1 1.69131 0.71992  16
  -5  -6  -1 0.75817 0.57246   4
  -5  -6  -1 -0.0261 0.59597  16
  -5  -6  -1 -0.0042 0.43964   2
  -5  -6  -1 0.06570 0.35738  13
  -5  -6  -1 -0.0384 0.54898  10
  -5  -6  -1 0.03932 0.46940   9
  -6  -6  -1 278.078 15.8498  16
  -6  -6  -1 246.930 15.7669  13
  -6  -6  -1 291.759 15.8642   4
  -6  -6  -1 234.845 15.8293   9
  -9   7   1 9.85925 1.17758   1
  -9   7   1 11.9283 1.06048  16
   8  -7  -1 396.030 27.3222  10
  -8   7   1 493.452 27.4221  16
  -8   7   1 456.350 27.4125  11
  -8   7   1 479.773 27.5901   1
  -7   7   1 3.63446 1.48107   1
  -7   7   1 3.35072 1.04660  11
  -7   7   1 2.61984 0.81096  16
   6  -7  -1 1.87165 0.41440  10
  -6   7   1 0.83296 0.74342   1
  -6   7   1 1.84324 0.51576   6
  -6   7   1 1.22211 0.57073  11
  -6   7   1 1.59198 0.63762  16
   5  -7  -1 1889.08 119.455  10
  -5   7   1 2138.04 119.632   6
  -5   7   1 1835.37 119.472  11
  -5   7   1 1932.53 119.662   1
  -5   7   1 2204.78 119.735  16
   4  -7  -1 48.6317 3.21244  10
  -4   7   1 51.8690 3.26892  16
   3  -7  -1 303.233 17.9997   5
   3  -7  -1 291.094 17.6980  10
   3  -7  -1 280.491 17.8202  14
  -3   7   1 301.923 17.7207  16
   2  -7  -1 114.521 7.06983   5
   2  -7  -1 109.418 6.86076   2
   2  -7  -1 109.398 6.80026  10
   2  -7  -1 103.484 6.83228  12
  -2   7   1 120.013 7.07339   5
   1  -7  -1 24.0131 1.75141  13
   1  -7  -1 25.5194 1.80504  12
   1  -7  -1 25.8786 1.84430   2
   1  -7  -1 27.1575 2.01714  15
   1  -7  -1 26.4977 1.78591  10
   0  -7  -1 247.903 14.6880  12
   0  -7  -1 257.587 14.8337  15
   0  -7  -1 237.876 14.6411  13
   0  -7  -1 231.456 14.6739   2
   0  -7  -1 237.200 14.6083  10
  -1  -7  -1 188.235 11.4377  10
  -1  -7  -1 191.292 11.5005  12
  -1  -7  -1 178.061 11.4950   9
  -1  -7  -1 195.951 11.6409  15
  -2  -7  -1 12.0525 1.64265   4
  -2  -7  -1 13.5546 1.23358  12
  -2  -7  -1 13.9025 1.21381  13
  -2  -7  -1 13.3838 1.34987  15
  -2  -7  -1 13.4237 1.28093   9
  -2  -7  -1 13.1369 1.32034  10
  -2  -7  -1 10.9696 1.46237   2
  -3  -7  -1 -0.5992 0.49318  10
  -3  -7  -1 0.39901 0.52831  12
  -3  -7  -1 0.18619 0.67353   4
  -3  -7  -1 0.48013 0.53312  15
  -3  -7  -1 0.00929 0.33248  13
  -3  -7  -1 -0.4285 0.49177   2
  -3  -7  -1 0.49880 0.51645   9
  -3  -7  -1 0.34167 0.61827  16
  -4  -7  -1 70.0619 4.43734   4
  -4  -7  -1 66.5883 4.27194  13
  -4  -7  -1 73.0284 4.37445  16
  -4  -7  -1 61.2377 4.33016   9
  -4  -7  -1 72.2490 4.30148  10
  -4  -7  -1 66.2983 4.35317   2
  -5  -7  -1 24.7126 1.77801   9
  -5  -7  -1 26.4460 1.80532  16
  -5  -7  -1 24.9960 1.71626  13
  -5  -7  -1 27.4939 1.87539   4
   9  -8  -1 157.376 9.65767   2
  -9   8   1 154.881 9.69766   1
  -9   8   1 166.280 9.64283  16
  -8   8   1 29.6551 2.40851   1
  -8   8   1 31.2782 2.17541  16
   7  -8  -1 3.16664 0.41754  10
  -7   8   1 2.99444 0.63973  16
  -7   8   1 1.80052 0.58281  11
  -7   8   1 2.49139 0.70207   1
   6  -8  -1 718.787 44.2078  10
  -6   8   1 740.366 44.4111   1
  -6   8   1 755.062 44.2296  16
   5  -8  -1 15.6399 1.34616  10
  -5   8   1 16.9346 1.75027   1
  -5   8   1 16.7780 1.46238  16
   4  -8  -1 517.908 32.5966  10
   4  -8  -1 543.749 32.6915   2
  -4   8   1 535.279 32.6242  16
  -4   8   1 578.998 33.2525   1
   3  -8  -1 1.30941 0.40542  12
   3  -8  -1 0.18876 0.41434   2
   2  -8  -1 0.84627 0.39372  12
   1  -8  -1 79.7942 5.09896  15
   1  -8  -1 73.5889 4.83177  13
   1  -8  -1 79.9411 4.94927  12
   1  -8  -1 77.2245 4.90077   2
   1  -8  -1 77.3465 4.81579  10
   0  -8  -1 30.7787 2.01585  13
   0  -8  -1 28.8244 2.04054  10
   0  -8  -1 28.5229 2.05432  12
   0  -8  -1 28.6001 2.14881   2
   0  -8  -1 30.0885 2.29252  15
   0  -8  -1 28.2811 2.34480   4
  -1  -8  -1 4.07569 0.65964   2
  -1  -8  -1 5.73336 1.00067  10
  -1  -8  -1 3.46367 0.75995   4
  -1  -8  -1 5.63606 0.82773   9
  -1  -8  -1 5.24695 0.79718  13
  -1  -8  -1 5.99378 1.06262  15
  -1  -8  -1 5.06956 0.74503  12
  -2  -8  -1 17.8169 1.66356   2
  -2  -8  -1 17.1211 1.54038  10
  -2  -8  -1 17.8429 1.81217   4
  -2  -8  -1 18.3796 1.62742  15
  -2  -8  -1 19.2143 1.66102  16
  -2  -8  -1 17.0504 1.44501   9
  -2  -8  -1 18.7562 1.47231  12
  -2  -8  -1 19.6751 1.43935  13
  -3  -8  -1 2.14832 0.63238  16
  -3  -8  -1 1.30032 0.46935  10
  -3  -8  -1 1.65224 0.43679   2
  -3  -8  -1 1.52738 0.64413   4
  -3  -8  -1 2.45734 0.44653  13
  -3  -8  -1 2.39316 0.48098   9
  -4  -8  -1 0.93361 0.44919  16
  -4  -8  -1 1.42303 0.44177   4
  -4  -8  -1 1.32799 0.40928  13
  -4  -8  -1 0.88877 0.37106  10
  -4  -8  -1 1.02492 0.34664   9
  -9   9   1 0.65270 0.32996   1
   8  -9  -1 42.0854 2.79354   2
  -8   9   1 42.3114 2.84702   1
  -8   9   1 42.7755 2.72059  16
   7  -9  -1 7.12242 1.20659   2
   7  -9  -1 7.33256 0.73336  10
  -7   9   1 7.32409 0.99106  16
  -7   9   1 7.93651 1.21943   1
   6  -9  -1 -0.0944 0.52374   2
   6  -9  -1 0.10083 0.34885  10
  -6   9   1 -0.3653 0.47153  16
  -6   9   1 0.03545 0.57850   1
   5  -9  -1 318.245 19.0089  10
  -5   9   1 312.089 19.1403   1
   4  -9  -1 123.036 7.28840  10
   4  -9  -1 122.491 7.36605   2
  -4   9   1 110.769 7.51946   1
   3  -9  -1 5.67674 0.94728  10
   3  -9  -1 5.39244 1.01881   2
   3  -9  -1 6.66482 0.78616  12
   2  -9  -1 49.8374 3.38477  12
   2  -9  -1 55.4965 3.37174  10
   2  -9  -1 52.5426 3.45235   2
   1  -9  -1 0.41113 0.38775  10
   1  -9  -1 0.13505 0.40487   2
   1  -9  -1 0.58595 0.46724  12
   0  -9  -1 8.58369 1.23787   2
   0  -9  -1 11.2625 1.14167  10
   0  -9  -1 9.32070 1.02586  12
   0  -9  -1 11.1717 1.47450   4
   0  -9  -1 11.1710 0.97145  13
  -1  -9  -1 128.896 7.33145  10
  -1  -9  -1 116.244 7.31094  13
  -1  -9  -1 123.497 7.45279   4
  -1  -9  -1 117.791 7.39315   2
  -1  -9  -1 110.463 7.33663  12
  -2  -9  -1 3.55580 0.67473   4
  -2  -9  -1 3.00570 0.49571   2
  -2  -9  -1 4.65001 0.75807  12
  -2  -9  -1 3.62222 0.76765  10
  -2  -9  -1 5.36419 0.66673  13
  -3  -9  -1 6.34777 0.77502  10
  -3  -9  -1 6.84731 0.65106  13
  -3  -9  -1 4.57286 0.63256  16
  -3  -9  -1 6.57223 1.01125   4
   8 -10  -1 0.83652 0.27023   2
  -8  10   1 1.01697 0.33727   1
   7 -10  -1 25.6605 1.88786  10
   7 -10  -1 33.4909 2.09252   2
  -7  10   1 31.3210 2.10218   1
   6 -10  -1 283.952 16.3827   2
   6 -10  -1 262.164 16.2862  10
  -6  10   1 267.680 16.3956   1
   5 -10  -1 21.0889 1.63865   2
   5 -10  -1 21.0220 1.51409  10
  -5  10   1 20.3558 1.79798   1
   4 -10  -1 24.9950 1.83527   2
   4 -10  -1 23.1456 1.72722  10
   3 -10  -1 9.97720 1.18590   2
   3 -10  -1 11.3384 1.08089  10
   2 -10  -1 193.959 11.7223   2
   2 -10  -1 171.658 11.6508  12
   2 -10  -1 212.276 11.6665  10
   1 -10  -1 66.9064 4.47829  12
   1 -10  -1 72.4385 4.61725   4
   1 -10  -1 78.2241 4.49565  10
   1 -10  -1 70.0194 4.55179   2
   0 -10  -1 238.629 14.4268   2
   0 -10  -1 245.114 14.4236   4
   0 -10  -1 254.057 14.3277  10
   0 -10  -1 212.499 14.3341  12
  -1 -10  -1 166.295 11.1152  12
  -1 -10  -1 179.098 11.3485   2
  -1 -10  -1 186.064 11.1349  16
  -1 -10  -1 197.497 11.1129  10
  -1 -10  -1 190.699 11.1761   4
  -2 -10  -1 131.704 7.68723  10
  -2 -10  -1 121.426 7.65745  16
   7 -11  -1 121.788 7.36188   2
   6 -11  -1 196.646 11.4179   2
   6 -11  -1 181.696 11.3462  10
   5 -11  -1 42.6625 2.73213   2
   5 -11  -1 41.1325 2.63595  10
   4 -11  -1 84.6598 5.10552  10
   4 -11  -1 81.8866 5.17097   2
   3 -11  -1 334.530 20.3679   2
   3 -11  -1 342.814 20.3150  10
   2 -11  -1 5.00171 0.79396  10
   2 -11  -1 5.12114 0.90217   2
   1 -11  -1 60.1606 3.88379   2
   1 -11  -1 66.3564 3.84933  10
   1 -11  -1 59.3294 3.88395   4
   0 -11  -1 172.891 10.6866  16
   0 -11  -1 179.534 10.6273  10
   5 -12  -1 28.8788 1.86322   2
   4 -12  -1 -0.0958 0.24686   2
   4 -12  -1 0.01171 0.31571  10
   3 -12  -1 3.25728 0.58281   2
   2 -12  -1 162.696 9.77171  10
   0 -12   2 26.1307 1.91675  12
   0 -12   2 33.7413 1.95116  10
   0 -12   2 31.9226 2.02756   4
   1 -12   2 41.0147 2.48073  10
   1 -12   2 35.7980 2.45989  12
   1 -12   2 41.3496 3.00397   4
   2 -12   2 247.190 13.8812  10
   2 -12   2 245.087 13.9660   4
   2 -12   2 200.721 13.8796  12
   3 -12   2 1.89603 0.35907  10
   3 -12   2 1.40858 0.31943  12
   3 -12   2 0.90112 0.27438   2
   4 -12   2 77.4020 4.50296  10
   4 -12   2 69.9142 4.50653   2
   5 -12   2 52.2015 3.10131  10
   5 -12   2 47.3247 3.07946   2
   6 -12   2 7.31864 0.66901   2
   6 -12   2 7.95411 0.60740  10
  -2 -11   2 70.8373 4.52310  10
  -2 -11   2 68.4740 4.53460  12
  -2 -11   2 83.4781 4.61410   4
  -1 -11   2 102.713 6.39706  16
  -1 -11   2 108.828 6.36877   4
  -1 -11   2 91.3822 6.26536  12
  -1 -11   2 107.701 6.25055  10
   0 -11   2 9.09854 1.46953   4
   0 -11   2 6.80476 0.81659  12
   0 -11   2 9.40156 1.06196  10
   1 -11   2 154.064 10.2999   2
   1 -11   2 184.850 10.3192  10
   1 -11   2 172.914 10.3697  12
   2 -11   2 6.39222 0.84414  10
   2 -11   2 5.82885 0.76570  12
   3 -11   2 82.8572 5.43254  12
   3 -11   2 95.2566 5.39674  10
   3 -11   2 84.4788 5.41142   2
  -4  11  -2 116.883 7.19478   1
   4 -11   2 122.915 7.08924  10
   4 -11   2 118.857 7.16723   2
   4 -11   2 105.845 7.06977  12
  -5  11  -2 8.86399 1.15971   1
   5 -11   2 8.89162 0.94691   2
  -6  11  -2 128.210 7.85374   1
   6 -11   2 127.214 7.71966  10
   6 -11   2 127.016 7.75496   2
  -7  11  -2 250.250 14.9306   1
   7 -11   2 255.847 14.8783   2
   7 -11   2 236.845 14.8362  10
  -3 -10   2 59.7251 4.04400  12
  -3 -10   2 67.8479 4.00654  10
  -3 -10   2 72.5314 4.16774   4
  -3 -10   2 61.6605 3.99596  13
  -2 -10   2 152.048 8.77463   4
  -2 -10   2 148.274 8.66642  15
  -2 -10   2 132.102 8.49484  12
  -2 -10   2 129.008 8.42365  13
  -2 -10   2 143.334 8.45006  10
  -2 -10   2 131.374 8.46127  16
  -1 -10   2 1.39527 0.45650  10
  -1 -10   2 2.04353 0.53457  12
  -1 -10   2 2.00840 0.43369  13
  -1 -10   2 1.42051 0.60182   4
  -1 -10   2 0.94781 0.59775  15
   0 -10   2 179.303 10.8532  15
   0 -10   2 185.918 10.6239  10
   0 -10   2 176.235 10.6982  12
   0 -10   2 159.923 10.6229   2
   1 -10   2 275.645 16.7027  12
   1 -10   2 245.173 16.6373   2
   1 -10   2 294.073 16.6619  10
   1 -10   2 289.662 16.8831  15
   2 -10   2 209.424 12.0936   2
   2 -10   2 184.941 12.1273  12
   3 -10   2 48.0770 3.29361   2
   3 -10   2 38.8040 2.83185  12
   4 -10   2 51.5510 3.35586   2
   4 -10   2 54.2285 3.32575  10
   4 -10   2 48.6064 3.29522  12
   5 -10   2 3.69445 0.55113  12
   5 -10   2 2.95724 0.51012  10
   5 -10   2 2.69116 0.56525   2
  -6  10  -2 28.7492 2.34172   1
   6 -10   2 29.8382 2.00764  10
  -7  10  -2 50.8511 3.38969   1
   7 -10   2 49.1392 3.12741  10
  -8  10  -2 48.7999 3.11634   1
   8 -10   2 48.4389 3.05725   2
  -4  -9   2 20.8823 1.49194  15
  -4  -9   2 23.7182 1.71476   4
  -4  -9   2 18.6238 1.44303  16
  -4  -9   2 19.0621 1.42377   9
  -4  -9   2 21.3109 1.42431  10
  -4  -9   2 21.7668 1.41308  13
  -3  -9   2 3.39773 0.61210  12
  -3  -9   2 3.82731 0.69057  16
  -3  -9   2 3.24504 0.65502  15
  -3  -9   2 4.70029 0.68507  13
  -3  -9   2 3.64160 0.66490   9
  -3  -9   2 2.84450 0.72081   4
  -2  -9   2 19.1328 1.51078  10
  -2  -9   2 19.1441 1.43337  13
  -2  -9   2 17.1263 1.47087   9
  -2  -9   2 17.2116 1.61260  16
  -2  -9   2 19.0583 1.49595  12
  -2  -9   2 20.6229 1.69109  15
  -1  -9   2 137.179 8.27491  12
  -1  -9   2 138.564 8.19101  10
  -1  -9   2 132.860 8.34215  13
  -1  -9   2 138.729 8.40196   4
  -1  -9   2 136.177 8.41130  15
  -1  -9   2 132.957 8.25126   3
  -1  -9   2 121.868 8.28061   9
   0  -9   2 29.0121 2.06252   3
   0  -9   2 26.6395 2.04650   2
   0  -9   2 28.5918 2.06413  12
   0  -9   2 28.1932 1.97370  13
   0  -9   2 30.0199 2.01264  10
   0  -9   2 31.8429 2.30966  15
   1  -9   2 142.245 8.45611  10
   1  -9   2 148.712 8.69898  15
   1  -9   2 124.205 8.45543   2
   1  -9   2 142.303 8.53645  12
   1  -9   2 136.163 8.50051   3
   2  -9   2 38.9165 2.52401  10
   2  -9   2 37.4573 2.53398   2
   2  -9   2 39.3303 2.56045  12
   2  -9   2 37.9010 2.73203  15
   2  -9   2 35.4591 2.48873   3
   3  -9   2 1007.85 62.3382   2
   3  -9   2 1062.87 62.3810  12
   3  -9   2 1053.85 62.3072  10
  -4   9  -2 36.5785 2.67792   6
  -4   9  -2 42.4696 2.69572  16
   4  -9   2 40.8729 2.66624  10
   4  -9   2 39.3976 2.64436  12
  -5   9  -2 41.1020 2.79773   6
  -5   9  -2 39.5141 2.74139  16
   5  -9   2 40.7141 2.71231  10
  -6   9  -2 15.6464 1.91705   1
  -6   9  -2 17.9254 1.48454   6
  -6   9  -2 17.3589 1.52553  16
   6  -9   2 18.3667 1.46421  10
  -7   9  -2 67.2987 4.42055   6
  -7   9  -2 70.2478 4.62832   1
  -7   9  -2 70.0832 4.36601  16
   7  -9   2 69.3582 4.31848  10
  -8   9  -2 1.17755 0.41321  16
  -8   9  -2 0.87418 0.47206   1
   8  -9   2 0.77451 0.39949  10
  -5  -8   2 62.7013 4.21692   9
  -5  -8   2 61.7218 4.19391  15
  -5  -8   2 78.2123 4.34515   4
  -5  -8   2 65.6864 4.16475  16
  -5  -8   2 71.3382 4.17983  13
  -4  -8   2 1.39624 0.50312  12
  -4  -8   2 1.66377 0.51611   9
  -4  -8   2 2.31830 0.50475  13
  -4  -8   2 1.86836 0.92881  16
  -4  -8   2 1.64570 0.69148   4
  -4  -8   2 1.27345 0.53926  15
  -3  -8   2 48.5754 3.16857  15
  -3  -8   2 46.4925 3.08295  16
  -3  -8   2 43.3226 3.06495   9
  -3  -8   2 45.0123 2.96317  13
  -3  -8   2 45.7061 3.29113   4
  -3  -8   2 44.1043 2.99976  10
  -3  -8   2 44.5241 3.02285  12
  -2  -8   2 18.5265 1.48180   3
  -2  -8   2 17.6071 1.47131  12
  -2  -8   2 17.5878 1.53724   9
  -2  -8   2 19.2259 1.44453  13
  -2  -8   2 16.3340 1.90422   4
  -2  -8   2 19.8156 1.69167  15
  -2  -8   2 18.2422 1.48405  10
  -1  -8   2 140.726 8.40625  15
  -1  -8   2 128.189 8.46648   9
  -1  -8   2 132.156 8.18764  13
  -1  -8   2 130.663 8.16846  10
  -1  -8   2 137.447 8.26547   3
  -1  -8   2 134.351 8.25797  12
   0  -8   2 991.908 55.5148  12
   0  -8   2 866.967 55.3883  10
   0  -8   2 841.395 55.4322   2
   0  -8   2 923.409 55.4209  13
   0  -8   2 1005.48 55.6433  15
   0  -8   2 928.855 55.4903   3
   1  -8   2 91.6964 5.96375   3
   1  -8   2 102.114 6.13124  15
   1  -8   2 88.9978 5.93465   2
   1  -8   2 94.0034 5.91801  10
   1  -8   2 104.330 6.01003  12
  -2   8  -2 24.9413 2.02986   5
   2  -8   2 22.4733 1.64251  12
   2  -8   2 19.8420 1.61071  10
   2  -8   2 25.5142 1.81628  15
   2  -8   2 18.2091 1.60043   3
   2  -8   2 22.9340 1.67243   2
  -3   8  -2 362.716 23.3259   6
  -3   8  -2 383.640 23.1326  16
   3  -8   2 373.911 23.1191  10
   3  -8   2 418.801 23.2119  12
  -4   8  -2 390.024 23.3065   6
   4  -8   2 380.924 23.2180  12
  -5   8  -2 99.9921 6.15201  16
  -5   8  -2 100.902 6.28283   6
   5  -8   2 94.9007 6.13065  12
   5  -8   2 99.7498 6.15068  10
  -6   8  -2 30.1891 2.13875  16
  -6   8  -2 28.7404 2.20260   6
  -6   8  -2 29.1492 2.33633   4
   6  -8   2 26.2329 2.12148  12
   6  -8   2 29.4640 2.16250  10
  -7   8  -2 127.882 7.76061  16
  -7   8  -2 126.197 7.88398   4
  -7   8  -2 129.715 7.89845   6
  -7   8  -2 122.922 7.73138  11
   7  -8   2 124.037 7.73142  10
  -8   8  -2 50.7925 3.43106  11
  -8   8  -2 55.8218 3.39832  16
  -8   8  -2 53.9408 3.47266   6
  -8   8  -2 53.5180 3.60569   1
   8  -8   2 51.1491 3.32736  10
  -9   8  -2 29.2651 1.83367  16
  -9   8  -2 27.2201 1.86777   1
  -6  -7   2 64.8203 3.64794   4
  -6  -7   2 53.6408 3.53293   9
  -6  -7   2 57.2265 3.47474  13
  -6  -7   2 49.6438 3.47778  16
  -5  -7   2 9.18206 1.06347  10
  -5  -7   2 12.4796 1.21344  15
  -5  -7   2 13.0442 1.56017   4
  -5  -7   2 10.8826 1.12266   9
  -5  -7   2 11.9457 1.02907  13
  -4  -7   2 48.3598 3.19021  16
  -4  -7   2 43.9781 3.18127   9
  -4  -7   2 48.5942 3.07370  13
  -4  -7   2 46.6114 3.18865  15
  -4  -7   2 46.6090 3.38898   4
  -4  -7   2 48.1504 3.09951  10
  -4  -7   2 46.4485 3.11002  12
  -3  -7   2 323.612 19.5160  10
  -3  -7   2 319.640 19.5768   3
  -3  -7   2 331.404 19.5901  16
  -3  -7   2 328.007 19.5847  12
  -3  -7   2 331.683 19.6933  15
  -3  -7   2 315.146 19.6652   9
  -3  -7   2 310.262 19.6783   4
  -3  -7   2 332.061 19.5502  13
  -2  -7   2 177.749 10.2252  12
  -2  -7   2 162.786 10.1509  13
  -2  -7   2 158.740 10.2709   9
  -2  -7   2 167.450 10.2132   3
  -2  -7   2 175.557 10.3402  15
  -2  -7   2 171.332 10.5200   4
  -2  -7   2 153.774 10.1094  10
  -1  -7   2 18.9665 1.57650  15
  -1  -7   2 17.1995 1.59991   9
  -1  -7   2 16.4855 1.34216  13
  -1  -7   2 17.4096 1.41939   3
  -1  -7   2 16.6542 1.31764  10
  -1  -7   2 19.9556 1.43784  12
   0   7  -2 132.197 8.27268   5
   0  -7   2 126.344 8.12559   3
   0  -7   2 139.040 8.32184  15
  -1   7  -2 22.3651 1.79057   5
   1  -7   2 21.5499 1.55168  10
   1  -7   2 23.6445 1.60534  12
   1  -7   2 20.3144 1.77088   5
  -2   7  -2 6.96751 0.95805   5
   2  -7   2 5.87403 0.85061  10
   2  -7   2 7.41402 0.77751  14
  -3   7  -2 1193.04 73.4426  16
   3  -7   2 1211.44 73.5049  14
   3  -7   2 1274.07 73.5971   5
   3  -7   2 1234.17 73.4805  12
  -4   7  -2 51.5526 3.50728   4
  -4   7  -2 51.1370 3.35207  16
  -4   7  -2 52.8256 3.47726   6
   4  -7   2 51.8401 3.57003   5
   4  -7   2 49.8027 3.31412  12
  -5   7  -2 50.9941 3.46058   4
  -5   7  -2 41.9284 3.17488  11
  -5   7  -2 49.3322 3.36595   6
  -5   7  -2 52.3594 3.29914  16
   5  -7   2 48.7038 3.15698  12
  -6   7  -2 759.377 43.6702   4
  -6   7  -2 738.573 43.7255   6
  -6   7  -2 760.038 43.5550  16
  -6   7  -2 692.214 43.5558  11
   6  -7   2 680.067 43.5195  12
  -7   7  -2 4.74307 1.07564   1
  -7   7  -2 5.70324 1.10443  11
  -7   7  -2 7.84586 1.23097  16
  -7   7  -2 5.85025 1.05873   6
  -7   7  -2 7.45242 1.48789   4
  -8   7  -2 11.7178 1.46616  11
  -8   7  -2 12.4919 1.44086   4
  -8   7  -2 12.6510 1.28873  16
  -8   7  -2 10.3375 1.21240   6
  -8   7  -2 10.1663 1.46665   1
  -9   7  -2 194.540 11.0916  11
  -9   7  -2 206.431 11.1236  16
  -9   7  -2 177.596 11.1061   1
   9  -7   2 157.316 11.0527  10
  -7  -6   2 101.071 5.48743   4
  -7  -6   2 81.3352 5.37969  13
  -7  -6   2 84.6874 5.44862   9
  -6  -6   2 68.6570 4.55499  15
  -6  -6   2 68.6862 4.62560  13
  -6  -6   2 75.7569 4.73784   9
  -6  -6   2 80.9582 4.61099  16
  -5  -6   2 0.35089 0.46668  10
  -5  -6   2 1.24942 0.56354  15
  -5  -6   2 0.87007 0.55431   9
  -5  -6   2 0.86455 0.64487  16
  -5  -6   2 0.44218 0.51253  12
  -5  -6   2 0.47250 0.69854   4
  -5  -6   2 1.69218 0.54677  13
  -4  -6   2 220.809 13.4986  16
  -4  -6   2 219.756 13.5864   9
  -4  -6   2 220.610 13.4338  10
  -4  -6   2 209.939 13.6074   4
  -4  -6   2 236.719 13.5096  12
  -4  -6   2 218.957 13.4443  13
  -4  -6   2 225.213 13.5792  15
  -3  -6   2 519.440 29.4420  15
  -3  -6   2 456.901 29.2434  10
  -3  -6   2 481.742 29.3214   3
  -3  -6   2 527.995 29.3430  12
  -3  -6   2 494.339 29.2939  13
  -3  -6   2 492.501 29.3279  16
  -3  -6   2 443.796 29.3894   4
  -3  -6   2 484.278 29.4244   9
   2   6  -2 101.728 6.69798   5
  -2  -6   2 110.710 6.66381  13
  -2  -6   2 115.180 6.98374   9
  -2  -6   2 108.413 6.75483  15
  -2  -6   2 100.632 6.63832   3
  -2  -6   2 108.921 6.64640  12
   1   6  -2 251.107 15.2429   5
   0   6  -2 490.038 26.9466   5
   0   6  -2 433.240 26.8291  17
   0  -6   2 418.015 26.8164  17
  -1   6  -2 81.1649 5.20495  17
  -1   6  -2 81.6656 5.06583  17
  -1   6  -2 80.8560 5.06747   5
   1  -6   2 74.4436 4.96083  17
   1  -6   2 82.7070 4.92102  14
   1  -6   2 82.7482 5.08338   5
   1  -6   2 80.4564 5.04818  17
  -2   6  -2 2917.21 178.194  17
  -2   6  -2 2976.23 178.282   5
  -2   6  -2 3006.58 178.225  17
   2  -6   2 2983.03 178.222  17
   2  -6   2 2915.79 178.198  17
   2  -6   2 3106.13 178.303   5
  -3   6  -2 183.720 11.1444   5
   3  -6   2 175.249 11.0787  14
   3  -6   2 187.830 11.1405   5
  -4   6  -2 15.7522 1.43021   6
  -4   6  -2 14.6720 1.32340  16
  -4   6  -2 15.6964 1.52947   4
   4  -6   2 16.8684 1.40521   5
   4  -6   2 15.3269 1.33187  14
  -5   6  -2 172.304 11.7483  11
  -5   6  -2 199.297 11.7503  16
  -5   6  -2 205.525 11.9179   6
  -5   6  -2 198.117 11.8685   4
   5  -6   2 189.686 11.7307  12
  -6   6  -2 56.1293 3.94146   4
  -6   6  -2 56.0045 3.80123  11
  -6   6  -2 57.9980 3.77693  16
  -6   6  -2 59.6599 3.94047   6
   6  -6   2 55.9886 3.70294  12
  -7   6  -2 99.1501 6.58892   1
  -7   6  -2 102.205 6.50030   4
  -7   6  -2 110.776 6.45128  11
  -7   6  -2 102.755 6.48565   6
  -7   6  -2 104.459 6.36085  16
   7  -6   2 86.8111 6.24315  12
  -8   6  -2 99.5234 6.62346   1
  -8   6  -2 106.759 6.62744   6
  -8   6  -2 104.398 6.66842   4
  -8   6  -2 105.451 6.53248  16
  -8   6  -2 107.790 6.57124  11
  -9   6  -2 72.1315 4.27074  16
  -9   6  -2 62.0761 4.19434   1
  -9   6  -2 69.1832 4.32838   4
  -9   6  -2 75.9215 4.29037  11
   9  -6   2 61.9575 4.16816  10
  -7  -5   2 102.860 5.95360  16
  -7  -5   2 87.9785 5.96844   9
  -7  -5   2 92.9936 5.88975  13
  -7  -5   2 103.232 6.07144   4
  -6  -5   2 128.555 7.65199  16
  -6  -5   2 131.960 7.83515   4
  -6  -5   2 114.312 7.61136  15
  -6  -5   2 118.742 7.70341   9
  -6  -5   2 126.265 7.58639  13
  -5  -5   2 79.3833 5.17259  15
  -5  -5   2 81.2435 5.38732   4
  -5  -5   2 76.8917 5.06338  10
  -5  -5   2 82.2582 5.07789  13
  -5  -5   2 80.8169 5.21539   9
  -5  -5   2 85.8801 5.13461  12
  -5  -5   2 80.7527 5.17254  16
  -4  -5   2 530.522 34.1977   4
  -4  -5   2 577.731 34.1793  15
  -4  -5   2 566.187 34.0674  13
  -4  -5   2 556.858 34.0989  16
  -4  -5   2 546.361 34.0389  10
  -4  -5   2 570.911 34.2020   9
  -4  -5   2 624.916 34.1289  12
   3   5  -2 209.923 12.7671   5
  -3  -5   2 203.708 12.7027  16
  -3  -5   2 194.325 12.6317  10
  -3  -5   2 239.921 12.9476   9
  -3  -5   2 175.751 12.8223  12
  -3  -5   2 214.893 12.6864  13
  -3  -5   2 210.280 13.0000   4
  -3  -5   2 225.516 12.7395   3
   2   5  -2 9.44317 0.93824   5
  -2  -5   2 8.72714 0.75322  17
   1   5  -2 12.9935 0.95298  17
   1   5  -2 12.0360 1.09424   5
   1   5  -2 13.7921 1.10857   5
  -1  -5   2 12.8012 0.92770  17
   0   5  -2 13.7917 1.01544  17
   0   5  -2 15.8960 1.27027  17
   0   5  -2 14.7060 1.15532   5
   0   5  -2 12.6257 1.13908   5
   0  -5   2 13.8921 1.27372  17
   0  -5   2 14.0731 1.09126   5
   0  -5   2 14.1745 1.02087  17
  -1   5  -2 571.063 33.8593  17
  -1   5  -2 555.431 33.9085   5
  -1   5  -2 568.501 33.8475  17
   1  -5   2 558.620 33.8490  17
   1  -5   2 571.003 33.8331  14
   1  -5   2 575.711 33.8569  17
   1  -5   2 557.798 33.9050   5
  -2   5  -2 65.1542 4.21594  17
  -2   5  -2 68.2204 4.24221  17
  -2   5  -2 67.2958 4.29924   5
   2  -5   2 67.9571 4.23173  17
   2  -5   2 72.4889 4.26987  14
   2  -5   2 70.9092 4.31990   5
   2  -5   2 68.6917 4.24629  17
  -3   5  -2 446.978 28.3489  17
  -3   5  -2 476.570 28.3337  17
  -3   5  -2 461.363 28.3858   5
   3  -5   2 470.851 28.3412  17
   3  -5   2 482.858 28.4059  14
   3  -5   2 485.483 28.4157   5
   3  -5   2 485.975 28.3721  17
   4  -5   2 44.2963 3.07493  14
   4  -5   2 49.2385 3.06168   5
  -5   5  -2 90.0361 5.63966  16
  -5   5  -2 83.4570 5.84245   7
  -5   5  -2 92.9183 5.77289   4
   5  -5   2 93.1713 5.63418   5
  -6   5  -2 31.7494 2.50595  11
   6  -5   2 32.4836 2.21267  12
  -7   5  -2 3.62967 0.74284   6
  -7   5  -2 1.55219 0.76869   1
  -7   5  -2 4.05652 0.89325  11
  -7   5  -2 2.47595 0.75184  16
   7  -5   2 2.96178 0.59342  12
  -8   5  -2 46.8141 3.27636  11
  -8   5  -2 47.6374 3.25973   6
  -8   5  -2 45.8035 3.21199   1
  -8   5  -2 47.6321 3.23582  16
  -8   5  -2 47.7781 3.42492   4
  -9   5  -2 53.5287 3.49033  16
  -9   5  -2 57.7661 3.52968  11
  -9   5  -2 51.9288 3.59522   4
  -8  -4   2 77.5827 4.46781   4
  -8  -4   2 64.6377 4.38910   9
  -7  -4   2 59.8161 3.90982  13
  -7  -4   2 60.8938 4.03030   9
  -7  -4   2 65.1137 4.41936  16
  -7  -4   2 65.2405 4.18276   4
  -6  -4   2 0.86538 0.46631  13
  -6  -4   2 2.15445 0.98233  16
  -6  -4   2 1.06718 0.66894  15
  -6  -4   2 1.14798 0.71818   4
  -6  -4   2 0.99635 0.52311   9
  -5  -4   2 66.7841 4.82433   4
  -5  -4   2 72.9829 4.95043  15
  -5  -4   2 71.1013 4.53251  13
  -5  -4   2 69.8634 4.78755  16
  -5  -4   2 72.1978 4.69274   9
  -5  -4   2 79.5033 4.69127  12
  -4  -4   2 39.5087 2.68561   9
  -4  -4   2 38.4745 2.51920   3
  -4  -4   2 32.6984 2.48559  10
  -4  -4   2 36.2475 2.79301   4
  -4  -4   2 40.1333 2.64973  15
  -4  -4   2 42.3321 2.56823  12
  -4  -4   2 35.9713 2.50873  13
   3   4  -2 66.9478 4.10881   5
   3   4  -2 65.4415 4.10904   5
   2   4  -2 1.57529 0.33288   5
   2   4  -2 2.08612 0.28529  17
   2   4  -2 1.93068 0.35675   5
   2   4  -2 1.49245 0.36422  17
  -2  -4   2 1.44535 0.26969  17
  -2  -4   2 1.50922 0.37480  17
   1   4  -2 4.83071 0.49467  17
   1   4  -2 4.48622 0.47202  17
   1   4  -2 4.40383 0.63092   5
   1   4  -2 4.41080 0.56407   5
  -1  -4   2 4.98092 0.46990  17
  -1  -4   2 4.33153 0.45838  17
   0   4  -2 1.75987 0.35428   5
   0   4  -2 1.70030 0.34036   5
   0   4  -2 1.63522 0.27769  17
   0   4  -2 1.99923 0.30889  17
   0  -4   2 1.92599 0.34652  14
   0  -4   2 1.70965 0.28513  17
   0  -4   2 1.81339 0.29503  17
   0  -4   2 1.49134 0.31030   5
  -1   4  -2 8.50822 0.82575   5
  -1   4  -2 8.93618 0.72211  17
  -1   4  -2 9.53868 0.75865  17
   1  -4   2 9.02320 0.82697   5
   1  -4   2 8.97745 0.72973  17
   1  -4   2 10.1514 0.76814  14
   1  -4   2 9.90717 0.75233  17
  -2   4  -2 669.634 41.2818   5
  -2   4  -2 684.709 41.2511  17
  -2   4  -2 732.036 41.2740   8
  -2   4  -2 683.536 41.2330  17
   2  -4   2 685.954 41.3452   5
   2  -4   2 671.033 41.2734  14
   2  -4   2 703.838 41.2446  17
   2  -4   2 675.041 41.2929   5
   2  -4   2 701.386 41.2536  17
  -3   4  -2 236.861 14.4362   5
  -3   4  -2 225.823 14.4026  17
  -3   4  -2 234.789 14.3783  17
  -3   4  -2 248.170 14.3856   8
   3  -4   2 246.133 14.4182  17
   3  -4   2 236.523 14.3874  17
   3  -4   2 238.974 14.4626  14
   3  -4   2 248.649 14.4590   5
   4  -4   2 228.734 13.6867  14
   4  -4   2 234.778 13.6428   5
   4  -4   2 213.362 13.5958  17
  -5   4  -2 30.3798 2.14092   6
  -5   4  -2 25.3499 1.99625  16
  -5   4  -2 29.2186 2.30559   4
  -5   4  -2 27.8913 2.70135   7
  -5   4  -2 23.4687 2.01348  11
  -6   4  -2 112.994 7.07886  16
  -6   4  -2 105.942 7.30505   7
  -6   4  -2 114.316 7.23439   4
  -6   4  -2 113.709 7.16643  11
  -6   4  -2 121.726 7.24275   6
  -6   4  -2 112.493 7.22602   1
  -7   4  -2 308.762 19.4833   1
  -7   4  -2 319.570 19.6227   7
  -7   4  -2 324.387 19.5300   4
  -7   4  -2 319.576 19.4839  11
  -7   4  -2 317.114 19.3887  16
  -7   4  -2 331.995 19.5480   6
  -8   4  -2 120.459 7.16238  16
  -8   4  -2 124.127 7.25574  11
  -8   4  -2 116.747 7.20612   6
  -8   4  -2 120.709 7.30597   4
  -8   4  -2 109.437 7.09724   1
   8  -4   2 96.7597 7.11641  12
  -9   4  -2 272.055 16.9070   4
  -9   4  -2 282.234 16.8518  16
  -9   4  -2 284.758 16.8984  11
  -8  -3   2 113.609 6.38579  16
  -8  -3   2 100.185 6.38901   9
  -8  -3   2 89.7142 6.26722  13
  -8  -3   2 112.353 6.49090   4
  -7  -3   2 202.564 12.6993  13
  -7  -3   2 215.217 12.7873  16
  -7  -3   2 213.019 12.8384   9
  -7  -3   2 210.406 12.9078   4
  -6  -3   2 173.505 10.3497  13
  -6  -3   2 167.475 10.5721   4
  -6  -3   2 182.766 10.5156   9
  -6  -3   2 165.672 10.4081  16
  -6  -3   2 161.149 10.4033  15
  -5  -3   2 240.770 15.3201   4
  -5  -3   2 254.129 15.2370  15
  -5  -3   2 241.598 15.1849  16
  -5  -3   2 223.915 15.1069  10
  -5  -3   2 259.784 15.2819   9
  -5  -3   2 246.863 15.1353  13
  -5  -3   2 287.539 15.2164  12
   3   3  -2 82.3759 4.82278   5
   3   3  -2 75.7327 4.81006   5
   2   3  -2 1.85906 0.30870   5
   2   3  -2 1.98635 0.29656   5
   2   3  -2 2.10627 0.29412  17
   2   3  -2 2.28663 0.31356  17
  -2  -3   2 2.22686 0.30024  17
  -2  -3   2 2.40432 0.29269  17
   1   3  -2 850.890 51.1316   5
   1   3  -2 854.267 51.0922  17
   1   3  -2 878.005 51.1003  17
   1   3  -2 814.768 51.1386   5
  -1  -3   2 861.395 51.0947  17
  -1  -3   2 873.514 51.0960  17
   0   3  -2 6.73443 0.61417  14
   0   3  -2 7.39399 0.60444  17
   0   3  -2 5.78821 0.65680   5
   0   3  -2 7.16715 0.55793  17
   0   3  -2 5.98105 0.64178   5
   0  -3   2 6.80024 0.79145   5
   0  -3   2 6.97069 0.88178   5
   0  -3   2 8.29016 0.56380  14
   0  -3   2 7.28491 0.57203  17
   0  -3   2 7.42458 0.58919  17
  -1   3  -2 693.630 41.8014   5
  -1   3  -2 703.405 41.7733  17
  -1   3  -2 686.193 41.8122  14
  -1   3  -2 676.670 41.8569   5
  -1   3  -2 698.481 41.7627  17
  -1   3  -2 703.677 41.7878   8
   1  -3   2 685.828 41.7789  14
   1  -3   2 694.358 41.8030   5
   1  -3   2 710.748 41.7677  17
   1  -3   2 732.734 41.7777  17
   1  -3   2 703.151 41.8912   5
  -2   3  -2 9.70368 0.70294   8
  -2   3  -2 8.99930 0.68086  17
  -2   3  -2 9.14264 0.74303   5
  -2   3  -2 8.94138 0.75449  17
   2  -3   2 8.40438 0.78467   5
   2  -3   2 9.39923 0.68846  17
   2  -3   2 8.77750 0.72903  17
   2  -3   2 8.85822 0.81167  14
   2  -3   2 9.20012 0.78609   5
  -3   3  -2 110.093 6.61397  17
   3  -3   2 109.443 6.67669  14
   3  -3   2 103.409 6.68389   5
   3  -3   2 110.774 6.64352   5
   3  -3   2 110.675 6.59266  17
   3  -3   2 110.496 6.61714  17
  -4   3  -2 42.6949 2.65604  17
   4  -3   2 41.9647 2.88459   5
   4  -3   2 43.3802 2.72140  17
   4  -3   2 44.9091 2.82921  14
  -5   3  -2 264.823 16.1007   4
  -5   3  -2 233.250 16.1226   7
  -5   3  -2 299.372 16.1796   6
  -5   3  -2 254.457 15.9846  16
  -5   3  -2 249.262 16.0526  11
   5  -3   2 272.458 16.0313  14
   5  -3   2 278.071 15.9339   5
  -6   3  -2 101.562 6.60727  16
  -6   3  -2 108.484 6.78279   4
  -6   3  -2 115.010 6.77942   6
  -6   3  -2 103.375 6.71516  11
  -6   3  -2 105.214 6.70793   1
  -6   3  -2 101.762 6.87028   7
  -7   3  -2 331.016 20.7477  16
  -7   3  -2 349.229 20.8685  11
  -7   3  -2 333.754 20.7689   1
  -7   3  -2 358.273 20.8973   6
  -7   3  -2 341.090 20.9768   7
  -7   3  -2 346.030 20.8927   4
  -8   3  -2 426.361 25.5571  11
  -8   3  -2 430.239 25.4795  16
  -8   3  -2 436.362 25.5950   4
  -8   3  -2 398.381 25.4851   6
  -9   3  -2 22.5111 1.80272  16
  -9   3  -2 26.4356 1.86392  11
  -9   3  -2 22.3616 1.91138   4
  -9  -2   2 78.2372 5.02390   4
  -8  -2   2 201.525 13.3060  13
  -8  -2   2 240.565 13.4217   9
  -7  -2   2 68.4083 5.30552  16
  -7  -2   2 80.6092 5.06881   9
  -7  -2   2 73.5393 4.78821  11
  -7  -2   2 72.8960 5.62465   4
  -7  -2   2 80.4939 4.77576  13
  -6  -2   2 85.4799 5.34388  11
  -6  -2   2 81.7542 5.51122  13
  -6  -2   2 86.9092 5.34697  15
  -5  -2   2 259.611 16.3864  15
  -5  -2   2 258.828 16.2784  16
  -5  -2   2 266.356 16.2370  13
  -5  -2   2 292.685 16.6174   9
   4   2  -2 252.792 15.2253   8
   2   2  -2 31.4575 2.01143   5
   2   2  -2 32.3709 1.98427   5
   1   2  -2 31.1589 2.04107   5
   1   2  -2 31.0563 2.04002   5
   1   2  -2 34.2398 2.01508  17
   1   2  -2 34.6197 2.00407  17
  -1  -2   2 29.1311 2.02150   5
  -1  -2   2 34.3899 2.00810  17
  -1  -2   2 34.2271 2.01190  17
  -1  -2   2 33.6282 2.01746   5
   0   2  -2 1330.24 75.4880  17
   0   2  -2 1224.83 75.5118   5
   0  -2   2 1321.67 75.4853  17
   0  -2   2 1181.08 75.5055   5
  -2   2  -2 20.4197 1.27482  17
  -2   2  -2 18.7441 1.37336  14
   2  -2   2 20.9395 1.27290  17
   2  -2   2 19.5973 1.23996  17
   2  -2   2 18.4883 1.30813   5
   2  -2   2 19.0080 1.29425   5
   2  -2   2 18.8998 1.32680  14
  -3   2  -2 138.977 8.05564  17
  -3   2  -2 127.992 8.05138   5
  -3   2  -2 130.662 8.01815  17
   3  -2   2 139.157 8.07184   5
   3  -2   2 128.481 8.10118   5
   3  -2   2 131.655 8.02538  17
   3  -2   2 136.535 8.05259  17
   3  -2   2 134.810 8.11001  14
  -4   2  -2 271.462 17.7279  17
   4  -2   2 308.869 17.9182   5
   4  -2   2 295.279 17.8643   5
   4  -2   2 309.301 17.8516  14
   4  -2   2 296.485 17.7695  17
  -5   2  -2 148.082 9.33254   4
  -5   2  -2 139.852 9.39085   7
  -5   2  -2 140.524 9.21209  16
  -5   2  -2 141.739 9.33044   2
  -5   2  -2 148.739 9.31754  11
   5  -2   2 173.916 9.46249  14
   5  -2   2 162.635 9.13771   5
  -6   2  -2 690.973 38.5514   9
  -6   2  -2 703.035 38.6505   6
  -6   2  -2 562.101 38.5626   1
  -6   2  -2 630.755 38.5942   4
  -6   2  -2 612.469 38.6595   7
  -6   2  -2 637.024 38.5039  16
  -6   2  -2 651.645 38.5996  11
  -7   2  -2 215.510 14.0511   9
  -7   2  -2 233.757 14.2004   4
  -7   2  -2 243.360 14.2033  11
  -7   2  -2 234.603 14.3028   7
  -7   2  -2 220.490 14.0512  16
  -7   2  -2 237.395 14.1437   6
  -8   2  -2 8.17900 1.68030   4
  -8   2  -2 10.0892 1.45052  11
  -8   2  -2 11.3069 1.40489  16
  -9   2  -2 2.04670 0.71550  11
  -9   2  -2 2.29289 0.54354  16
  -9  -1   2 4.62863 0.67223  16
  -9  -1   2 3.81197 0.85346   4
  -8  -1   2 29.0432 2.18728   9
  -8  -1   2 33.3832 2.48790   4
  -8  -1   2 29.1470 2.20390  11
  -8  -1   2 35.3961 2.31666  16
  -7  -1   2 548.544 34.7021   4
  -7  -1   2 539.395 34.5104  13
  -7  -1   2 575.785 34.6163  11
  -7  -1   2 620.580 34.6796   9
  -7  -1   2 596.123 34.6192  16
  -6  -1   2 249.340 16.0750   1
  -6  -1   2 304.708 16.2198   9
  -6  -1   2 260.954 16.0995  16
  -6  -1   2 247.263 16.1900   4
  -6  -1   2 263.015 16.0427  13
  -6  -1   2 259.391 16.1245  11
  -6  -1   2 278.856 16.1447  15
   5   1  -2 467.322 28.9546  14
   5   1  -2 498.643 28.9600   8
   4   1  -2 181.810 10.5262   8
   4   1  -2 166.944 10.5282  14
   3   1  -2 49.3397 3.18517  14
   3   1  -2 53.4647 3.17726   8
   1   1  -2 364.833 21.5554  17
   1   1  -2 380.450 21.5511  17
   1   1  -2 362.927 21.5679   5
   1   1  -2 335.106 21.5646   5
  -1  -1   2 365.869 21.5591   5
  -1  -1   2 372.774 21.5545  17
  -1  -1   2 373.853 21.5522  17
  -1  -1   2 331.274 21.5648   5
  -1   1  -2 894.928 50.6317  17
  -1   1  -2 819.728 50.6554   5
  -1   1  -2 832.603 50.6429   5
  -1   1  -2 876.817 50.6692  14
  -1   1  -2 839.067 50.6202  17
  -1   1  -2 771.040 50.6114   8
   1  -1   2 890.888 50.6290  17
   1  -1   2 824.917 50.6516   5
   1  -1   2 881.388 50.6241  17
  -2   1  -2 81.3192 4.54103  17
  -2   1  -2 72.2735 4.48173  17
  -2   1  -2 67.0420 4.50415   5
   2  -1   2 75.7514 4.54654  14
   2  -1   2 74.2022 4.48783  17
   2  -1   2 74.1176 4.51802   5
   2  -1   2 72.0274 4.53412   5
   2  -1   2 78.8513 4.50306  17
  -3   1  -2 2047.24 118.737  17
  -3   1  -2 1932.09 118.714  17
  -3   1  -2 1847.29 118.744   5
   3  -1   2 1962.28 118.787   5
   3  -1   2 1983.46 118.752   5
   3  -1   2 2007.35 118.784  14
   3  -1   2 2120.66 118.743  17
   3  -1   2 2010.76 118.717  17
   4  -1   2 25.7256 1.71108   5
   4  -1   2 25.1746 1.67269   5
   4  -1   2 24.5613 1.78583  14
  -5   1  -2 42.7963 2.82870   9
  -5   1  -2 35.7737 3.04336   7
   5  -1   2 40.8859 2.76343  14
  -6   1  -2 170.414 10.1373   9
  -6   1  -2 156.277 10.3029  16
  -6   1  -2 165.328 10.1507   6
  -7   1  -2 14.7968 1.67414  16
  -7   1  -2 15.5750 1.79784   4
  -7   1  -2 16.3284 1.81050  11
  -8   1  -2 0.38076 0.74520  11
  -8   1  -2 0.90738 0.67121   4
  -8   1  -2 1.32517 0.47388   9
  -8   1  -2 1.85481 0.65101  16
  -9   1  -2 95.0192 5.81471   4
  -9   1  -2 89.8359 5.74360  11
  -9   1  -2 97.8999 5.76717  16
  -9   0   2 267.114 16.6662  11
  -9   0   2 288.340 16.6852  16
  -9   0   2 275.448 16.7367   4
  -8   0   2 25.6160 1.98463  11
  -8   0   2 23.9640 2.17142   4
  -8   0   2 28.4143 2.03743  16
  -7   0   2 222.693 13.1331  16
  -7   0   2 205.209 13.2099   4
  -7   0   2 204.817 13.0668   1
  -7   0   2 228.899 13.1591   9
  -7   0   2 216.793 13.1548  11
  -6   0   2 228.533 13.3900  16
  -6   0   2 226.185 13.3325  13
  -6   0   2 222.568 13.4314  11
  -6   0   2 209.766 13.4918   1
  -6   0   2 216.106 13.4761   4
   5   0  -2 39.0371 2.40837   8
   5   0  -2 36.9149 2.53756  14
   4   0  -2 2038.01 122.656  14
   4   0  -2 2067.80 122.593   8
   0   0  -2 3.55131 0.32635  14
   0   0  -2 3.03801 0.29219  17
   0   0  -2 3.32332 0.33490  17
   0   0  -2 3.66907 0.35714   5
   0   0  -2 3.31940 0.33819   8
   0   0  -2 2.56899 0.33657   5
   0   0   2 3.52903 0.31302  17
   0   0   2 2.93214 0.31776   5
   0   0   2 3.66078 0.34208  14
  -1   0  -2 139.738 8.48057  17
  -1   0  -2 146.365 8.52371  14
  -1   0  -2 138.645 8.48295   8
  -1   0  -2 144.752 8.48747  17
  -1   0  -2 134.064 8.50444   5
   1   0   2 144.960 8.48191  17
   1   0   2 135.860 8.52908   5
   1   0   2 145.727 8.49837  14
   1   0   2 144.445 8.48361  17
   1   0   2 139.699 8.50068   5
   1   0   2 142.582 8.47998   8
  -2   0  -2 850.468 51.1436  17
  -2   0  -2 823.918 51.2104  14
  -2   0  -2 872.429 51.1507  17
   2   0   2 832.392 51.1713  14
   2   0   2 887.697 51.1484  17
   2   0   2 871.625 51.1439  17
  -3   0  -2 1402.78 90.8305  17
  -3   0  -2 1452.18 90.7785   5
  -3   0  -2 1438.06 90.7505  17
   3   0   2 1593.63 90.7903   5
   3   0   2 1582.74 90.8258   5
   3   0   2 1633.44 90.7676  17
   3   0   2 1537.60 90.7935  14
   4   0   2 83.3815 5.00539   5
   4   0   2 80.1188 5.03766  14
  -5   0  -2 114.487 7.64251   4
  -5   0  -2 136.432 7.61468   9
  -5   0  -2 120.137 7.56620  16
  -5   0  -2 118.881 7.94455   7
  -5   0  -2 119.791 7.63617  11
  -5   0  -2 122.243 7.71117   2
   5   0   2 122.780 7.43351   5
  -6   0  -2 34.1362 2.55510  16
  -6   0  -2 32.1904 2.85924   7
  -6   0  -2 33.6545 2.74941   2
  -6   0  -2 37.7587 2.49049   9
  -6   0  -2 31.2433 2.70660   4
  -6   0  -2 35.6623 2.63310  11
  -7   0  -2 0.75424 0.74289   7
  -7   0  -2 -0.4220 0.48061   9
  -7   0  -2 0.29814 0.73345  16
  -7   0  -2 0.23969 0.66690   4
  -7   0  -2 -0.1781 0.79511  11
  -8   0  -2 192.864 11.4406  11
  -8   0  -2 163.840 11.3790   9
  -8   0  -2 201.143 11.6043   4
  -8   0  -2 193.690 11.4618  16
  -9   1   2 20.2715 1.56169  11
  -9   1   2 18.7129 1.56286  16
  -9   1   2 17.1430 1.64677   4
  -8   1   2 8.57085 1.22588  16
  -8   1   2 6.99576 1.37276   4
  -8   1   2 9.10055 1.20778  11
  -7   1   2 2.46721 0.62277   4
  -7   1   2 3.29277 0.67521  16
  -7   1   2 2.75607 0.64091   1
  -7   1   2 3.42306 0.74127  11
  -6   1   2 0.86681 0.47964  16
  -6   1   2 0.37248 0.53656  11
  -6   1   2 -0.5581 0.37423   6
   5  -1  -2 1096.06 65.2188   8
   5  -1  -2 1086.53 65.3486  14
   4  -1  -2 917.648 54.3251   8
   4  -1  -2 899.933 54.4147  14
   3  -1  -2 308.323 18.7737   5
   3  -1  -2 313.709 18.8613  14
   3  -1  -2 318.921 18.8011   8
   2  -1  -2 14.1534 1.00852   8
   2  -1  -2 15.6477 0.99294   5
   2  -1  -2 15.6826 0.92670  17
   2  -1  -2 13.2296 0.93921   5
   2  -1  -2 14.9763 0.93318  17
  -2   1   2 14.0003 0.92596   5
  -2   1   2 13.4384 0.95788   5
  -2   1   2 14.7832 0.93237  17
  -2   1   2 13.4580 0.96990   8
  -2   1   2 15.2100 0.91454  17
   1  -1  -2 511.507 29.7579  17
   1  -1  -2 515.017 29.7625  17
   1  -1  -2 500.470 29.7861   5
   1  -1  -2 483.009 29.7843   8
  -1   1   2 511.054 29.7633  17
  -1   1   2 476.458 29.7742   5
  -1   1   2 512.499 29.7562  17
  -1   1   2 478.163 29.7798   8
  -1   1   2 495.566 29.7844   5
   0  -1  -2 633.903 36.5825  17
   0  -1  -2 602.243 36.5993   8
   0  -1  -2 596.866 36.6065   5
   0  -1  -2 569.067 36.5925   5
   0  -1  -2 652.988 36.5792  17
   0  -1  -2 631.086 36.5827  14
   0   1   2 614.694 36.5967   8
   0   1   2 647.289 36.5839  17
   0   1   2 573.899 36.5968  17
   0   1   2 614.405 36.6036   5
   0   1   2 600.136 36.6006   5
  -2  -1  -2 869.159 52.2752  17
  -2  -1  -2 824.183 52.3128   5
  -2  -1  -2 854.781 52.2773  17
  -2  -1  -2 899.003 52.3353  14
   2   1   2 923.436 52.2852  17
   2   1   2 939.106 52.2751  17
   2   1   2 829.640 52.2745  14
   2   1   2 810.349 52.2749   8
   2   1   2 900.626 52.3101   5
   2   1   2 901.978 52.3240   5
  -3  -1  -2 9.26837 1.03200  14
  -3  -1  -2 7.18072 0.62073  17
   3   1   2 7.83658 0.75109   5
   4   1   2 231.821 14.9658  14
   4   1   2 266.994 15.0333   5
  -5  -1  -2 3.88896 0.57888  13
  -5  -1  -2 4.58560 0.78993   4
  -5  -1  -2 3.78639 0.74773   2
  -5  -1  -2 3.97891 0.72315  11
  -5  -1  -2 5.04839 0.67449  10
  -5  -1  -2 6.29420 0.95146   9
  -5  -1  -2 5.02645 0.85960  16
  -5  -1  -2 5.46501 0.95568   7
  -6  -1  -2 77.8140 5.27943   7
  -6  -1  -2 80.3857 5.12959  11
  -6  -1  -2 75.9042 4.87228  13
  -6  -1  -2 78.1499 5.20821   4
  -6  -1  -2 83.2122 5.08008   9
  -6  -1  -2 78.2339 5.08168  16
  -6  -1  -2 77.2730 5.24617   2
  -7  -1  -2 64.6691 4.17677  11
  -7  -1  -2 62.9474 4.26094   4
  -7  -1  -2 61.3811 4.13090   9
  -7  -1  -2 65.0266 4.17468  16
  -8  -1  -2 -0.7306 0.41398  11
  -8  -1  -2 -0.0652 0.55089  16
  -8  -1  -2 -0.7613 0.52913   4
  -8  -1  -2 0.74990 0.40727   9
 -10   2   2 4.14874 0.61040  11
  -9   2   2 2.26281 0.53275   4
  -9   2   2 1.38790 0.42198   1
  -8   2   2 2.68707 0.74977   4
  -8   2   2 2.53676 0.66218   1
  -7   2   2 42.0832 3.00283  16
  -7   2   2 48.8224 3.08036   6
  -7   2   2 42.1578 3.04560  11
  -7   2   2 44.3961 3.10351   1
  -6   2   2 11.8278 1.41334   4
  -6   2   2 15.8407 1.38356  11
  -6   2   2 17.0242 1.33172  16
  -6   2   2 15.2924 1.48289   1
   5  -2  -2 3.73469 0.60266  14
   5  -2  -2 4.01223 0.55993   8
   4  -2  -2 1141.07 73.3343   5
   4  -2  -2 1259.96 73.3602   8
   4  -2  -2 1247.89 73.4652  14
   4  -2  -2 1261.43 73.3487   5
   3  -2  -2 58.1673 3.32393  17
   3  -2  -2 53.3257 3.31854  17
   3  -2  -2 52.3505 3.37500   5
   3  -2  -2 53.7477 3.45442  14
  -3   2   2 61.5239 3.36948   8
  -3   2   2 50.1060 3.31194  17
  -3   2   2 51.4995 3.34220   5
  -3   2   2 55.3377 3.30334  17
   2  -2  -2 410.270 24.7601   5
   2  -2  -2 414.345 24.7260  17
   2  -2  -2 411.749 24.7132  17
  -2   2   2 399.757 24.7536   5
  -2   2   2 432.810 24.7844   8
  -2   2   2 411.635 24.7127  17
   0  -2  -2 351.347 20.5496  17
   0  -2  -2 349.822 20.5243  14
   0  -2  -2 321.612 20.5543   5
   0  -2  -2 331.586 20.5770   5
   0  -2  -2 349.110 20.5293  17
   0   2   2 338.218 20.5640   8
   0   2   2 321.148 20.5636   5
   0   2   2 349.055 20.5815   5
   0   2   2 363.837 20.5322  17
   0   2   2 356.156 20.5462  17
  -1  -2  -2 2967.69 168.561  14
  -1  -2  -2 2785.74 168.534  17
  -1  -2  -2 2714.82 168.597   5
  -1  -2  -2 2953.64 168.597   8
  -1  -2  -2 2889.40 168.556  17
   1   2   2 2667.31 168.583   5
   1   2   2 2536.75 168.592   8
   1   2   2 2952.91 168.542  17
   1   2   2 2945.61 168.558  17
  -2  -2  -2 218.847 12.4951  14
  -2  -2  -2 200.301 12.4906  17
  -2  -2  -2 203.736 12.4653  17
  -2  -2  -2 199.458 12.5118   5
   2   2   2 215.551 12.4499  17
   2   2   2 208.217 12.5791   5
   2   2   2 216.106 12.5218   5
   2   2   2 197.751 12.4848   8
  -3  -2  -2 165.042 10.7644  17
   3   2   2 172.655 10.7513  17
   3   2   2 199.001 10.8634   5
  -4  -2  -2 7.08948 1.07789  11
  -4  -2  -2 10.0545 1.09281   9
  -4  -2  -2 11.6420 1.26242  16
  -4  -2  -2 8.28029 1.08306  10
  -4  -2  -2 10.2930 1.18367  13
  -4  -2  -2 7.34113 1.36437   4
   4   2   2 10.5788 1.00978   5
  -5  -2  -2 1.64619 0.57223  10
  -5  -2  -2 1.11167 0.62902   4
  -5  -2  -2 2.06811 0.61470  13
  -5  -2  -2 1.15750 0.77416  16
  -5  -2  -2 1.61004 0.67738   2
  -5  -2  -2 1.60327 0.55295   9
  -5  -2  -2 1.83246 0.80336   7
  -6  -2  -2 0.10868 0.57762   9
  -6  -2  -2 1.40386 0.94661  11
  -6  -2  -2 0.64391 0.46736  13
  -6  -2  -2 0.34428 0.78787  16
  -6  -2  -2 0.52496 0.91439   4
  -6  -2  -2 1.79007 1.10071   7
  -7  -2  -2 21.9293 1.82133  11
  -7  -2  -2 27.2809 2.02068  16
  -7  -2  -2 25.6251 1.76575  13
  -7  -2  -2 27.1317 2.11619   4
  -7  -2  -2 24.9963 1.89923   9
  -8  -2  -2 172.161 10.5410  16
  -8  -2  -2 177.439 10.5880   4
 -10   3   2 146.859 8.62372  11
 -10   3   2 138.000 8.58549  16
  -9   3   2 10.1342 1.22032  11
  -9   3   2 8.86001 1.04088   1
  -9   3   2 8.36911 1.15057  16
  -9   3   2 7.86028 1.14585   4
  -8   3   2 6.30814 1.19889  11
  -8   3   2 4.29761 1.15603   4
  -7   3   2 265.520 15.4606   6
  -7   3   2 245.766 15.3718  16
  -7   3   2 247.202 15.4391  11
  -7   3   2 256.147 15.5092   1
  -6   3   2 61.2274 4.22171  11
  -6   3   2 62.4985 4.17093  16
  -6   3   2 66.0639 4.32907   1
  -6   3   2 73.2632 4.26739   6
  -6   3   2 64.3592 4.24320   4
   5  -3  -2 2.45860 0.45495   8
   5  -3  -2 2.50986 0.39615   5
   5  -3  -2 1.99863 0.52987  14
   4  -3  -2 0.76775 0.38174  14
   4  -3  -2 1.41667 0.40701   8
   4  -3  -2 0.89227 0.22190  17
   4  -3  -2 0.96162 0.34327   5
   4  -3  -2 0.85676 0.26497   5
  -4   3   2 0.86337 0.20884  17
  -4   3   2 1.00695 0.22710   5
   3  -3  -2 117.838 7.20911  17
   3  -3  -2 128.827 7.28082   8
   3  -3  -2 123.813 7.23277  17
   3  -3  -2 126.188 7.29751   5
   3  -3  -2 121.073 7.34618  14
   3  -3  -2 110.237 7.25302   5
  -3   3   2 119.703 7.20816  17
  -3   3   2 111.059 7.29533   5
  -3   3   2 117.819 7.22361  17
   2  -3  -2 607.633 40.1075   5
   2  -3  -2 707.270 40.0050   8
   2  -3  -2 583.724 39.9710   5
   2  -3  -2 686.569 39.9667  17
   2  -3  -2 687.528 39.9497  17
  -2   3   2 673.987 40.0119   5
  -2   3   2 697.125 39.9495  17
  -2   3   2 703.148 39.9688  17
   0  -3  -2 95.0255 5.66860   8
   0  -3  -2 94.3321 5.59671  17
   0  -3  -2 93.0698 5.61918  17
   0  -3  -2 91.9051 5.68232   5
   0  -3  -2 92.1517 5.57678  14
   0   3   2 97.4388 5.71027  17
   0   3   2 92.4458 5.76669   5
   0   3   2 82.2896 5.64776   5
   0   3   2 93.9404 5.59805  17
  -1  -3  -2 287.247 18.5427  17
  -1  -3  -2 300.079 18.5700  17
  -1  -3  -2 329.163 18.5499  14
  -1  -3  -2 319.089 18.7799   5
   1   3   2 315.715 18.5519  17
   1   3   2 292.841 18.6231   5
   1   3   2 306.687 18.5807  17
   1   3   2 325.881 18.6483   5
  -2  -3  -2 9999.99 575.281   5
  -2  -3  -2 9636.57 575.188  17
   2   3   2 9274.62 575.082  17
  -3  -3  -2 23.1764 1.53415  13
  -3  -3  -2 25.0385 1.59683  12
  -3  -3  -2 18.7341 1.75482   2
  -3  -3  -2 24.1932 1.66900   9
  -3  -3  -2 17.5589 1.60334  10
  -3  -3  -2 20.2102 1.97202   4
  -3  -3  -2 19.9078 1.66984  16
   3   3   2 18.5382 1.59834   5
  -4  -3  -2 13.1384 1.43061  11
  -4  -3  -2 16.5081 1.71015   2
  -4  -3  -2 16.5352 1.74281   4
  -4  -3  -2 14.2676 1.60515  16
  -4  -3  -2 16.6468 1.46433   9
  -4  -3  -2 18.1461 2.85947   7
  -4  -3  -2 15.8930 1.45035  10
  -4  -3  -2 16.8512 1.29602  13
  -5  -3  -2 376.770 24.7322   4
  -5  -3  -2 428.199 24.7651   9
  -5  -3  -2 430.195 24.7181  16
  -5  -3  -2 417.359 24.6416  10
  -5  -3  -2 391.807 24.6794  11
  -5  -3  -2 404.215 24.8040   2
  -5  -3  -2 417.253 24.6167  13
  -6  -3  -2 49.8481 3.51903   4
  -6  -3  -2 52.8044 3.44488  16
  -6  -3  -2 50.9260 3.43302   9
  -6  -3  -2 49.4279 3.23886  13
  -6  -3  -2 51.5242 3.57136   2
  -7  -3  -2 0.96103 0.56837  16
  -7  -3  -2 0.71804 0.45317   9
  -7  -3  -2 1.17815 0.51157   4
 -10   4   2 5.41069 0.70456  16
 -10   4   2 5.52146 0.79575  11
  -9   4   2 1.77400 0.44975   4
  -9   4   2 3.01478 0.67159  11
  -9   4   2 2.38506 0.62390  16
  -8   4   2 81.3156 5.96699   4
  -8   4   2 96.8711 6.38215  16
  -8   4   2 108.224 6.53682   1
  -7   4   2 14.6224 1.46146   4
  -7   4   2 12.9894 1.65755   1
  -7   4   2 13.6206 1.35263   6
  -7   4   2 14.9826 1.46894  11
  -7   4   2 14.1618 1.41189  16
  -6   4   2 48.9693 3.48350   1
  -6   4   2 47.8232 3.34442  11
  -6   4   2 48.0281 3.28939  16
  -6   4   2 55.8987 3.38397   6
   5  -4  -2 118.237 7.30072   5
   5  -4  -2 112.451 7.26272   8
   5  -4  -2 112.876 7.43194  14
  -5   4   2 131.808 7.56937   6
   4  -4  -2 73.1874 4.59837   8
   4  -4  -2 77.1306 4.53351   5
   4  -4  -2 60.3734 4.38060  17
   4  -4  -2 73.0447 4.59087  14
  -4   4   2 74.9850 4.64203   5
   3  -4  -2 1102.47 64.4332  14
   3  -4  -2 1067.64 64.3471   8
   3  -4  -2 1093.18 64.3810   5
   3  -4  -2 1062.48 64.2849  17
  -3   4   2 1052.05 64.3039  17
  -3   4   2 1077.03 64.4305   5
   2  -4  -2 564.931 34.2096  17
   2  -4  -2 568.936 34.2381  17
   2  -4  -2 585.700 34.3103   5
   2  -4  -2 570.154 34.2810   8
   2  -4  -2 579.623 34.3021  14
  -2   4   2 561.830 34.2123  17
  -2   4   2 580.654 34.2422  17
  -2   4   2 563.154 34.2970   5
   1  -4  -2 51.1170 3.15938  17
   1  -4  -2 52.9382 3.25378   5
   1  -4  -2 49.7738 3.14662  17
   1  -4  -2 50.0418 3.20420   8
  -1   4   2 48.7483 3.10784  17
  -1   4   2 52.2049 3.25382   5
  -1   4   2 46.6880 3.26538  17
   0  -4  -2 70.6147 4.58956  17
   0  -4  -2 72.6262 4.70960   5
   0  -4  -2 79.9339 4.80001   8
   0  -4  -2 70.4163 4.55607  14
   0  -4  -2 76.3844 4.63604  17
   0   4   2 80.8625 4.65667  17
   0   4   2 75.4615 4.73284   5
   0   4   2 76.2789 4.60492  17
  -1  -4  -2 2622.81 160.657  17
  -1  -4  -2 2708.16 160.804   5
   1   4   2 2740.07 160.633  17
  -2  -4  -2 224.551 14.3603  13
  -2  -4  -2 258.111 14.4829  12
   2   4   2 231.482 14.4608   5
  -3  -4  -2 319.973 19.4204  15
  -3  -4  -2 292.126 19.2564   4
  -3  -4  -2 315.843 19.1438  10
  -3  -4  -2 321.818 19.2542   9
  -3  -4  -2 327.097 19.1480  13
  -3  -4  -2 307.033 19.2645   2
  -3  -4  -2 319.171 19.2014  16
  -3  -4  -2 339.300 19.2079  12
  -4  -4  -2 220.381 13.4356   2
  -4  -4  -2 218.570 13.3843   9
  -4  -4  -2 206.845 13.4014   4
  -4  -4  -2 215.668 13.2632  10
  -4  -4  -2 223.957 13.3438  16
  -4  -4  -2 226.878 13.2629  13
  -5  -4  -2 143.780 8.53112  10
  -5  -4  -2 131.707 8.43624  13
  -5  -4  -2 136.616 8.66106   2
  -5  -4  -2 150.938 8.67600  16
  -5  -4  -2 128.291 8.66612   4
  -5  -4  -2 138.354 8.61185   9
  -6  -4  -2 6.50252 1.21613   2
  -6  -4  -2 8.34580 1.26270   4
  -6  -4  -2 6.91107 1.14412  16
  -6  -4  -2 6.01636 1.01012   9
  -6  -4  -2 5.02691 0.76186  13
  -7  -4  -2 50.5058 3.58031   9
  -7  -4  -2 60.3191 3.58567  16
  -7  -4  -2 61.4336 3.62484   4
 -10   5   2 25.0738 1.59210  16
 -10   5   2 25.9643 1.64774  11
 -10   5   2 21.4704 1.79735   1
  -9   5   2 2.84256 0.70532  11
  -8   5   2 207.981 13.5021   4
  -8   5   2 224.682 13.5463  11
  -8   5   2 227.692 13.5052  16
  -8   5   2 228.981 13.6654   1
  -7   5   2 54.9296 3.79730   6
  -7   5   2 61.5585 3.76555  16
  -7   5   2 56.0518 3.77179   4
  -7   5   2 56.1090 3.97237   1
  -7   5   2 58.5782 3.81016  11
  -6   5   2 125.725 7.66604  15
  -6   5   2 121.289 7.69739   1
  -6   5   2 116.215 7.54097   4
  -6   5   2 126.588 7.61137   6
  -6   5   2 118.013 7.54261  11
  -6   5   2 122.832 7.50541  16
   5  -5  -2 693.376 39.5985   5
   5  -5  -2 632.580 39.5310   8
  -5   5   2 650.638 39.5280  11
   4  -5  -2 16.7639 1.33247   8
   4  -5  -2 16.4344 1.47057  14
   4  -5  -2 15.9725 1.44295   5
   3  -5  -2 17.7935 1.37340   8
   3  -5  -2 14.8822 1.19447  17
   3  -5  -2 17.7828 1.41503  14
  -3   5   2 18.7451 1.36466   5
  -3   5   2 15.8150 1.24623  17
   2  -5  -2 33.2634 2.25688   5
   2  -5  -2 33.1583 2.18923  14
   2  -5  -2 32.1435 2.10604  17
   2  -5  -2 32.9692 2.20347   8
   2  -5  -2 28.9528 2.04530  17
  -2   5   2 31.6485 2.20692  17
  -2   5   2 32.7993 2.25126   5
  -2   5   2 28.2855 2.03090  17
   1  -5  -2 2.97991 0.58569   5
   1  -5  -2 3.27483 0.48726  17
   1  -5  -2 1.96577 0.39513  17
   1  -5  -2 3.59716 0.61927   8
   1  -5  -2 3.24778 0.65169  14
  -1   5   2 2.80436 0.56546   5
  -1   5   2 3.32521 0.49851  17
  -1   5   2 1.86498 0.38875  17
   0   5   2 24.5845 1.93679  17
   0   5   2 30.1118 2.09544   5
  -1  -5  -2 275.871 18.0774  10
  -1  -5  -2 295.372 18.1627   2
  -1  -5  -2 303.971 18.1196  13
   1   5   2 328.887 18.3073   5
  -2  -5  -2 13.2626 1.39244   2
  -2  -5  -2 14.7714 1.17248  13
  -2  -5  -2 11.8085 1.54198   4
  -2  -5  -2 14.5898 1.20408  12
  -2  -5  -2 11.8277 1.20975  15
  -2  -5  -2 11.4379 1.25523  10
  -2  -5  -2 13.6647 1.24930   9
  -3  -5  -2 471.972 24.9078  15
  -3  -5  -2 377.427 24.6929   4
  -3  -5  -2 394.129 24.6806   9
  -3  -5  -2 412.303 24.6308  16
  -3  -5  -2 405.649 24.5816  13
  -3  -5  -2 401.262 24.7016   2
  -3  -5  -2 397.074 24.6218  12
  -3  -5  -2 409.908 24.5769  10
  -4  -5  -2 88.8600 5.48853  16
  -4  -5  -2 82.3743 5.54972   4
  -4  -5  -2 88.0945 5.58912   2
  -4  -5  -2 82.7773 5.48554   9
  -4  -5  -2 87.4935 5.39904  10
  -5  -5  -2 40.6886 2.84025   2
  -5  -5  -2 42.3985 2.79351  16
  -5  -5  -2 36.5884 2.72690   9
  -5  -5  -2 40.5620 2.69668  10
  -5  -5  -2 37.4981 2.58994  13
  -5  -5  -2 39.5087 2.81953   4
  -6  -5  -2 64.5840 4.24468  13
  -6  -5  -2 64.6010 4.33292   9
  -6  -5  -2 75.0066 4.37647   4
  -6  -5  -2 72.2380 4.32038  16
 -10   6   2 0.29829 0.32681   1
 -10   6   2 0.84393 0.31288  11
 -10   6   2 1.54403 0.43432  16
  -9   6   2 165.651 9.97372  11
  -9   6   2 163.552 9.94516  16
  -9   6   2 162.914 10.0498   1
  -8   6   2 36.9166 2.62855  11
  -8   6   2 39.9052 2.62566  16
  -8   6   2 36.8466 2.83075   1
   7  -6  -2 422.614 29.1178  10
  -7   6   2 507.567 29.3869   1
  -7   6   2 477.003 29.2118   4
  -7   6   2 506.513 29.2340  11
  -7   6   2 514.656 29.1984  16
   6  -6  -2 1010.02 65.6930  10
  -6   6   2 1036.93 65.8130   4
  -6   6   2 1116.89 65.8398   6
  -6   6   2 1137.59 65.7295  16
  -6   6   2 1207.46 65.8314  11
  -6   6   2 1080.59 65.8895   1
   5  -6  -2 279.270 18.4804  10
  -5   6   2 298.456 18.5464  11
  -5   6   2 296.711 18.6871   1
  -5   6   2 324.973 18.5504  16
  -5   6   2 338.396 18.6661   6
   4  -6  -2 37.1677 2.58330   8
   4  -6  -2 35.6397 2.35496  10
  -4   6   2 34.6601 2.57072   1
   3  -6  -2 70.5319 4.37520   5
   3  -6  -2 67.1039 4.28334  14
   3  -6  -2 62.5215 4.24757   8
  -3   6   2 64.6929 4.12300  16
   2  -6  -2 571.636 36.6222  14
   2  -6  -2 633.113 36.6913   2
   2  -6  -2 627.347 36.8449   5
  -2   6   2 608.757 36.7387   5
   1  -6  -2 3.26865 0.63781  15
   1  -6  -2 3.47864 0.68536   5
   1  -6  -2 4.30576 0.74328   2
   1  -6  -2 3.69988 0.66791  10
  -1   6   2 4.37493 0.73848   5
   0  -6  -2 65.9771 4.35077   2
   0  -6  -2 66.1010 4.32297  12
   0  -6  -2 68.9524 4.46053  15
   0  -6  -2 64.1821 4.27186  10
   0   6   2 83.1710 5.31683   5
  -1  -6  -2 198.436 12.3809   2
  -1  -6  -2 213.289 12.3433  13
  -1  -6  -2 203.807 12.4002   9
  -1  -6  -2 218.226 12.4876  15
  -1  -6  -2 192.572 12.2854  10
  -1  -6  -2 212.310 12.3691  12
  -1  -6  -2 185.274 12.4001   4
  -2  -6  -2 2.32347 0.59547   9
  -2  -6  -2 1.60879 0.54879  12
  -2  -6  -2 2.14053 0.61985  13
  -2  -6  -2 1.23445 0.52186  10
  -2  -6  -2 1.73880 0.58993  15
  -2  -6  -2 1.40460 0.54252   2
  -2  -6  -2 1.43353 0.64771   4
  -3  -6  -2 273.763 16.5766  12
  -3  -6  -2 281.526 16.5173  10
  -3  -6  -2 265.174 16.6098  15
  -3  -6  -2 271.512 16.6389   2
  -3  -6  -2 280.364 16.5713  16
  -3  -6  -2 269.649 16.6227   9
  -3  -6  -2 271.538 16.6593   4
  -4  -6  -2 0.11833 0.58636   4
  -4  -6  -2 -0.4125 0.49014   9
  -4  -6  -2 -0.1704 0.48039  13
  -4  -6  -2 -0.2447 0.52408   2
  -4  -6  -2 -0.2710 0.45296  10
  -4  -6  -2 -0.4672 0.62826  16
  -5  -6  -2 90.3259 5.84299  13
  -5  -6  -2 96.1694 6.10513   2
  -5  -6  -2 89.9707 5.92671   9
  -5  -6  -2 101.823 5.91563  16
  -5  -6  -2 98.6317 5.93871   4
  -9   7   2 33.9071 2.33513  11
  -9   7   2 37.7265 2.47753   1
  -9   7   2 36.1614 2.35801  16
  -8   7   2 77.3201 5.00346  11
  -8   7   2 80.5758 5.18362   1
  -8   7   2 82.2501 5.00236  16
   7  -7  -2 34.4786 2.52132  10
  -7   7   2 39.8273 2.68768  11
  -7   7   2 43.0655 3.19043  16
  -7   7   2 42.5495 3.64590   1
   6  -7  -2 229.605 14.8110  10
  -6   7   2 257.097 14.8853  16
  -6   7   2 242.377 14.8807  11
  -6   7   2 254.595 15.0852   1
   5  -7  -2 142.584 8.74611  10
  -5   7   2 148.469 8.56235  16
  -5   7   2 128.075 8.52001  11
   4  -7  -2 166.017 10.2619  10
  -4   7   2 166.268 10.4388   1
  -4   7   2 175.969 10.3071  16
   3  -7  -2 50.9952 3.24501  10
   3  -7  -2 51.7664 3.61845   5
   3  -7  -2 50.4164 3.32197   2
   2  -7  -2 15.7865 1.32550   2
   2  -7  -2 15.4159 1.33882  12
   2  -7  -2 14.6487 1.22589  10
   1  -7  -2 0.76517 0.41100  12
   1  -7  -2 -0.1378 0.32158  10
   1  -7  -2 0.64546 0.41012   2
   1  -7  -2 1.07166 0.36491  13
   0  -7  -2 111.739 6.74313  13
   0  -7  -2 119.343 7.10694  15
   0  -7  -2 102.548 6.90978   2
   0  -7  -2 104.730 6.84383   4
   0  -7  -2 109.106 6.76113  12
  -1  -7  -2 253.764 16.3990   4
  -1  -7  -2 263.076 16.3643   9
  -1  -7  -2 275.568 16.2863  10
  -1  -7  -2 272.884 16.3478  12
  -1  -7  -2 268.664 16.3790   2
  -1  -7  -2 285.596 16.5020  15
  -2  -7  -2 24.5001 1.89061  16
  -2  -7  -2 23.9891 1.69678  13
  -2  -7  -2 22.2465 1.83416  15
  -2  -7  -2 21.4472 2.04824   4
  -2  -7  -2 23.9256 1.73041  12
  -2  -7  -2 21.8188 1.76484   9
  -2  -7  -2 22.8143 1.93296   2
  -2  -7  -2 19.3263 1.76466  10
  -3  -7  -2 4.26250 0.68367  13
  -3  -7  -2 2.72904 0.70457   4
  -3  -7  -2 2.22397 0.58182   2
  -3  -7  -2 2.68412 0.56889  10
  -3  -7  -2 3.68183 0.63682   9
  -3  -7  -2 3.12068 0.70657  16
  -4  -7  -2 116.110 7.20644   4
  -4  -7  -2 107.772 7.19913   9
  -4  -7  -2 120.849 7.18977  16
  -4  -7  -2 115.923 7.20257   2
  -4  -7  -2 114.904 7.15247  13
  -4  -7  -2 126.517 7.15294  10
  -5  -7  -2 15.3955 1.05579  16
  -5  -7  -2 12.9339 1.01996   9
  -5  -7  -2 13.5527 0.97198  13
   9  -8  -2 37.2255 2.56479   2
  -9   8   2 43.8250 2.70726  16
  -9   8   2 41.4296 2.69997   1
   8  -8  -2 35.4485 2.39968   2
  -8   8   2 38.4672 2.58628  16
  -8   8   2 31.4485 2.22848  11
  -8   8   2 32.4971 2.76584   1
  -7   8   2 39.4291 2.58635  16
  -7   8   2 40.8070 2.79098   1
  -7   8   2 34.4776 2.48015  11
   6  -8  -2 2.16075 0.40285  10
  -6   8   2 3.84337 0.90038  16
   5  -8  -2 10.6195 1.09181  10
   5  -8  -2 11.6231 1.42003   2
  -5   8   2 12.3024 1.50750   1
  -5   8   2 11.0000 1.22200  16
   4  -8  -2 677.560 39.6805   2
   4  -8  -2 650.073 39.5837  10
  -4   8   2 655.222 39.7219   1
   3  -8  -2 209.122 12.6411  10
   2  -8  -2 198.864 11.4545  10
   2  -8  -2 174.556 11.4732  12
   2  -8  -2 194.190 11.5205   2
   1  -8  -2 72.3765 4.33863  10
   1  -8  -2 63.8792 4.34256  12
   1  -8  -2 72.8091 4.44233   2
   1  -8  -2 67.2129 4.33346  13
   0  -8  -2 266.991 16.5132   2
   0  -8  -2 279.103 16.4764  13
   0  -8  -2 286.360 16.4367  10
   0  -8  -2 267.049 16.5453   4
   0  -8  -2 263.197 16.4917  12
  -1  -8  -2 11.7900 1.12041  13
  -1  -8  -2 11.5019 1.40443   2
  -1  -8  -2 12.1891 1.55140   4
  -1  -8  -2 12.1918 1.30249  10
  -1  -8  -2 10.7802 1.12147  12
  -2  -8  -2 4.55354 0.71922   2
  -2  -8  -2 6.09085 1.09767  16
  -2  -8  -2 6.76465 0.84470  13
  -2  -8  -2 6.13664 0.86755  12
  -2  -8  -2 7.15398 1.05742   9
  -2  -8  -2 6.55316 1.29529   4
  -2  -8  -2 5.01469 0.67551  10
  -3  -8  -2 36.8969 2.69886   9
  -3  -8  -2 44.8904 2.72415  13
  -3  -8  -2 42.6821 2.84877   4
  -3  -8  -2 43.4644 2.79767  16
  -3  -8  -2 40.6929 2.80120   2
  -3  -8  -2 44.6310 2.75159  10
  -4  -8  -2 7.99712 0.70028  13
  -4  -8  -2 8.33455 0.83263  16
   8  -9  -2 8.89043 0.95610   2
  -8   9   2 8.73217 1.00141   1
   7  -9  -2 57.0509 3.70089   2
  -7   9   2 57.9088 3.82700   1
   6  -9  -2 29.1075 1.98435  10
   6  -9  -2 30.0740 2.18568   2
  -6   9   2 31.3937 2.25493   1
   5  -9  -2 208.923 12.0358   2
   5  -9  -2 190.284 11.9199  10
  -5   9   2 193.019 12.0488   1
   4  -9  -2 299.921 18.1937   2
   3  -9  -2 66.1185 4.35775   2
   3  -9  -2 70.8534 4.32743  10
   2  -9  -2 1.20212 0.46048  12
   2  -9  -2 2.20936 0.53565   2
   2  -9  -2 2.78282 0.65531  10
   1  -9  -2 185.953 11.5714   4
   1  -9  -2 205.994 11.4879  10
   1  -9  -2 174.519 11.4918  12
   1  -9  -2 191.248 11.5608   2
   0  -9  -2 25.3141 1.83304  12
   0  -9  -2 27.7272 1.91092  10
   0  -9  -2 25.7359 1.78149  13
   0  -9  -2 25.7750 2.02326   2
   0  -9  -2 25.0780 2.05582   4
  -1  -9  -2 25.6531 1.89948  10
  -1  -9  -2 28.5149 1.95710  16
  -1  -9  -2 25.8585 1.91095  12
  -1  -9  -2 25.5542 2.04839   4
  -1  -9  -2 26.6162 2.10199   2
  -2  -9  -2 22.7625 1.60114  10
  -2  -9  -2 22.6798 1.52077  13
  -2  -9  -2 19.4264 1.66298   2
  -2  -9  -2 23.2555 1.65824  16
  -3  -9  -2 35.0777 2.16755  10
  -3  -9  -2 33.7458 2.19173  16
   8 -10  -2 110.137 6.65717   2
   7 -10  -2 55.4314 3.31430   2
  -7  10   2 48.9850 3.26758   1
   6 -10  -2 5.21648 0.63053  10
   5 -10  -2 373.356 22.9400  10
   5 -10  -2 389.705 22.9526   2
   4 -10  -2 30.7775 2.01028  10
   4 -10  -2 28.8725 2.12439   2
   3 -10  -2 215.237 12.8368  10
   3 -10  -2 210.387 12.9104   2
   2 -10  -2 54.8204 3.81790   4
   2 -10  -2 63.7522 3.75275  10
   2 -10  -2 59.9499 3.85291   2
   1 -10  -2 30.0910 2.28540  12
   1 -10  -2 39.9826 2.55768   2
   1 -10  -2 38.9163 2.37113  10
   1 -10  -2 33.1866 2.45211   4
   0 -10  -2 2.79868 0.48852   2
   0 -10  -2 3.32755 0.48296  10
  -1 -10  -2 6.52713 0.81956  10
  -1 -10  -2 7.72917 0.87171  16
  -1 -10  -2 6.98562 0.83442   2
   6 -11  -2 200.066 12.0804   2
   5 -11  -2 233.048 14.9833  10
   5 -11  -2 267.209 15.0730   2
   4 -11  -2 27.1926 1.85161  10
   4 -11  -2 29.8294 1.99919   2
   3 -11  -2 9.10569 0.86393  10
   3 -11  -2 9.30093 1.02930   2
   2 -11  -2 34.5955 2.33263   2
   2 -11  -2 35.3382 2.25377  10
   1 -11  -2 11.2260 1.23238  10
   1 -11  -2 10.1072 0.96804   2
   0 -11  -2 21.4163 1.52567  16
   0 -11  -2 24.5242 1.50408  10
   0 -12   3 3.04915 0.47862  12
   0 -12   3 3.37033 0.56211  10
   1 -12   3 16.0684 1.36992   4
   1 -12   3 16.0637 1.11469  10
   1 -12   3 13.3430 1.07881  12
   2 -12   3 0.50158 0.30624  10
   2 -12   3 0.00528 0.32156  12
   3 -12   3 39.3541 2.37420  10
   3 -12   3 34.9794 2.41354  12
   4 -12   3 54.9936 3.30185  12
   4 -12   3 51.4528 3.28767   2
   5 -12   3 87.4019 5.30831  10
   6 -12   3 9.97763 0.72529  10
  -2 -11   3 21.2292 1.85997   4
  -2 -11   3 16.9285 1.31231  12
  -2 -11   3 18.7290 1.27814  10
  -1 -11   3 7.03927 0.88090  16
  -1 -11   3 7.73225 0.83744  10
  -1 -11   3 9.42665 1.17822   4
  -1 -11   3 7.59999 0.79245  12
   0 -11   3 137.863 8.68965   4
   0 -11   3 142.428 8.60769  12
   1 -11   3 18.0755 1.42978  12
   1 -11   3 19.6192 1.43914  10
   2 -11   3 16.4426 1.20422  10
   2 -11   3 16.0141 1.20184  12
   2 -11   3 12.2109 1.13729   2
   3 -11   3 339.198 19.8055  10
   3 -11   3 319.789 19.8490  12
   4 -11   3 65.2050 4.39211  12
   4 -11   3 76.3235 4.41440  10
  -5  11  -3 52.8245 3.45995   1
   5 -11   3 52.5111 3.26930   2
   5 -11   3 49.1713 3.28213  12
  -6  11  -3 14.4963 1.39270   1
   6 -11   3 14.4091 1.15765   2
   6 -11   3 14.0007 1.09927  10
  -7  11  -3 6.99152 0.85812   1
   7 -11   3 6.73669 0.61067  10
   7 -11   3 7.00662 0.69369   2
  -3 -10   3 2.08260 0.44465  12
  -3 -10   3 1.44454 0.46408  15
  -3 -10   3 0.32181 0.43420   9
  -3 -10   3 1.41112 0.31003  10
  -3 -10   3 1.47728 0.53577   4
  -3 -10   3 2.23120 0.37184  13
  -2 -10   3 -0.0697 0.54309   4
  -2 -10   3 -0.4152 0.47189  15
  -2 -10   3 -0.1334 0.37284  10
  -2 -10   3 0.49211 0.44017  12
  -2 -10   3 0.22945 0.31428  13
  -2 -10   3 0.75930 0.41611  16
  -1 -10   3 152.835 9.45138  15
  -1 -10   3 157.051 9.44770   4
  -1 -10   3 144.326 9.32037  12
  -1 -10   3 150.845 9.25135  10
  -1 -10   3 157.594 9.37170  13
   0 -10   3 46.7791 2.94442  10
   0 -10   3 45.2898 2.99970  12
   0 -10   3 45.9328 3.15536  15
   0 -10   3 42.8370 2.95842   3
   1 -10   3 27.4026 2.00687  15
   1 -10   3 23.1873 1.93350  12
   1 -10   3 24.0384 1.70809   3
   1 -10   3 19.7576 1.67441   2
   2 -10   3 72.0324 4.87161   3
   2 -10   3 82.7758 4.98305  12
   2 -10   3 77.8536 4.96520   2
   2 -10   3 80.5897 4.90287  10
   3 -10   3 51.8549 3.50261   2
   3 -10   3 55.2149 3.53303  12
   4 -10   3 66.7546 4.32462   2
   4 -10   3 71.7252 4.30828  10
   4 -10   3 66.1726 4.31518  12
   5 -10   3 72.1678 4.41479  10
   5 -10   3 68.5057 4.39264  12
  -6  10  -3 22.0463 2.02758   1
   6 -10   3 24.5495 1.62226  10
   6 -10   3 20.0155 1.69594  12
  -7  10  -3 334.544 20.0740   1
   7 -10   3 329.122 19.9040  10
  -8  10  -3 3.27153 0.67702   1
   8 -10   3 5.15126 0.64827   2
   8 -10   3 4.99629 0.63121  10
  -4  -9   3 -0.8022 0.37512  12
  -4  -9   3 -0.4782 0.32267  13
  -4  -9   3 -0.4558 0.38951  15
  -4  -9   3 -0.3106 0.31247   9
  -3  -9   3 20.8274 1.61883  12
  -3  -9   3 21.3886 1.93864   4
  -3  -9   3 22.5240 1.72519  15
  -3  -9   3 22.5144 1.72391   9
  -3  -9   3 21.6954 1.66666  16
  -3  -9   3 21.2968 1.54355  13
  -2  -9   3 167.343 10.0510  15
  -2  -9   3 159.039 9.91540  12
  -2  -9   3 158.210 9.90755   3
  -2  -9   3 169.150 9.85190  10
  -2  -9   3 163.990 9.85407  13
  -2  -9   3 164.067 10.0320   4
  -2  -9   3 163.519 9.88751  16
  -2  -9   3 150.977 9.92153   9
  -1  -9   3 31.7523 2.25108  12
  -1  -9   3 31.7875 2.18458  10
  -1  -9   3 32.8164 2.16725  13
  -1  -9   3 31.2782 2.29636   9
  -1  -9   3 32.6396 2.42625  15
  -1  -9   3 32.7234 2.26168   3
   0  -9   3 122.260 7.65433   3
   0  -9   3 118.244 7.56171  10
   0  -9   3 128.019 7.68259  12
   0  -9   3 127.434 7.80762  15
   1  -9   3 3.24447 0.68534  15
   1  -9   3 2.15053 0.42273  10
   1  -9   3 2.31385 0.53440   3
   1  -9   3 1.53814 0.35970   2
   1  -9   3 2.20242 0.51926  12
   2  -9   3 0.51706 0.48961  15
   2  -9   3 1.10564 0.36215   2
   2  -9   3 0.92910 0.45286  12
   2  -9   3 1.21081 0.41210  10
   2  -9   3 1.56119 0.45080   3
   3  -9   3 30.9623 2.15193  12
   3  -9   3 30.3174 2.13055  10
  -4   9  -3 271.172 16.3764   6
  -4   9  -3 261.792 16.2750  16
   4  -9   3 268.450 16.2753  10
   4  -9   3 277.096 16.3437  12
  -5   9  -3 15.6378 1.92429   6
  -5   9  -3 20.2169 2.09190  16
   5  -9   3 22.8552 1.67983  12
   5  -9   3 19.7751 1.62853  10
  -6   9  -3 43.9739 2.96085  16
  -6   9  -3 46.0954 3.06126   6
   6  -9   3 45.0041 2.94564  10
   6  -9   3 43.1730 2.87586  12
  -7   9  -3 79.6283 4.96312   1
  -7   9  -3 69.4442 4.79252   6
  -8   9  -3 379.226 22.8401   1
  -5  -8   3 2.79128 0.42039  16
  -5  -8   3 2.65976 0.63403   4
  -5  -8   3 3.74420 0.64495   9
  -5  -8   3 3.46211 0.63766  15
  -5  -8   3 3.89188 0.58469  13
  -4  -8   3 250.501 14.8389  12
  -4  -8   3 268.776 14.9919   4
  -4  -8   3 215.719 14.8517   9
  -4  -8   3 241.123 14.9021  15
  -4  -8   3 252.051 14.8838  16
  -4  -8   3 241.775 14.7857  13
  -3  -8   3 152.348 8.71819  15
  -3  -8   3 135.832 8.34675  10
  -3  -8   3 136.248 8.36571  13
  -3  -8   3 125.380 8.45600   9
  -3  -8   3 132.954 8.37736  16
  -3  -8   3 136.874 8.46426  12
  -2  -8   3 10.5415 1.27956  15
  -2  -8   3 10.8503 1.06404  12
  -2  -8   3 8.96638 1.12688   9
  -2  -8   3 9.61191 1.02498  13
  -2  -8   3 10.9925 1.10067   3
  -2  -8   3 9.18763 1.59743   4
  -2  -8   3 9.40204 1.05060  10
  -1  -8   3 465.695 28.3971  10
  -1  -8   3 483.938 28.5949  15
  -1  -8   3 475.304 28.4787   3
  -1  -8   3 462.607 28.6148   9
  -1  -8   3 477.764 28.4770  12
   0  -8   3 89.6608 5.89391  13
   0  -8   3 100.834 6.07989  15
   0  -8   3 92.5035 5.85371  10
   0  -8   3 98.4379 5.94857  12
   0  -8   3 94.4121 5.94877   3
   1  -8   3 260.628 16.2427  10
   1  -8   3 277.700 16.4351  15
   1  -8   3 271.195 16.3278   3
   1  -8   3 246.177 16.2550   2
   1  -8   3 293.236 16.3452  12
  -2   8  -3 1236.33 73.8857   5
   2  -8   3 1214.60 73.8196  15
   2  -8   3 1179.88 73.7119   3
   2  -8   3 1356.45 73.7657  12
   2  -8   3 1173.04 73.6506  10
  -3   8  -3 524.431 33.4502  16
  -3   8  -3 553.761 33.5729   6
   3  -8   3 601.936 33.5442  12
   3  -8   3 552.023 33.4559  10
  -4   8  -3 200.749 12.8156   6
   4  -8   3 208.718 12.4353  10
  -5   8  -3 1.16630 0.56085  16
  -5   8  -3 1.48921 0.57688   6
  -5   8  -3 0.57175 0.61959   4
   5  -8   3 1.92189 0.58014  10
   5  -8   3 1.85158 0.48478  12
  -6   8  -3 26.0047 2.53477   6
   6  -8   3 34.3349 2.12992  12
  -7   8  -3 110.678 6.39606  16
  -7   8  -3 99.5099 6.51558   6
  -7   8  -3 109.619 6.56271   4
  -7   8  -3 102.843 6.53277  11
  -7   8  -3 103.937 6.66102   1
   7  -8   3 88.7991 6.34019  12
   7  -8   3 107.294 6.39775  10
  -8   8  -3 19.2432 1.71420   1
  -8   8  -3 19.7366 1.53947   6
  -8   8  -3 20.4761 1.49058  16
   8  -8   3 19.3416 1.42700  10
  -6  -7   3 55.8272 3.52595   9
  -6  -7   3 47.4277 3.43836  15
  -6  -7   3 62.5079 3.61978   4
  -6  -7   3 57.0384 3.45469  13
  -5  -7   3 328.606 20.0585  13
  -5  -7   3 311.627 20.1320  15
  -5  -7   3 365.561 20.2558   4
  -5  -7   3 333.439 20.0165  10
  -5  -7   3 315.196 20.1517   9
  -5  -7   3 346.210 20.1142  12
  -4  -7   3 29.8768 2.16224  13
  -4  -7   3 27.9131 2.02508  10
  -4  -7   3 30.2862 2.12616  16
  -4  -7   3 25.0543 2.49588   9
  -3  -7   3 -0.1311 0.52293   9
  -3  -7   3 0.48675 0.50588  12
  -3  -7   3 -0.4985 0.48658   3
  -3  -7   3 -0.4209 0.46696  13
  -3  -7   3 1.41036 0.62601   4
  -3  -7   3 0.23529 0.54406  15
  -3  -7   3 0.27506 0.53876  16
  -3  -7   3 0.17849 0.37640  10
  -2  -7   3 55.9801 3.46023  12
  -2  -7   3 58.5943 3.62918  15
  -2  -7   3 53.6741 3.41728  13
  -2  -7   3 49.2065 3.35899  10
  -2  -7   3 50.4972 3.55659   9
  -2  -7   3 50.9997 3.45518   3
  -1  -7   3 52.8523 3.66633  10
  -1  -7   3 57.4502 3.77554  13
  -1  -7   3 63.8595 3.92036  15
  -1  -7   3 58.8614 3.78859   3
  -1  -7   3 61.6439 3.77801  12
   0   7  -3 251.237 14.6254   5
   0  -7   3 226.612 14.4349  10
   0  -7   3 231.018 14.7628  12
   0  -7   3 252.314 14.6193  15
   0  -7   3 237.008 14.5209   3
  -1   7  -3 724.708 41.9576   5
   1  -7   3 696.361 41.9779   5
   1  -7   3 631.525 41.7792  10
   1  -7   3 740.572 41.8775  12
  -2   7  -3 401.202 23.4825   5
   2  -7   3 416.290 23.4000  12
   2  -7   3 353.655 23.3090  10
   2  -7   3 383.147 23.3352  14
  -3   7  -3 287.779 18.6446  16
  -3   7  -3 306.541 18.7605   6
  -3   7  -3 319.852 18.7747   4
   3  -7   3 331.957 18.7962   5
   3  -7   3 300.897 18.6897  14
  -4   7  -3 704.243 42.7024   4
  -4   7  -3 713.988 42.5903  16
  -4   7  -3 715.930 42.7460   6
   4  -7   3 708.293 42.6211  12
  -5   7  -3 1372.58 81.4399   6
  -5   7  -3 1385.21 81.4095   4
  -5   7  -3 1503.26 81.4480  16
  -5   7  -3 1173.37 81.2421  11
  -6   7  -3 5.64638 1.04775  11
  -6   7  -3 3.44686 0.81476   4
  -6   7  -3 4.40708 0.75920  16
  -6   7  -3 4.49240 0.80609   6
   6  -7   3 4.97921 0.79102  12
  -7   7  -3 1.79937 0.68580  16
  -7   7  -3 1.66884 0.65930   6
  -7   7  -3 2.23966 0.69535  11
  -7   7  -3 1.57111 0.89633   1
  -7   7  -3 0.99448 0.66837   4
   7  -7   3 2.63202 0.50349  12
  -8   7  -3 20.3052 1.94301   6
  -8   7  -3 24.6335 1.82643  16
  -8   7  -3 27.2403 2.27225   4
  -8   7  -3 24.9280 1.80763  11
  -8   7  -3 23.0641 1.93033   1
  -9   7  -3 11.3800 0.85358  16
  -9   7  -3 8.90927 0.95134  11
  -7  -6   3 3.15224 0.47980  13
  -7  -6   3 3.54253 0.68027   9
  -7  -6   3 3.93796 0.88340   4
  -6  -6   3 29.4857 2.16081  15
  -6  -6   3 31.4433 2.24664   9
  -6  -6   3 32.5380 2.17476  16
  -6  -6   3 33.1419 2.13109  13
  -6  -6   3 33.8403 2.50508   4
  -5  -6   3 15.8926 1.50451  16
  -5  -6   3 15.5974 1.39956  10
  -5  -6   3 16.3098 2.02325   4
  -5  -6   3 17.9375 1.35717  13
  -5  -6   3 16.5055 1.48716  15
  -5  -6   3 17.1966 1.39567  12
  -5  -6   3 16.9509 1.51006   9
  -4  -6   3 19.9222 1.66370  16
  -4  -6   3 18.0314 1.57860  10
  -4  -6   3 19.8624 1.57629   3
  -4  -6   3 19.5011 2.01170   4
  -4  -6   3 20.3593 1.55865  13
  -4  -6   3 23.0261 1.60681  12
  -4  -6   3 19.3495 1.70879   9
  -3  -6   3 31.2461 2.37568   9
  -3  -6   3 29.7596 2.51227   4
  -3  -6   3 33.6606 2.25365   3
  -3  -6   3 29.6558 2.26459  16
  -3  -6   3 35.6210 2.39317  15
  -3  -6   3 35.2536 2.24910  12
  -3  -6   3 30.9183 2.19630  13
  -3  -6   3 31.7109 2.17446  10
   2   6  -3 268.230 16.6969   5
  -2  -6   3 310.615 16.8341  15
  -2  -6   3 277.986 16.7878   9
  -2  -6   3 286.552 16.7009   3
  -2  -6   3 269.322 16.6470  13
  -2  -6   3 266.386 16.8885  12
  -2  -6   3 252.033 16.5856  10
   1   6  -3 109.121 6.75920   5
   0   6  -3 60.6139 3.72657   5
   0   6  -3 56.9127 3.63332  17
   0  -6   3 55.7946 3.60330  17
  -1   6  -3 26.2449 1.74287  17
  -1   6  -3 26.8525 1.87661   5
   1  -6   3 25.9794 1.86529   5
   1  -6   3 27.9294 1.70849  14
   1  -6   3 23.8341 1.76041  17
   1  -6   3 25.6588 1.74633  17
  -2   6  -3 9.80150 1.03218   5
  -2   6  -3 9.70436 0.85717  17
  -2   6  -3 10.3246 0.93874  17
   2  -6   3 9.67887 0.94875  17
   2  -6   3 10.9473 0.88596  17
   2  -6   3 11.1272 0.90200  14
   2  -6   3 9.47465 1.02809   5
  -3   6  -3 82.4429 5.72186   5
   3  -6   3 99.9392 5.78966   5
   3  -6   3 94.0281 5.71998  14
  -4   6  -3 64.8803 4.90504   7
  -4   6  -3 83.9375 5.21693   4
  -4   6  -3 74.4201 5.13139   6
  -4   6  -3 74.2952 4.75207  16
   4  -6   3 81.5747 5.09024   5
   4  -6   3 73.7011 4.72926  12
  -5   6  -3 99.1180 6.75477  11
  -5   6  -3 109.431 6.90503   4
  -5   6  -3 119.666 6.94096   6
  -5   6  -3 102.427 6.96518   7
  -5   6  -3 111.221 6.75136  16
   5  -6   3 109.236 6.72566  12
  -6   6  -3 341.408 21.8690  11
  -6   6  -3 372.752 21.8317  16
  -6   6  -3 368.131 21.9677   4
  -6   6  -3 376.569 22.0358   6
  -6   6  -3 360.540 22.0574   7
   6  -6   3 350.255 21.8086  12
  -7   6  -3 28.9194 2.64885   4
  -7   6  -3 26.5256 2.40305   1
  -7   6  -3 28.0027 2.20874  11
  -7   6  -3 29.4924 2.18512  16
  -7   6  -3 27.4128 2.24550   6
   7  -6   3 26.5632 1.94634  12
  -8   6  -3 0.12733 0.52180   6
  -8   6  -3 0.14661 0.59114  16
  -8   6  -3 -0.7631 0.62447   4
  -8   6  -3 0.92500 0.54654   1
  -8   6  -3 0.14470 0.65263  11
  -9   6  -3 9.98526 1.02798  16
  -9   6  -3 12.7393 1.04384  11
  -9   6  -3 11.3690 1.39206   4
   9  -6   3 11.9184 0.91941  10
  -7  -5   3 35.7070 2.44146  16
  -7  -5   3 36.0736 2.33799  13
  -7  -5   3 38.8468 2.63403   4
  -7  -5   3 35.1357 2.43836   9
  -6  -5   3 85.4039 5.32714  13
  -6  -5   3 85.5563 5.46013   9
  -6  -5   3 85.5043 5.36031  16
  -6  -5   3 88.3698 5.60555   4
  -6  -5   3 83.8471 5.40022  15
  -5  -5   3 23.7305 1.76931  13
  -5  -5   3 21.8838 2.26727   4
  -5  -5   3 23.8532 1.78148  10
  -5  -5   3 25.6050 1.90505  15
  -5  -5   3 24.1927 1.93964   9
  -5  -5   3 26.4987 1.83598  12
  -5  -5   3 23.7212 1.90197  16
  -4  -5   3 42.8384 2.80355   3
  -4  -5   3 40.3743 2.82124  16
  -4  -5   3 45.1482 2.81896  12
  -4  -5   3 41.7514 2.78145  13
  -4  -5   3 39.3058 2.75804  10
  -4  -5   3 44.7885 2.93650  15
  -4  -5   3 41.3230 2.94537   9
  -4  -5   3 41.1031 3.11147   4
  -3  -5   3 333.680 19.7605  15
  -3  -5   3 310.392 19.6874  13
  -3  -5   3 349.929 19.8600   9
  -3  -5   3 327.478 19.5844  12
  -3  -5   3 305.563 19.6029   3
  -3  -5   3 321.293 19.8518   4
   2   5  -3 26.4351 1.75034   5
   2   5  -3 23.2926 1.63977  17
  -2  -5   3 25.5992 1.62060  17
   1   5  -3 597.872 38.1572   5
   1   5  -3 658.193 38.1206   5
   1   5  -3 639.610 38.0587  17
  -1  -5   3 648.209 38.0505  17
   0   5  -3 3.98564 0.65126   5
   0   5  -3 4.22479 0.66580   5
   0   5  -3 4.85985 0.57022  17
   0   5  -3 4.00157 0.49216  17
   0   5  -3 4.59287 0.55834  14
   0  -5   3 3.83932 0.52756  17
   0  -5   3 4.79654 0.58700   5
   0  -5   3 3.84259 0.44603  14
  -1   5  -3 546.514 33.2085  17
  -1   5  -3 561.569 33.2802   5
  -1   5  -3 542.724 33.2297  17
   1  -5   3 558.331 33.2744   5
   1  -5   3 564.238 33.2334  17
   1  -5   3 563.416 33.2037  14
   1  -5   3 546.824 33.2152  17
  -2   5  -3 241.696 14.8364  17
  -2   5  -3 241.638 14.8030  17
   2  -5   3 249.499 14.8400  17
   2  -5   3 261.869 14.8951   5
   2  -5   3 240.573 14.8299  14
   2  -5   3 242.159 14.8093  17
  -3   5  -3 39.8916 2.62587   5
  -3   5  -3 41.0038 2.54976  17
   3  -5   3 38.8653 2.64029  14
   3  -5   3 39.8701 2.61466  17
   3  -5   3 42.5536 2.66311   5
  -4   5  -3 0.96548 0.78238   6
   4  -5   3 1.92669 0.47364  14
   4  -5   3 1.70484 0.43799   5
  -5   5  -3 192.360 12.4227  11
  -5   5  -3 230.174 12.5904   6
  -5   5  -3 202.273 12.3662  16
  -5   5  -3 209.774 12.5075   4
  -5   5  -3 182.353 12.5413   7
  -6   5  -3 17.2172 1.66982  11
  -6   5  -3 17.4720 2.14564   7
  -6   5  -3 14.6402 1.92175   4
  -6   5  -3 16.5560 1.66944   6
  -6   5  -3 17.0331 1.64706  16
  -7   5  -3 475.935 28.7791   7
  -7   5  -3 439.711 28.5171   4
  -7   5  -3 484.840 28.4814  16
  -7   5  -3 545.479 28.8224  11
  -7   5  -3 478.591 28.5954   6
   7  -5   3 401.343 28.2898  12
  -8   5  -3 124.806 7.22019  16
  -8   5  -3 108.129 7.15589   1
  -8   5  -3 115.358 7.27869   6
  -8   5  -3 120.833 7.35541   4
  -8   5  -3 125.027 7.29364  11
   8  -5   3 104.161 7.08562  12
  -9   5  -3 25.5601 2.37619  16
  -9   5  -3 25.6437 2.11021   4
  -9   5  -3 32.1470 2.20150  11
  -8  -4   3 10.1707 1.13669   4
  -8  -4   3 10.2947 0.90557   9
  -8  -4   3 8.73357 0.71255  13
  -7  -4   3 115.538 7.43786  16
  -7  -4   3 124.187 7.33828   9
  -7  -4   3 125.621 7.41363   4
  -7  -4   3 117.874 7.19910  13
  -7  -4   3 106.991 7.21022  15
  -6  -4   3 21.9782 1.82861  15
  -6  -4   3 24.6700 1.93029   9
  -6  -4   3 24.6899 1.76223  13
  -6  -4   3 24.4905 2.24066   4
  -6  -4   3 26.8301 1.88998  16
  -5  -4   3 115.678 7.79607  16
  -5  -4   3 135.880 8.02579  15
  -5  -4   3 138.484 7.83096  12
  -5  -4   3 110.443 7.72451  10
  -5  -4   3 131.520 7.94232  13
  -5  -4   3 129.375 8.02145   9
  -4  -4   3 1130.18 64.0844   9
  -4  -4   3 1093.94 63.9388  13
  -4  -4   3 1137.21 64.0781  15
  -4  -4   3 937.525 63.9093  16
  -4  -4   3 925.198 64.1825   3
  -4  -4   3 1185.29 63.9710  12
   3   4  -3 17.3405 1.24256   5
   3   4  -3 17.3380 1.22403   5
   2   4  -3 695.794 40.9290   5
   2   4  -3 687.469 40.8437  17
   2   4  -3 725.356 40.9031   5
   2   4  -3 670.602 40.8799  17
  -2  -4   3 621.968 40.9151  17
  -2  -4   3 698.435 40.8370  17
   1   4  -3 14.4442 1.11617   5
   1   4  -3 14.7007 1.03233  17
   1   4  -3 14.7214 1.09763   5
   1   4  -3 14.4081 0.99979  17
  -1  -4   3 15.2910 1.01967  17
  -1  -4   3 15.3030 1.00752  17
   0   4  -3 810.770 46.8641  17
   0   4  -3 777.241 46.8586   5
   0   4  -3 753.404 46.8375  14
   0   4  -3 783.187 46.8070  17
   0   4  -3 706.216 46.8788   5
   0  -4   3 797.772 46.8138  17
   0  -4   3 836.341 46.8008  14
   0  -4   3 781.170 46.8531   5
   0  -4   3 802.813 46.8226  17
  -1   4  -3 2552.39 151.840   5
  -1   4  -3 2491.62 151.777  17
  -1   4  -3 2516.31 151.798  17
   1  -4   3 2668.20 151.806  17
   1  -4   3 2483.98 151.781  17
  -2   4  -3 659.976 39.5368  17
  -2   4  -3 654.550 39.5628  17
  -2   4  -3 656.493 39.5909   5
   2  -4   3 691.497 39.5732  17
   2  -4   3 650.397 39.5733  14
   2  -4   3 658.163 39.5968   5
   2  -4   3 657.473 39.5445  17
  -3   4  -3 560.713 33.9579  17
   3  -4   3 547.328 34.1400  17
   3  -4   3 571.345 33.9279  17
   3  -4   3 611.619 34.0005   5
   3  -4   3 565.047 33.9860  14
   3  -4   3 544.620 34.3406   5
   4  -4   3 432.622 25.0322   5
   4  -4   3 400.061 25.0435  14
  -5   4  -3 76.6553 5.64285   7
  -5   4  -3 82.2557 5.40120  16
  -5   4  -3 98.1950 5.62748   6
  -5   4  -3 90.0440 5.59181   4
  -5   4  -3 80.6291 5.47345  11
   5  -4   3 88.6991 5.36261   5
  -6   4  -3 229.161 13.9495   4
  -6   4  -3 228.278 13.8103  16
  -6   4  -3 240.786 13.9977   6
  -6   4  -3 223.460 13.8964  11
  -6   4  -3 211.592 14.0228   7
  -7   4  -3 40.2292 2.95844   6
  -7   4  -3 39.6919 2.99697  11
  -7   4  -3 40.0394 3.10593   4
  -7   4  -3 38.8330 2.87705  16
  -7   4  -3 39.2095 3.30789   7
  -8   4  -3 53.2522 3.36880  16
  -8   4  -3 52.5838 3.46838  11
  -8   4  -3 48.6501 3.38950   6
  -8   4  -3 51.9947 3.56264   4
   8  -4   3 44.1763 3.16927  12
  -9   4  -3 41.4791 2.98010  16
  -9   4  -3 38.4516 2.60657  11
  -9   4  -3 37.7881 2.71322   4
  -8  -3   3 9.87096 0.93146  13
  -8  -3   3 14.6679 1.39037   4
  -8  -3   3 11.7857 1.07811   9
  -8  -3   3 12.6787 1.13028  16
  -7  -3   3 5.69958 0.97066   9
  -7  -3   3 6.81844 1.15098  16
  -7  -3   3 6.68628 1.41453   4
  -7  -3   3 6.26093 0.79460  13
  -6  -3   3 45.6857 3.14948  16
  -6  -3   3 51.5088 3.27814   9
  -6  -3   3 48.1897 3.07869  13
  -6  -3   3 44.9227 3.39891   4
  -6  -3   3 47.6958 3.17214  15
  -5  -3   3 286.118 16.2100   9
  -5  -3   3 243.639 16.1866   4
  -5  -3   3 289.128 16.0853  12
  -5  -3   3 265.091 16.0430  13
  -5  -3   3 242.348 16.0382  16
  -5  -3   3 267.301 16.1361  15
   4   3  -3 2.69662 0.49461   8
   3   3  -3 55.7317 3.43010   5
   2   3  -3 50.7032 3.06714  17
   2   3  -3 48.1993 3.11717   5
   2   3  -3 50.3713 3.10736   5
  -2  -3   3 53.2601 3.05856  17
  -2  -3   3 48.9266 3.05859  17
   1   3  -3 37.9072 2.43929  17
   1   3  -3 38.5524 2.45535  14
   1   3  -3 40.2215 2.46479  17
   1   3  -3 42.0736 2.51283   5
   1   3  -3 37.7833 2.50870   5
  -1  -3   3 41.9081 2.45965  17
  -1  -3   3 40.5187 2.44490  17
   0   3  -3 131.332 8.28499  14
   0   3  -3 123.242 8.30577   5
   0   3  -3 135.519 8.29603   5
   0   3  -3 141.883 8.27076  17
   0   3  -3 137.337 8.25124  17
   0  -3   3 153.888 8.26109  14
   0  -3   3 135.174 8.25336  17
   0  -3   3 133.239 8.28226   5
   0  -3   3 143.706 8.26886  17
  -1   3  -3 1439.85 92.9881   5
  -1   3  -3 1601.89 92.9377  17
  -1   3  -3 1572.16 92.9642   5
  -1   3  -3 1515.96 92.9823  14
  -1   3  -3 1588.54 92.9191  17
   1  -3   3 1483.00 92.9834   5
   1  -3   3 1635.02 92.9372  17
   1  -3   3 1613.77 92.9253  17
  -2   3  -3 1469.81 89.4371   5
  -2   3  -3 1489.36 89.4161  17
  -2   3  -3 1560.06 89.3967   8
   2  -3   3 1517.60 89.4174  17
   2  -3   3 1448.47 89.3929  17
  -3   3  -3 48.0117 3.15607   5
  -3   3  -3 51.4885 3.11203  17
   3  -3   3 53.7260 3.19036   5
   3  -3   3 49.5997 3.17176  17
  -4   3  -3 14.0901 1.00308  17
   4  -3   3 15.3384 1.13568   5
   4  -3   3 14.3259 1.22726  14
  -5   3  -3 45.1092 2.93799   6
  -5   3  -3 37.2814 2.85740  11
  -5   3  -3 37.1457 3.08170   7
  -5   3  -3 41.1838 2.76726  16
  -5   3  -3 38.8486 2.92468   4
   5  -3   3 39.6663 2.59298   5
  -6   3  -3 47.9565 3.68191   7
  -6   3  -3 47.2752 3.27381  16
  -6   3  -3 47.7778 3.42474  11
  -6   3  -3 52.6687 3.46966   6
  -6   3  -3 47.2052 3.49141   4
  -6   3  -3 46.1596 3.28536   1
  -7   3  -3 46.4911 3.54046   4
  -7   3  -3 48.7210 3.86215   7
  -7   3  -3 48.4348 3.47349  11
  -7   3  -3 49.0988 3.37752  16
  -7   3  -3 47.2869 3.67878   6
  -8   3  -3 115.622 7.08931  11
  -8   3  -3 116.689 7.13749   4
  -8   3  -3 99.3821 6.92958   6
  -8   3  -3 118.306 6.99177  16
  -9   3  -3 384.940 24.7780  16
  -9   3  -3 403.356 24.8554  11
  -9   3  -3 452.489 25.0170   4
  -8  -2   3 49.2196 3.41165   4
  -8  -2   3 48.1052 3.04882   9
  -8  -2   3 39.8680 2.83589  13
  -7  -2   3 5.51017 1.00776  15
  -7  -2   3 8.22607 1.18527  16
  -7  -2   3 9.13464 1.38931   4
  -7  -2   3 7.31049 0.83224  13
  -7  -2   3 7.54155 1.02938   9
  -6  -2   3 35.9638 2.70074  11
  -6  -2   3 36.0190 2.67636   1
  -6  -2   3 43.9464 2.75137  15
  -6  -2   3 47.2082 2.87364   9
  -6  -2   3 43.2406 2.66223  13
  -6  -2   3 37.7723 3.38403   4
  -6  -2   3 39.1314 2.71901  16
   5   2  -3 217.031 13.2704   8
  -5  -2   3 214.560 13.2527  13
  -5  -2   3 234.271 13.4060   9
  -5  -2   3 191.557 13.3651   4
  -5  -2   3 238.253 13.3853  15
   3   2  -3 426.666 26.0057  14
   3   2  -3 442.335 26.0333   8
   3   2  -3 433.778 25.9664  14
   2   2  -3 293.866 17.5282  14
   2   2  -3 295.241 17.5064  17
   2   2  -3 284.913 17.5486   5
  -2  -2   3 307.538 17.5101  17
  -2  -2   3 283.221 17.5137  17
   1   2  -3 144.743 8.70882  17
   1   2  -3 150.804 8.71808  14
   1   2  -3 143.504 8.72986   5
   1   2  -3 137.486 8.73635   5
  -1  -2   3 146.387 8.69856  17
  -1  -2   3 147.662 8.70632  17
   0   2  -3 134.139 8.02382  14
   0   2  -3 134.832 8.02513   5
   0   2  -3 132.937 8.00046  17
   0   2  -3 124.543 8.03026   5
   0  -2   3 133.507 7.99009  17
   0  -2   3 136.097 7.99777  17
   0  -2   3 149.274 8.00911  14
   0  -2   3 116.194 8.02128   5
   0  -2   3 136.222 8.01909   5
  -1   2  -3 728.063 40.7787  17
  -1   2  -3 700.345 40.7919  17
  -1   2  -3 652.470 40.8330   5
  -1   2  -3 612.706 40.9469  14
   1  -2   3 659.878 40.8286   5
   1  -2   3 726.989 40.7915  17
   1  -2   3 684.165 40.8089   5
   1  -2   3 681.350 40.7968  14
   1  -2   3 696.794 40.7789  17
  -2   2  -3 377.707 22.2451  17
  -2   2  -3 364.644 22.3680   5
  -2   2  -3 365.525 22.2172  17
   2  -2   3 354.100 22.2934   5
   2  -2   3 390.345 22.2690   5
   2  -2   3 384.836 22.2439  17
   2  -2   3 371.048 22.2628  14
   2  -2   3 363.300 22.2211  17
  -3   2  -3 59.2968 3.74648  17
  -3   2  -3 59.5229 3.86277   5
   3  -2   3 63.8043 3.84013  14
   3  -2   3 66.4248 3.81784   5
   3  -2   3 62.6338 3.79835  17
   3  -2   3 58.0154 3.86992   5
  -4   2  -3 56.3527 3.80508  17
   4  -2   3 65.5971 3.88125   5
   4  -2   3 62.2651 3.89826  17
   4  -2   3 65.4356 3.93814  14
  -5   2  -3 157.905 9.81377  11
  -5   2  -3 177.505 9.78198   9
  -5   2  -3 153.247 9.80301   4
  -5   2  -3 151.130 9.91932   7
  -5   2  -3 148.520 9.68432  16
  -5   2  -3 165.656 10.0175   6
  -5   2  -3 147.840 9.83180   2
   5  -2   3 165.719 9.62883   5
  -6   2  -3 11.5495 1.47423  16
  -6   2  -3 11.9047 1.67271   4
  -6   2  -3 9.64490 2.01498   7
  -6   2  -3 14.2589 1.48013   9
  -6   2  -3 14.8442 1.42669   6
  -6   2  -3 8.87030 1.59817  11
  -7   2  -3 1.32545 0.99401  11
  -7   2  -3 3.27587 1.44784   7
  -7   2  -3 2.10623 0.63936   6
  -8   2  -3 739.263 42.7136  16
  -8   2  -3 687.923 42.7706   4
  -8   2  -3 708.017 42.7720  11
  -9   2  -3 1.91785 0.42154  16
  -9   2  -3 1.34351 0.40696   4
  -9  -1   3 115.184 6.99975  16
  -9  -1   3 114.908 7.04890   4
  -8  -1   3 557.302 33.8178   9
  -8  -1   3 554.827 33.8726   4
  -8  -1   3 562.717 33.7879  16
  -8  -1   3 577.877 33.7834  11
  -7  -1   3 67.5389 4.09831  15
  -7  -1   3 59.4367 4.09372  11
  -7  -1   3 60.9774 4.04309   1
  -7  -1   3 64.9236 4.11661  16
  -7  -1   3 59.7501 4.00033  13
  -7  -1   3 70.2671 4.18168   9
  -7  -1   3 64.1586 4.27443   4
  -6  -1   3 4.05326 0.77892  15
  -6  -1   3 1.38884 0.53460   9
  -6  -1   3 2.94703 0.64221   4
  -6  -1   3 1.88944 0.59501  11
  -6  -1   3 2.62449 0.55756  16
  -6  -1   3 2.40120 0.48645  13
   5   1  -3 2617.87 159.934  14
   5   1  -3 2737.00 159.932   8
   4   1  -3 66.1550 3.97532   8
   4   1  -3 61.8366 3.99366  14
   3   1  -3 223.063 13.4212   8
   2   1  -3 5.84562 0.48343   5
   2   1  -3 5.74342 0.44234  17
   2   1  -3 5.78892 0.46916   5
   2   1  -3 5.45493 0.57226   8
  -2  -1   3 6.34833 0.42961  17
   1   1  -3 644.735 38.5948   5
   1   1  -3 666.359 38.5790  17
   1   1  -3 660.988 38.5704  17
   1   1  -3 646.531 38.6104   8
   1   1  -3 638.766 38.5914  14
   1   1  -3 638.186 38.6004   5
  -1  -1   3 576.695 38.5912   5
  -1  -1   3 674.393 38.5735  17
  -1  -1   3 666.888 38.5939   5
   0   1  -3 1074.09 61.8331   5
   0   1  -3 1016.48 61.8394   5
   0   1  -3 1055.66 61.8011  17
   0   1  -3 1020.89 61.8192   8
   0  -1   3 972.865 61.8326   5
   0  -1   3 1071.27 61.8046  17
  -1   1  -3 820.464 52.7695   8
  -1   1  -3 906.469 52.7750  17
  -1   1  -3 883.109 52.8084   5
  -1   1  -3 944.589 52.7915  17
  -1   1  -3 835.563 52.8203   5
   1  -1   3 841.825 52.8163   5
   1  -1   3 912.484 52.7771  17
   1  -1   3 925.732 52.8074   5
  -2   1  -3 156.032 9.68185  17
  -2   1  -3 172.658 9.71315  17
  -2   1  -3 151.039 9.71677   5
   2  -1   3 155.585 9.75078   5
   2  -1   3 159.848 9.68707  17
   2  -1   3 164.502 9.72270   5
   2  -1   3 171.437 9.70621  17
   2  -1   3 160.162 9.72323  14
  -3   1  -3 3.29527 0.49516   5
   3  -1   3 3.06857 0.55642   5
   3  -1   3 3.65697 0.56838  14
   3  -1   3 3.99821 0.52410   5
   4  -1   3 545.953 32.4668  14
   4  -1   3 537.108 32.4417   5
  -5   1  -3 40.6028 2.93508  16
  -5   1  -3 45.0317 3.13796   6
  -5   1  -3 42.4810 3.32929   7
  -5   1  -3 39.2308 3.14791   2
  -5   1  -3 44.4089 3.06287  11
  -5   1  -3 47.7886 2.98698   9
  -5   1  -3 40.3708 3.06070   4
  -6   1  -3 224.814 14.0394   7
  -6   1  -3 225.209 13.7998  16
  -6   1  -3 228.254 13.9294  11
  -6   1  -3 210.422 13.9344   2
  -6   1  -3 234.669 13.8496   9
  -6   1  -3 235.541 13.8915   6
  -7   1  -3 279.005 16.5729  11
  -7   1  -3 261.984 16.4691   9
  -7   1  -3 268.260 16.4422  16
  -7   1  -3 268.173 16.5463   4
  -7   1  -3 278.080 16.6597   7
  -8   1  -3 2.03133 0.66366  16
  -8   1  -3 1.76795 0.69313  11
  -8   1  -3 1.63088 0.64935   4
  -9   0   3 0.90285 0.41132  11
  -9   0   3 0.60357 0.64070   4
  -9   0   3 1.41438 0.46386  16
  -8   0   3 36.3520 2.47032  16
  -8   0   3 37.8946 2.47706  11
  -8   0   3 34.8621 2.61671   4
  -8   0   3 31.3914 2.33767   1
  -7   0   3 15.7541 1.36628  16
  -7   0   3 13.0704 1.26136  15
  -7   0   3 14.4176 1.31350   1
  -7   0   3 13.3933 1.36681  11
  -7   0   3 15.1311 1.35757   9
  -7   0   3 18.0555 1.56673   4
  -6   0   3 1214.70 75.3598  16
  -6   0   3 1403.58 75.4818   9
  -6   0   3 1271.28 75.3399  13
  -6   0   3 1166.83 75.5219   4
  -6   0   3 1221.79 75.4019  11
  -6   0   3 1281.97 75.4062   1
   5   0  -3 620.015 37.8463  14
   5   0  -3 640.982 37.7767   8
   4   0  -3 26.4445 1.92730  14
   4   0  -3 29.8003 1.85747   8
   3   0  -3 353.446 21.1971   8
   1   0  -3 325.213 18.9458   5
   1   0  -3 307.893 18.9471   8
   1   0  -3 324.514 18.9189  17
   1   0  -3 317.289 18.9346  14
   1   0  -3 324.982 18.9196  17
  -1   0   3 323.998 18.9120  17
  -1   0   3 294.922 18.9346   5
  -1   0   3 305.227 18.9473   8
  -1   0   3 335.246 18.9199  17
  -1   0   3 305.043 18.9352   5
   0   0  -3 62.6570 3.94799   5
   0   0  -3 60.0845 3.93429   8
   0   0  -3 63.9600 3.94196  14
   0   0  -3 63.0853 3.95061   5
   0   0  -3 66.4397 3.91801  17
   0   0  -3 65.5612 3.92340  17
   0   0   3 60.2429 3.94217   5
   0   0   3 67.6896 3.91424  17
   0   0   3 61.4953 3.93057   8
   0   0   3 70.0296 3.93866  14
   0   0   3 66.8802 3.94630   5
   0   0   3 69.1254 3.92240  17
  -1   0  -3 570.326 30.4769  14
  -1   0  -3 473.685 30.3852   8
  -1   0  -3 508.318 30.3866  17
  -1   0  -3 507.432 30.3815  17
  -1   0  -3 487.925 30.4149   5
   1   0   3 501.739 30.3817   8
   1   0   3 469.044 30.4138   5
   1   0   3 523.322 30.3831  17
   1   0   3 527.943 30.3813  17
   1   0   3 513.727 30.4089   5
  -2   0  -3 16.1103 1.11369  17
  -2   0  -3 14.9560 1.13987   5
   2   0   3 16.6962 1.12762  14
   2   0   3 17.1560 1.14385   5
   2   0   3 16.9287 1.09623  17
   2   0   3 16.0774 1.09093  17
  -3   0  -3 363.207 22.7882  17
  -3   0  -3 357.763 22.8515   5
   3   0   3 387.025 22.8160  14
   3   0   3 380.722 22.8055  17
   3   0   3 414.273 22.8394   5
  -4   0  -3 345.280 22.3653   2
  -4   0  -3 356.776 22.2563  10
   4   0   3 373.068 22.0900  14
   4   0   3 396.081 22.1114   5
  -5   0  -3 9.66584 1.48031   4
  -5   0  -3 9.91558 1.81313   7
  -5   0  -3 8.26259 1.53233   2
  -5   0  -3 10.1493 1.69844   6
  -5   0  -3 10.1039 1.32392  16
  -5   0  -3 9.69171 1.15280   9
  -5   0  -3 7.64784 1.32419  11
  -6   0  -3 0.02703 0.66083  16
  -6   0  -3 -0.2823 0.79403  11
  -6   0  -3 0.03686 0.47650   9
  -6   0  -3 -0.2757 0.67687   4
  -6   0  -3 0.05440 0.89203   7
  -6   0  -3 -0.2540 0.63546   2
  -7   0  -3 16.4713 1.81127  11
  -7   0  -3 16.6993 1.50125   9
  -7   0  -3 19.4092 1.71467  16
  -7   0  -3 17.3629 1.82222   4
  -7   0  -3 19.0159 1.96633   7
  -8   0  -3 393.097 22.9671   4
  -8   0  -3 382.533 22.8967  16
  -8   0  -3 368.240 22.9480  11
  -9   1   3 225.748 13.0189  11
  -9   1   3 202.107 13.0071   4
  -9   1   3 216.890 12.9870  16
  -8   1   3 229.771 12.9986  11
  -8   1   3 203.465 12.8999   1
  -8   1   3 213.846 12.9114  16
  -8   1   3 203.001 12.9649   4
  -7   1   3 0.49574 0.48544  11
  -7   1   3 0.77561 0.51888   4
  -7   1   3 0.29983 0.46916  16
  -7   1   3 -0.5136 0.43389   1
  -6   1   3 311.347 19.3131  11
  -6   1   3 295.803 19.3185   4
  -6   1   3 351.829 19.3754   1
   5  -1  -3 0.96824 0.41149  14
   4  -1  -3 4.81197 0.60584   8
   4  -1  -3 5.08519 0.78216  14
   2  -1  -3 1272.03 73.7293   5
   2  -1  -3 1287.28 73.6954  17
   2  -1  -3 1208.10 73.7328   8
   2  -1  -3 1179.72 73.7068   5
   2  -1  -3 1247.37 73.6840  17
  -2   1   3 1267.84 73.6951  17
  -2   1   3 1177.52 73.7274   8
   1  -1  -3 183.469 11.1700   5
   1  -1  -3 189.022 11.1292  17
   1  -1  -3 191.218 11.2050   8
   1  -1  -3 174.887 11.1481   5
   1  -1  -3 191.395 11.1377  17
   1  -1  -3 180.973 11.1414  14
  -1   1   3 174.718 11.1521   5
  -1   1   3 187.559 11.1703   5
  -1   1   3 182.198 11.1645   8
  -1   1   3 192.387 11.1250  17
  -1   1   3 194.855 11.1394  17
   0  -1  -3 456.395 30.8259   5
   0  -1  -3 495.940 30.8138  14
   0  -1  -3 515.376 30.8345   8
   0  -1  -3 510.223 30.8466   5
   0  -1  -3 548.040 30.8146  17
   0  -1  -3 539.041 30.8052  17
   0   1   3 502.763 30.8353   5
   0   1   3 494.875 30.8425   5
   0   1   3 542.982 30.7999  17
   0   1   3 560.025 30.8149  17
   0   1   3 503.794 30.8252   8
  -1  -1  -3 25.9315 1.79941   5
  -1  -1  -3 28.0253 1.73557  17
  -1  -1  -3 26.4910 1.73639  17
  -1  -1  -3 27.0384 1.77829   8
   1   1   3 28.4942 1.75141  14
   1   1   3 28.9557 1.99030   5
   1   1   3 25.5072 1.73552   8
   1   1   3 26.8072 1.77250   5
   1   1   3 28.4185 1.72048  17
   1   1   3 28.9910 1.74465  17
  -2  -1  -3 700.545 44.4020  17
  -2  -1  -3 774.411 44.4220  17
  -2  -1  -3 698.379 44.4335   5
   2   1   3 795.772 44.4035  17
   2   1   3 720.333 44.4433   5
   2   1   3 708.440 44.3765   8
   2   1   3 785.958 44.3816  17
   2   1   3 718.177 44.3801  14
   2   1   3 781.246 44.4288   5
  -3  -1  -3 7.26671 0.67322  17
   3   1   3 8.84741 0.83171   5
  -4  -1  -3 20.2881 1.81522  10
  -4  -1  -3 23.0777 1.65883  13
  -4  -1  -3 23.8683 1.92143  16
  -4  -1  -3 25.9992 1.86020   9
  -4  -1  -3 26.7550 2.21917   7
  -4  -1  -3 22.7385 2.03560   2
   4   1   3 25.8057 1.72877   5
  -5  -1  -3 42.5816 2.78523   9
  -5  -1  -3 37.3170 3.17589   2
  -5  -1  -3 38.0225 2.85740  16
  -5  -1  -3 39.9937 2.54495  13
  -5  -1  -3 36.2450 3.04601   4
  -6  -1  -3 20.2881 2.02226   4
  -6  -1  -3 21.1537 2.27742  11
  -6  -1  -3 21.0052 2.11730   2
  -6  -1  -3 19.8745 1.90104  16
  -6  -1  -3 22.1135 1.80017   9
  -6  -1  -3 21.5582 1.54431  13
  -7  -1  -3 -0.5473 0.60135  16
  -7  -1  -3 -0.5240 0.61579   7
  -7  -1  -3 -0.2495 0.57253   4
  -7  -1  -3 0.18510 0.49145   9
  -8  -1  -3 20.0094 1.49113   9
  -8  -1  -3 21.4300 1.72436   4
  -8  -1  -3 25.2027 1.65438  16
 -10   2   3 2.39980 0.42459  11
  -9   2   3 14.1470 1.16990   1
  -9   2   3 15.4822 1.62949  16
  -9   2   3 11.3014 1.28581   4
  -8   2   3 12.9690 1.64513   4
  -8   2   3 16.6817 1.86311  11
  -7   2   3 10.8500 1.22667  11
  -7   2   3 9.63163 1.12508  15
  -7   2   3 10.2529 1.31115   1
  -7   2   3 12.2920 1.19036  16
  -6   2   3 81.9392 5.91455  11
  -6   2   3 90.4707 5.98951   1
  -6   2   3 100.828 5.96325   6
  -6   2   3 106.319 6.00502  15
   5  -2  -3 2.18206 0.46481   8
   5  -2  -3 1.12456 0.46211  14
   4  -2  -3 636.303 39.0117   5
   4  -2  -3 669.827 39.0508   8
   4  -2  -3 691.173 39.1748  14
   4  -2  -3 648.084 38.9531  17
   4  -2  -3 682.625 39.0331   5
  -4   2   3 654.031 38.9708  17
  -4   2   3 582.800 38.9425  17
   3  -2  -3 1.27041 0.37588   8
   3  -2  -3 1.02080 0.26080  17
   3  -2  -3 0.72601 0.31870   5
   3  -2  -3 0.97719 0.22583  17
  -3   2   3 1.32127 0.33672   5
  -3   2   3 0.82498 0.19238  17
   2  -2  -3 2084.40 117.604  17
   2  -2  -3 1943.23 117.655   8
   2  -2  -3 1781.07 117.622   5
   2  -2  -3 2031.28 117.617  17
  -2   2   3 2035.83 117.598  17
  -2   2   3 2044.63 117.619  17
  -2   2   3 1869.89 117.648   5
   1  -2  -3 103.821 6.51553  14
   1  -2  -3 98.9332 6.56889   5
   1  -2  -3 106.786 6.58057   5
   1  -2  -3 111.884 6.53095  17
   1  -2  -3 106.706 6.56645   8
   1  -2  -3 106.246 6.50468  17
  -1   2   3 113.612 6.53458  17
  -1   2   3 113.443 6.57998   5
  -1   2   3 110.181 6.50646  17
   0  -2  -3 57.9410 3.47190  17
   0  -2  -3 58.4853 3.49947  17
   0  -2  -3 55.6680 3.55429   5
   0  -2  -3 56.8501 3.53614   8
   0   2   3 60.7113 3.46896  17
   0   2   3 56.7563 3.54825   5
   0   2   3 50.1470 3.51197   5
   0   2   3 57.9824 3.49927  17
  -1  -2  -3 204.268 11.8986  17
  -1  -2  -3 183.344 11.9643   5
  -1  -2  -3 207.264 11.9612   8
  -1  -2  -3 196.074 11.9420  14
  -1  -2  -3 199.318 11.9209  17
   1   2   3 180.223 12.0951   5
   1   2   3 192.148 11.9585   5
   1   2   3 204.777 11.9256  17
   1   2   3 215.062 11.8985  17
  -2  -2  -3 782.414 49.3955   5
  -2  -2  -3 796.278 49.2235  17
   2   2   3 836.751 49.2024  17
   2   2   3 876.991 49.3008   5
  -3  -2  -3 20.4223 1.82715  10
  -3  -2  -3 25.8114 1.84046   9
   3   2   3 23.2841 1.73320   5
  -4  -2  -3 77.9014 5.52595   4
  -4  -2  -3 85.2092 5.41837  10
  -4  -2  -3 90.5282 5.67327   7
  -4  -2  -3 92.0140 5.51741   9
  -4  -2  -3 89.3043 5.48409  16
  -4  -2  -3 88.3806 5.36300  13
  -4  -2  -3 82.0923 5.58202   2
  -5  -2  -3 29.4843 2.31187  10
  -5  -2  -3 30.7182 2.41832  16
  -5  -2  -3 29.0724 2.47310   4
  -5  -2  -3 33.1727 2.10481  13
  -5  -2  -3 32.0981 2.31740   9
  -5  -2  -3 28.7251 2.63225   7
  -5  -2  -3 31.6381 2.37580  11
  -5  -2  -3 30.2384 2.58015   2
  -6  -2  -3 8.57230 1.57671   2
  -6  -2  -3 8.43865 1.35503  16
  -6  -2  -3 10.1594 1.31546  11
  -6  -2  -3 9.73380 1.42931   7
  -6  -2  -3 9.68929 1.22031   9
  -6  -2  -3 9.10701 0.86680  13
  -6  -2  -3 9.71155 1.52980   4
  -7  -2  -3 223.048 12.8591  16
  -7  -2  -3 201.377 12.8836   9
  -7  -2  -3 221.973 12.9084   4
  -7  -2  -3 202.783 12.8017  11
 -10   3   3 22.8016 1.52130  11
 -10   3   3 19.5038 1.54594  16
  -9   3   3 39.4482 2.91750   1
  -9   3   3 37.6138 2.62378  11
  -8   3   3 -0.3406 0.50924   4
  -8   3   3 1.48072 0.66011  11
  -7   3   3 96.7205 6.22821  15
  -7   3   3 92.6935 5.95267  16
  -7   3   3 101.989 6.12716   1
  -7   3   3 90.3694 6.00241  11
  -6   3   3 69.4221 4.88632  16
  -6   3   3 82.9442 4.98460   6
  -6   3   3 87.3146 5.08937  15
  -6   3   3 73.7392 5.05630   1
   5  -3  -3 1.70064 0.39959   5
   5  -3  -3 2.03743 0.50365   8
   5  -3  -3 0.49135 0.60196  14
   4  -3  -3 235.907 15.7995   5
   4  -3  -3 276.318 15.8957   8
   4  -3  -3 286.768 15.8964   5
   4  -3  -3 245.951 15.7464  17
   4  -3  -3 267.976 15.9603  14
  -4   3   3 275.599 15.8370   5
  -4   3   3 251.049 15.7685  17
   3  -3  -3 994.246 56.5203   5
   3  -3  -3 1004.21 56.4635  17
   3  -3  -3 867.497 56.4660   5
   3  -3  -3 940.354 56.4217  17
   3  -3  -3 968.540 56.5032   8
  -3   3   3 895.565 56.4835   5
  -3   3   3 911.807 56.5870  17
  -3   3   3 972.637 56.4311  17
   2  -3  -3 66.0714 4.12455  17
   2  -3  -3 69.2616 4.23891   5
   2  -3  -3 68.2299 4.21157   8
   2  -3  -3 68.4424 4.16338  17
  -2   3   3 69.2379 4.16747  17
  -2   3   3 65.9294 4.12155  17
  -2   3   3 66.4362 4.22083   5
   1  -3  -3 1078.88 63.8803  17
   1  -3  -3 1040.26 63.8509  17
   1  -3  -3 1062.28 63.9464   5
   1  -3  -3 1077.11 63.9217   8
  -1   3   3 1048.06 63.8526  17
  -1   3   3 1080.80 63.9454   5
  -1   3   3 1094.75 63.8852  17
   0  -3  -3 1387.55 84.5951   5
   0  -3  -3 1330.70 84.4970  14
   0  -3  -3 1340.96 84.4976  17
   0  -3  -3 1425.91 84.5769   8
   0  -3  -3 1412.34 84.5320  17
   0   3   3 1469.21 84.5423  17
   0   3   3 1514.37 84.6139   5
   0   3   3 1438.27 84.5066  17
  -1  -3  -3 519.853 29.1984   8
  -1  -3  -3 455.607 29.1066  17
  -1  -3  -3 455.069 29.1543  17
  -1  -3  -3 457.883 29.1428  14
  -1  -3  -3 481.332 29.2115   5
   1   3   3 530.229 29.2281   5
   1   3   3 479.042 29.2274  17
   1   3   3 511.484 29.1603  17
   2   3   3 514.207 30.9139   5
  -3  -3  -3 1.10651 0.59154  16
  -3  -3  -3 0.87261 0.46734  10
  -3  -3  -3 1.14452 0.55505   2
  -3  -3  -3 1.21158 0.71692   7
  -3  -3  -3 2.08404 0.64996   4
  -4  -3  -3 132.042 8.33310  16
  -4  -3  -3 130.443 8.44962   2
  -4  -3  -3 139.579 8.23887  13
  -4  -3  -3 133.834 8.27454  10
  -4  -3  -3 144.526 8.40001   9
  -4  -3  -3 127.001 8.39826   4
  -5  -3  -3 34.4524 2.92604  11
  -5  -3  -3 34.7236 2.59791  10
  -5  -3  -3 34.5587 2.68646  16
  -5  -3  -3 35.6410 2.83555   4
  -5  -3  -3 38.3768 2.94041   2
  -5  -3  -3 37.0916 2.64462   9
  -5  -3  -3 39.0277 2.47825  13
  -6  -3  -3 35.0230 2.64185   9
  -6  -3  -3 40.2236 2.83098   2
  -6  -3  -3 38.0091 2.75284   4
  -6  -3  -3 38.7176 2.52129  13
  -6  -3  -3 39.0540 2.65615  16
  -7  -3  -3 0.90746 0.52965  16
  -7  -3  -3 1.04848 0.46474   9
 -10   4   3 34.6912 2.54409   1
 -10   4   3 41.4745 2.69486  16
 -10   4   3 46.3959 2.70928  11
  -9   4   3 129.554 8.00492   1
  -9   4   3 130.205 7.98254  11
  -8   4   3 1.02556 0.57464  16
  -8   4   3 0.86644 0.69509  11
  -8   4   3 0.02087 0.68609   1
  -7   4   3 475.962 30.3856  15
  -7   4   3 508.295 30.3099  16
  -7   4   3 526.665 30.4730   1
  -7   4   3 506.567 30.3632  11
  -6   4   3 247.070 14.0949  15
  -6   4   3 223.523 14.0345   1
  -6   4   3 221.786 13.9346  11
  -6   4   3 225.230 13.8877  16
   5  -4  -3 5.09974 1.06353  14
   5  -4  -3 4.48182 0.78340   8
   5  -4  -3 5.18411 0.88688   5
  -5   4   3 4.91820 1.08959   1
  -5   4   3 6.71309 0.83300   6
  -5   4   3 3.96645 0.64924  11
   4  -4  -3 165.532 9.60612   5
   4  -4  -3 163.841 9.57563   8
   4  -4  -3 159.276 9.68180  14
  -4   4   3 137.379 9.60328  17
   3  -4  -3 11.6580 0.97090  17
   3  -4  -3 13.0869 1.22470  14
   3  -4  -3 13.0729 1.04902  17
   3  -4  -3 13.0086 1.19174   5
   3  -4  -3 12.6747 1.12615   8
  -3   4   3 12.8613 1.07121   5
  -3   4   3 12.6472 0.99257  17
  -3   4   3 13.0672 0.93957  17
   2  -4  -3 411.470 24.8345  17
   2  -4  -3 410.687 24.9147   8
   2  -4  -3 426.652 24.9536   5
   2  -4  -3 411.867 24.8696  17
  -2   4   3 419.502 24.8759  17
  -2   4   3 386.485 24.8262  17
  -2   4   3 434.457 24.9639   5
   1  -4  -3 269.288 15.9227  17
   1  -4  -3 271.023 16.0060   5
   1  -4  -3 249.939 15.8694  17
   1  -4  -3 262.875 15.9645   8
  -1   4   3 252.336 15.8737  17
  -1   4   3 265.558 15.9267  17
  -1   4   3 279.121 16.0154   5
   0  -4  -3 658.953 39.9433   5
   0  -4  -3 649.760 39.8611  17
   0  -4  -3 666.307 39.9154   8
   0   4   3 674.622 39.8784  17
   0   4   3 683.703 39.9475   5
   0   4   3 659.513 39.8266  17
   1   4   3 2.82180 0.60171   5
  -2  -4  -3 1393.35 80.5551  12
  -2  -4  -3 1445.59 80.6351   9
  -2  -4  -3 1327.33 80.6061  15
  -2  -4  -3 1241.58 80.8085   4
  -2  -4  -3 1311.74 80.5855   2
  -2  -4  -3 1276.68 80.4844  10
  -2  -4  -3 1389.31 80.5192  13
   2   4   3 1387.18 80.6487   5
  -3  -4  -3 2653.73 158.583   9
  -3  -4  -3 3029.76 158.792   2
  -3  -4  -3 2410.46 158.572   7
  -3  -4  -3 2340.70 158.536   4
  -3  -4  -3 2391.01 158.545  15
  -3  -4  -3 2666.12 158.692  10
  -3  -4  -3 2677.19 158.489  13
  -3  -4  -3 3055.68 158.730  16
  -4  -4  -3 0.47573 0.53266  13
  -4  -4  -3 0.24439 0.65648   4
  -4  -4  -3 -0.2617 0.62997   2
  -4  -4  -3 0.04241 0.69720  16
  -4  -4  -3 0.14602 0.55579   9
  -4  -4  -3 -0.1344 0.54250  10
  -5  -4  -3 40.2518 2.72996  13
  -5  -4  -3 43.4364 2.93632  16
  -5  -4  -3 42.4526 3.04761   2
  -5  -4  -3 42.1656 2.85455  10
  -5  -4  -3 41.7099 2.97323   4
  -5  -4  -3 39.9681 2.91246   9
  -6  -4  -3 76.6649 4.96498  13
  -6  -4  -3 76.3584 5.08504   9
  -6  -4  -3 82.1552 5.05568  16
  -6  -4  -3 85.5494 5.10656   4
  -6  -4  -3 85.0348 5.12450   2
 -10   5   3 152.761 8.64902  11
 -10   5   3 135.437 8.63960   1
 -10   5   3 140.943 8.67378  16
  -9   5   3 57.5544 3.49802  11
  -9   5   3 45.4481 3.25695  16
  -9   5   3 50.7004 3.67543   1
  -8   5   3 100.541 6.28658   1
  -8   5   3 97.5053 6.15992  11
  -8   5   3 96.9218 6.10649  16
  -7   5   3 47.7387 3.24976  11
  -7   5   3 49.4925 3.18913  16
  -7   5   3 47.7903 3.40754   1
  -7   5   3 46.5025 3.25982  15
  -6   5   3 6.88094 0.98949  16
  -6   5   3 6.69521 1.05768  11
  -6   5   3 5.82306 1.01588  15
  -6   5   3 5.92041 1.22516   1
   5  -5  -3 354.524 20.0868   5
  -5   5   3 314.410 19.9347   1
  -5   5   3 327.118 19.7950  16
  -5   5   3 319.621 19.8284  11
   4  -5  -3 463.786 29.0998  14
   4  -5  -3 499.947 29.0663   5
   3  -5  -3 292.814 17.7636  14
   3  -5  -3 278.787 17.7017   8
   3  -5  -3 306.416 17.7726   5
   2  -5  -3 120.547 7.35481   8
   2  -5  -3 104.690 7.21468  17
   2  -5  -3 128.133 7.42072   5
   2  -5  -3 114.082 7.28225  17
   2  -5  -3 125.927 7.35772  14
  -2   5   3 115.667 7.29459  17
  -2   5   3 130.347 7.42681   5
  -2   5   3 109.765 7.22508  17
   1  -5  -3 64.5151 4.05669   5
   1  -5  -3 55.6947 3.84468  17
   1  -5  -3 63.0082 3.99789   8
   1  -5  -3 58.2148 3.91116  17
   1  -5  -3 63.7454 3.92367  14
  -1   5   3 72.2177 4.11501   5
  -1   5   3 61.1162 3.93704  17
  -1   5   3 55.2125 3.83496  17
   0  -5  -3 45.3625 3.17720  15
   0  -5  -3 42.1103 2.97263  13
   0   5   3 50.3828 3.19734   5
  -1  -5  -3 491.078 27.9103   9
  -1  -5  -3 428.457 28.0310   4
  -1  -5  -3 447.728 27.7534  10
  -1  -5  -3 475.419 27.7895  13
  -1  -5  -3 478.608 27.8272  12
  -1  -5  -3 485.416 27.9224  15
  -1  -5  -3 410.598 27.8280   7
  -1  -5  -3 461.964 27.8446   2
   1   5   3 486.064 27.9830   5
  -2  -5  -3 254.798 14.8972  12
  -2  -5  -3 246.352 14.8569  10
  -2  -5  -3 262.408 15.0086   2
  -2  -5  -3 257.263 14.9578   9
  -2  -5  -3 221.994 14.9319   4
  -2  -5  -3 249.727 14.8504  13
  -2  -5  -3 244.250 14.9507  15
  -2  -5  -3 227.049 15.0229   7
  -3  -5  -3 336.474 19.9974  16
  -3  -5  -3 317.562 20.0603   4
  -3  -5  -3 334.052 19.9616  13
  -3  -5  -3 330.046 20.0824   2
  -3  -5  -3 331.487 19.9427  10
  -3  -5  -3 336.101 20.0758   9
  -4  -5  -3 195.255 11.6815  16
  -4  -5  -3 195.420 11.6291  10
  -4  -5  -3 196.124 11.7661   9
  -4  -5  -3 178.934 11.7094   4
  -4  -5  -3 190.943 11.7691   2
  -5  -5  -3 46.2640 3.13453   4
  -5  -5  -3 49.0185 3.01732  13
  -5  -5  -3 39.8968 3.21172   9
  -5  -5  -3 46.2401 3.18730   2
  -5  -5  -3 54.2085 3.61646  16
  -6  -5  -3 13.5041 1.06522   4
  -6  -5  -3 9.52448 0.94110   9
  -6  -5  -3 11.7711 0.95502  16
 -10   6   3 11.1653 0.84680  11
 -10   6   3 10.6351 0.86614   1
  -9   6   3 28.4339 2.08544   1
  -9   6   3 28.4936 1.94679  16
  -9   6   3 29.2449 1.98713  11
  -8   6   3 71.4270 4.44010  16
  -8   6   3 69.5475 4.62401   1
  -8   6   3 70.1912 4.48184  11
  -7   6   3 14.8924 1.51643  15
  -7   6   3 17.2375 1.46029  16
  -7   6   3 15.9271 1.47238  11
  -7   6   3 16.4888 1.72458   1
  -6   6   3 18.5852 1.56589  11
  -6   6   3 19.6580 1.56524  16
  -6   6   3 18.6827 1.83415   1
   5  -6  -3 417.028 27.3815  10
  -5   6   3 465.913 27.4399  11
  -5   6   3 475.630 27.4245  16
  -5   6   3 467.929 27.5825   1
   4  -6  -3 196.739 12.7993  10
   4  -6  -3 229.347 13.1601   5
  -4   6   3 210.654 12.8187  16
   3  -6  -3 186.651 11.0608   2
   3  -6  -3 173.094 10.9701  10
   3  -6  -3 191.511 11.2632   5
   3  -6  -3 175.689 11.1870  14
   2  -6  -3 29.6241 2.40965   5
   2  -6  -3 31.6447 2.19519   2
   2  -6  -3 32.3448 2.24222  14
   2  -6  -3 26.7026 2.02001  10
  -2   6   3 35.7488 2.44207   5
   1  -6  -3 32.9406 2.31253  10
   1  -6  -3 35.8988 2.52040  13
   1  -6  -3 36.8364 2.43138   2
   1  -6  -3 31.3371 2.32445  12
  -1   6   3 41.2583 2.69674   5
   0  -6  -3 34.1415 2.12270  13
   0  -6  -3 27.4250 2.25707   4
   0  -6  -3 26.6704 2.18881   7
   0  -6  -3 31.4211 2.11135  10
   0  -6  -3 33.1502 2.12390  12
   0  -6  -3 32.8489 2.23222   2
  -1  -6  -3 6.93747 1.10433  10
  -1  -6  -3 6.20447 0.84652  13
  -1  -6  -3 4.01272 0.74653   2
  -1  -6  -3 3.52473 0.64178   9
  -1  -6  -3 4.05437 1.09254  15
  -1  -6  -3 3.63094 0.76168   4
  -2  -6  -3 73.9710 4.79556   9
  -2  -6  -3 71.6146 4.73276  12
  -2  -6  -3 77.9677 4.72155  10
  -2  -6  -3 71.0280 4.87503   4
  -2  -6  -3 77.5131 4.78085  16
  -2  -6  -3 75.4923 4.87557   2
  -3  -6  -3 4.54615 0.69432  13
  -3  -6  -3 4.64507 0.78575  16
  -3  -6  -3 3.52079 0.72808   4
  -3  -6  -3 5.42589 1.00163   9
  -3  -6  -3 3.18067 0.65972   2
  -3  -6  -3 3.23772 0.56396  10
  -4  -6  -3 56.9118 3.66548  13
  -4  -6  -3 60.9508 3.74381  16
  -4  -6  -3 53.9025 3.74995   9
  -4  -6  -3 54.0206 4.26012   2
  -4  -6  -3 62.6080 3.70356  10
  -5  -6  -3 -0.5938 0.40638   9
  -5  -6  -3 0.04733 0.32665   2
  -5  -6  -3 0.29773 0.37954   4
  -5  -6  -3 -0.0474 0.40841  16
  -5  -6  -3 -0.4667 0.35840  13
   9  -7  -3 191.842 12.4521   2
  -9   7   3 212.740 12.4628  16
  -9   7   3 212.396 12.5490   1
  -9   7   3 211.681 12.4799  11
  -8   7   3 0.62071 0.53130  11
  -8   7   3 1.91506 0.49866  16
  -8   7   3 1.08513 0.54965   1
  -7   7   3 5.87821 1.24377   1
  -7   7   3 6.52458 0.96500  15
  -7   7   3 6.73469 0.98789  11
  -7   7   3 5.54485 1.03570  16
  -6   7   3 580.103 34.0015  16
  -6   7   3 575.793 34.1574   1
  -6   7   3 544.432 33.9982  11
   5  -7  -3 57.2123 3.77695  10
   5  -7  -3 63.2895 3.98943   2
  -5   7   3 56.5517 3.83240  11
  -5   7   3 63.8927 3.88007  16
  -5   7   3 61.8679 4.05524   1
   4  -7  -3 326.641 19.2887  10
  -4   7   3 330.054 19.4439   1
  -4   7   3 306.088 19.3081  11
   3  -7  -3 109.317 6.56215   2
   3  -7  -3 101.828 6.45003  10
   2  -7  -3 2.16369 0.40809  10
   2  -7  -3 2.72380 0.48791   2
   1  -7  -3 159.394 9.69139   4
   1  -7  -3 168.435 9.64377  13
   1  -7  -3 151.564 9.61613  12
   1  -7  -3 152.355 9.63531   7
   0  -7  -3 30.6508 2.14715   2
   0  -7  -3 31.6267 2.02921  10
   0  -7  -3 23.9364 2.19524   4
   0  -7  -3 28.4298 1.99167  13
   0  -7  -3 28.3950 1.98358  12
   0  -7  -3 27.0730 2.19158   7
  -1  -7  -3 106.117 6.27115  13
  -1  -7  -3 97.2625 6.25607  12
  -1  -7  -3 93.3046 6.34299   4
  -1  -7  -3 97.5044 6.29072   9
  -1  -7  -3 108.591 6.25148  10
  -1  -7  -3 101.115 6.35109   2
  -2  -7  -3 74.4513 4.73131   2
  -2  -7  -3 73.4792 4.73655   4
  -2  -7  -3 65.9592 4.62404   9
  -2  -7  -3 75.1463 4.59870  10
  -2  -7  -3 71.9529 4.58746  13
  -2  -7  -3 74.7124 4.65331  16
  -3  -7  -3 12.1579 1.22028  10
  -3  -7  -3 12.9548 1.50154   2
  -3  -7  -3 10.8259 1.37680   4
  -3  -7  -3 12.4329 1.32821  16
  -3  -7  -3 12.2572 1.09465  13
  -3  -7  -3 12.9733 1.14783   9
  -4  -7  -3 65.9837 3.86636  16
  -4  -7  -3 60.9354 3.83730   4
  -4  -7  -3 54.4967 3.84008   9
  -4  -7  -3 62.1170 3.87796   2
  -4  -7  -3 65.1350 3.82043  10
  -4  -7  -3 59.4651 3.80933  13
  -9   8   3 15.1194 1.13997   1
   8  -8  -3 70.5354 4.26412   2
  -8   8   3 62.9122 4.17806  11
  -8   8   3 68.7055 4.21230  16
  -8   8   3 69.2076 4.33192   1
   7  -8  -3 0.89752 0.43985   2
  -7   8   3 1.56125 0.48442  16
  -7   8   3 0.36105 0.44079  11
  -7   8   3 1.25007 0.53573   1
   6  -8  -3 20.9451 1.57770  10
   6  -8  -3 24.2592 1.83595   2
  -6   8   3 18.9937 1.62485  11
  -6   8   3 24.7551 1.93215   1
  -6   8   3 25.2060 1.73285  16
   5  -8  -3 519.455 34.9699  10
   5  -8  -3 617.970 35.0781   2
  -5   8   3 613.970 35.2094   1
   4  -8  -3 9.94507 1.13718   2
   4  -8  -3 7.24977 0.92294  10
   3  -8  -3 6.24764 1.05589   2
   3  -8  -3 7.76152 0.89219  10
   2  -8  -3 0.01903 0.39707  10
   2  -8  -3 0.49267 0.45677   2
   2  -8  -3 -0.4211 0.48678   7
   1  -8  -3 31.3964 2.37071   7
   1  -8  -3 35.9860 2.43611   2
   1  -8  -3 34.5402 2.29092  10
   1  -8  -3 30.8471 2.24331  12
   1  -8  -3 33.1584 2.25397  13
   1  -8  -3 33.4525 2.45747   4
   0  -8  -3 50.8789 3.63391  12
   0  -8  -3 55.7616 3.79378   4
   0  -8  -3 57.3710 3.67106  13
   0  -8  -3 66.6247 4.09208  10
  -1  -8  -3 82.2867 5.38568  13
  -1  -8  -3 86.5102 5.47185   4
  -1  -8  -3 86.4743 5.50533   2
  -1  -8  -3 90.7555 5.38568  10
  -2  -8  -3 7.11257 1.08408   2
  -2  -8  -3 10.0844 1.11918  10
  -2  -8  -3 12.6436 1.08450  13
  -2  -8  -3 9.31264 1.03609   9
  -2  -8  -3 8.98025 1.13653   4
  -2  -8  -3 11.4280 1.17650  16
  -3  -8  -3 7.58992 0.87737  10
  -3  -8  -3 8.43099 0.77983  13
  -3  -8  -3 8.56198 0.97115   2
  -3  -8  -3 8.60113 0.92912  16
  -8   9   3 1.48488 0.38095   1
   7  -9  -3 30.8415 2.10117   2
  -7   9   3 29.5973 2.10925   1
   6  -9  -3 268.078 15.2180   2
   6  -9  -3 214.857 15.1305  10
  -6   9   3 271.244 15.2762   1
   5  -9  -3 66.8542 4.39632  10
   5  -9  -3 76.0800 4.55617   2
   4  -9  -3 20.6929 1.65372   2
   4  -9  -3 20.1398 1.51256  10
   3  -9  -3 14.4535 1.22170  10
   3  -9  -3 10.9806 1.32279   7
   3  -9  -3 15.7937 1.42075   2
   2  -9  -3 157.309 9.63871  10
   2  -9  -3 160.252 9.73786   2
   1  -9  -3 0.22742 0.42501  12
   1  -9  -3 0.20429 0.41850  10
   1  -9  -3 -0.2395 0.43578   2
   0  -9  -3 32.9886 2.17674  10
   0  -9  -3 30.4363 2.30315   2
   0  -9  -3 31.7147 2.33960   4
  -1  -9  -3 81.9372 5.19368   2
  -1  -9  -3 83.1223 5.15334  16
  -1  -9  -3 79.8872 5.31744   4
  -1  -9  -3 86.6823 5.11986  10
  -2  -9  -3 -0.0168 0.48407  10
  -2  -9  -3 0.33720 0.48504  16
  -2  -9  -3 0.78323 0.30046   2
   7 -10  -3 178.209 10.7749   2
   6 -10  -3 383.064 21.6135   2
  -6  10   3 335.735 21.7662  15
   5 -10  -3 22.4667 1.59226  10
   4 -10  -3 5.99545 0.76091  10
   4 -10  -3 8.02990 1.08095   2
   4 -10  -3 5.27395 0.93363   7
   3 -10  -3 481.434 29.6243  10
   3 -10  -3 507.839 29.7071   2
   2 -10  -3 0.90956 0.39577  10
   2 -10  -3 0.11988 0.55254   2
   1 -10  -3 155.573 9.23228  10
   1 -10  -3 149.594 9.29919   2
   0 -10  -3 158.079 9.17220  10
   0 -10  -3 149.509 9.19850  16
   0 -10  -3 148.040 9.22943   2
  -1 -10  -3 2.44746 0.39015  16
  -1 -10  -3 2.14854 0.30785  10
   5 -11  -3 15.7647 1.31294   2
   4 -11  -3 471.315 28.2482   2
   3 -11  -3 12.4443 0.95128  10
   3 -11  -3 13.0279 1.12744   2
   2 -11  -3 137.794 8.39951   2
   2 -11  -3 139.278 8.34223  10
   1 -11  -3 0.00497 0.28213   2
   1 -11  -3 0.28041 0.29700  10
   1 -11  -3 0.52926 0.31672  16
  -1 -12   4 62.8260 4.15572  12
  -1 -12   4 73.6488 4.23896   4
   0 -12   4 179.854 10.8559  10
   0 -12   4 173.058 10.9179  12
   0 -12   4 189.368 10.9696   4
   1 -12   4 92.9275 5.56134   4
   1 -12   4 89.4787 5.41379  10
   1 -12   4 84.6153 5.44791  12
   2 -12   4 71.7235 4.69946  12
   2 -12   4 80.9090 4.67908  10
   3 -12   4 88.6816 5.60126  12
   3 -12   4 94.5763 5.57747  10
  -4  12  -4 91.7304 5.80102   1
   4 -12   4 100.448 5.69349  10
   4 -12   4 88.7704 5.68644  12
  -5  12  -4 35.4581 2.53822   1
   5 -12   4 41.8442 2.47347  10
  -2 -11   4 218.808 13.3962  15
  -2 -11   4 203.283 13.3217  12
  -2 -11   4 241.927 13.3979   4
  -1 -11   4 57.6523 3.81371  12
  -1 -11   4 60.6728 3.92680  15
  -1 -11   4 62.3121 3.76938  10
  -1 -11   4 62.9634 3.94635   4
   0 -11   4 2.04409 0.49233  12
   0 -11   4 1.93992 0.63792   4
   0 -11   4 1.13253 0.63736  15
   1 -11   4 5.71103 0.71295   3
   1 -11   4 6.38968 0.79034  12
   1 -11   4 6.26645 0.83359  10
   2 -11   4 69.9330 4.16844  12
   2 -11   4 66.9720 4.08875  10
   2 -11   4 60.0137 4.08435   3
   3 -11   4 8.58753 0.86145   2
   3 -11   4 11.4751 0.93461  12
   4 -11   4 53.5272 3.57228   2
   4 -11   4 59.5500 3.70245  12
   4 -11   4 59.1267 3.61102  10
   5 -11   4 17.1451 1.24308  12
   5 -11   4 19.3638 1.36552  10
   5 -11   4 17.3429 1.30970   2
  -6  11  -4 79.7725 5.08103   1
   6 -11   4 80.6781 4.90930  10
   6 -11   4 80.3168 4.99362   2
  -7  11  -4 10.7201 0.97825   1
   7 -11   4 10.8300 0.78362  10
  -4 -10   4 134.800 7.46677   4
  -4 -10   4 110.762 7.43719  15
  -3 -10   4 188.363 11.4074  12
  -3 -10   4 178.605 11.3753   9
  -3 -10   4 192.356 11.3821  13
  -3 -10   4 189.341 11.4754  15
  -3 -10   4 194.767 11.3469  10
  -2 -10   4 28.0231 1.99334  16
  -2 -10   4 32.7572 2.27044   4
  -2 -10   4 30.8041 1.93057  10
  -2 -10   4 26.7273 1.86323  13
  -2 -10   4 29.6112 2.10870  15
  -2 -10   4 27.7685 1.96161  12
  -2 -10   4 24.2584 1.92843   9
  -1 -10   4 0.00364 0.46954  13
  -1 -10   4 -0.3458 0.37287  10
  -1 -10   4 0.42449 0.45403   3
  -1 -10   4 0.35381 0.63614   4
  -1 -10   4 0.11459 0.41372  16
  -1 -10   4 -0.1140 0.56498  15
  -1 -10   4 0.30431 0.48400  12
   0 -10   4 4.04237 0.66523   3
   0 -10   4 3.95877 0.73129  15
   0 -10   4 4.70744 0.82492  10
   0 -10   4 3.87641 0.62015  12
   1 -10   4 41.9927 3.27693  12
   1 -10   4 49.5846 3.31587  15
   1 -10   4 52.7454 3.16973   3
   2 -10   4 0.42074 0.43475   3
   2 -10   4 0.61097 0.49903  12
   2 -10   4 0.86834 0.46713  10
   3 -10   4 77.5955 4.76916  10
   3 -10   4 70.1294 4.54618  12
   3 -10   4 67.9622 4.48068   2
   4 -10   4 38.0114 2.55698  12
   4 -10   4 38.4254 2.54657  10
   4 -10   4 38.0948 2.60254   2
  -5  10  -4 14.1906 1.19141   6
   5 -10   4 13.3671 1.22866  10
   5 -10   4 13.8347 1.12371  12
  -6  10  -4 0.93501 0.69927   1
  -6  10  -4 1.20879 0.38734   6
   6 -10   4 1.20557 0.52574  10
   6 -10   4 1.44516 0.36079  12
  -7  10  -4 17.5417 1.60806   1
   7 -10   4 19.5460 1.32439  10
  -5  -9   4 33.5197 2.04539  13
  -5  -9   4 30.8795 2.09611   9
  -5  -9   4 35.8978 2.15091   4
  -5  -9   4 30.7022 2.09828  15
  -4  -9   4 -0.0507 0.42217  15
  -4  -9   4 0.46900 0.35536  13
  -4  -9   4 0.72812 0.38685  12
  -4  -9   4 -0.3639 0.55075   4
  -4  -9   4 0.65562 0.36469   9
  -3  -9   4 0.72470 0.42607  13
  -3  -9   4 0.43497 0.48883  12
  -3  -9   4 0.20592 0.71755   4
  -3  -9   4 0.85818 0.46877   9
  -3  -9   4 1.30799 0.58188  15
  -2  -9   4 51.7172 3.49567  16
  -2  -9   4 57.6999 3.81334   4
  -2  -9   4 50.7692 3.58952   9
  -2  -9   4 55.5922 3.48227  13
  -2  -9   4 57.5599 3.49863  10
  -2  -9   4 55.1111 3.56044  12
  -2  -9   4 54.8843 3.69095  15
  -2  -9   4 54.2659 3.55914   3
  -1  -9   4 -0.0763 0.43427  13
  -1  -9   4 0.69377 0.48841  12
  -1  -9   4 0.01343 0.49641   9
  -1  -9   4 0.72589 0.39759  10
  -1  -9   4 0.75712 0.46535   3
  -1  -9   4 0.55337 0.59159  15
   0  -9   4 8.84147 1.00928   3
   0  -9   4 8.56031 0.94132  10
   0  -9   4 8.63499 1.16308  15
   0  -9   4 8.59512 0.97564  12
   1  -9   4 170.028 10.6229   3
   1  -9   4 172.035 10.5493  10
   1  -9   4 184.497 10.6588  12
   1  -9   4 168.919 10.7294  15
   2  -9   4 43.9064 2.88639   2
   2  -9   4 43.9273 2.92142   3
   2  -9   4 45.0457 2.90340  10
   2  -9   4 47.1667 2.97218  12
   2  -9   4 41.7518 2.99746  15
   3  -9   4 109.939 6.81795  10
   3  -9   4 104.304 6.85814   3
   3  -9   4 118.193 6.90332  12
  -4   9  -4 290.850 18.2521  16
  -4   9  -4 297.908 18.3728   6
   4  -9   4 306.800 18.3260  12
   4  -9   4 316.486 18.2792  10
  -5   9  -4 0.40582 0.47781   6
  -5   9  -4 0.52636 0.50207  16
   5  -9   4 0.16876 0.65237  10
   5  -9   4 0.24315 0.43707  12
  -6   9  -4 116.701 7.05684   6
  -6   9  -4 113.200 6.90692  16
   6  -9   4 104.629 6.89750  12
   6  -9   4 115.915 6.92948  10
  -7   9  -4 34.5511 2.17864  16
  -7   9  -4 33.4047 2.30963   6
   7  -9   4 29.7339 2.15086  12
   7  -9   4 34.6996 2.21503  10
  -8   9  -4 37.3188 2.45146   1
   8  -9   4 36.6392 2.32111  10
  -6  -8   4 40.1900 2.53006   9
  -5  -8   4 1.31702 0.58382   4
  -5  -8   4 1.84480 0.48708  15
  -5  -8   4 2.44330 0.46425  13
  -5  -8   4 2.22300 0.47812   9
  -4  -8   4 36.4124 2.57697  15
  -4  -8   4 39.4685 2.50405  12
  -4  -8   4 36.1191 2.43326  13
  -4  -8   4 34.2102 2.54163   9
  -4  -8   4 38.0837 2.82327   4
  -3  -8   4 192.648 11.5026   3
  -3  -8   4 206.275 11.5970  12
  -3  -8   4 170.526 11.3660  16
  -3  -8   4 190.200 11.6188  15
  -3  -8   4 178.749 11.3794  10
  -2  -8   4 158.047 9.69781  10
  -2  -8   4 161.209 9.79624  12
  -2  -8   4 153.656 9.87780   9
  -2  -8   4 158.790 9.80114   3
  -2  -8   4 158.255 9.73421  13
  -2  -8   4 168.046 9.92840  15
  -1  -8   4 4.40954 0.69255  12
  -1  -8   4 4.99363 0.98764  15
  -1  -8   4 4.02398 0.74564  13
  -1  -8   4 2.82872 0.85530   9
  -1  -8   4 2.73428 0.64732   3
   0  -8   4 254.314 16.3930   9
   0  -8   4 285.658 16.3615  12
   0  -8   4 262.757 16.2478  10
   0  -8   4 267.501 16.3495   3
   0  -8   4 278.813 16.4513  15
   1  -8   4 105.803 6.69222  15
   1  -8   4 100.796 6.52017  10
   1  -8   4 113.411 6.63239  12
   1  -8   4 105.984 6.60764   3
  -2   8  -4 170.914 10.3499   5
   2  -8   4 156.117 9.86006  15
   2  -8   4 163.274 9.81135  12
   2  -8   4 160.800 9.80451   3
   2  -8   4 151.192 9.73044  10
  -3   8  -4 727.348 43.8306   6
  -3   8  -4 681.925 43.6728  16
   3  -8   4 742.066 43.7046  10
   3  -8   4 699.194 43.7279   3
   3  -8   4 797.073 43.7862  12
  -4   8  -4 10.2032 1.18393   6
  -4   8  -4 8.58635 1.09620  16
   4  -8   4 10.0689 1.04220  12
   4  -8   4 10.2103 1.23511  10
  -5   8  -4 108.221 6.72583   4
  -5   8  -4 106.306 6.71261   6
  -5   8  -4 99.7000 6.49341  16
   5  -8   4 105.884 6.54434  12
  -6   8  -4 62.1203 4.07864   4
  -6   8  -4 58.6123 4.01285   6
  -6   8  -4 58.1793 3.82650  16
   6  -8   4 58.8242 3.81158  12
  -7   8  -4 14.7953 1.36142  16
  -7   8  -4 15.3559 1.39534   6
  -7   8  -4 11.3157 1.23169  11
  -7   8  -4 14.5655 1.67554   1
  -7   8  -4 15.8352 1.64877   4
   7  -8   4 14.7620 1.10676  12
   7  -8   4 13.8470 1.35693  10
  -8   8  -4 237.836 14.2622   1
  -8   8  -4 230.304 14.2158   6
   8  -8   4 235.913 14.1132  10
  -6  -7   4 75.8950 4.97227   9
  -6  -7   4 86.0701 5.04484   4
  -6  -7   4 84.2189 4.91009  13
  -6  -7   4 73.5167 4.93242  15
  -5  -7   4 7.87085 1.50630   4
  -5  -7   4 7.60272 0.87032  12
  -5  -7   4 6.04958 0.86383  16
  -5  -7   4 7.92509 1.00985  15
  -5  -7   4 7.23941 0.99159   9
  -5  -7   4 8.28414 0.89039  13
  -4  -7   4 207.991 12.4411   3
  -4  -7   4 207.168 12.4067  13
  -4  -7   4 220.501 12.4774  12
  -4  -7   4 202.078 12.4124  10
  -4  -7   4 190.670 12.5213   9
  -4  -7   4 205.426 12.5411  15
  -4  -7   4 208.434 12.6795   4
  -4  -7   4 192.047 12.4446  16
  -3  -7   4 699.337 41.0449  15
  -3  -7   4 674.003 41.0339   4
  -3  -7   4 674.438 40.8889  13
  -3  -7   4 659.222 40.8694  16
  -3  -7   4 655.425 40.8403  10
  -3  -7   4 705.106 40.9493   3
  -3  -7   4 708.673 40.9483  12
  -3  -7   4 679.825 41.0498   9
  -2  -7   4 7.19250 1.04109  15
  -2  -7   4 5.04851 0.72706  10
  -2  -7   4 5.99464 0.85019  12
  -2  -7   4 5.22643 0.79211  13
  -2  -7   4 5.56243 0.99795   9
  -2  -7   4 6.14996 0.87777   3
  -1  -7   4 306.958 21.7656   1
  -1  -7   4 384.612 21.7824  12
  -1  -7   4 398.698 21.8947  15
  -1  -7   4 345.390 21.8355  13
  -1  -7   4 371.595 21.7868   3
  -1  -7   4 368.746 21.8863   9
  -1  -7   4 351.998 21.6915  10
   0   7  -4 874.591 46.6243   5
   0  -7   4 769.593 46.3466   3
   0  -7   4 795.174 46.1989  12
   0  -7   4 740.721 46.2392  15
   0  -7   4 672.853 46.0709  10
  -1   7  -4 101.473 6.26378   5
   1  -7   4 93.5545 6.09084  10
   1  -7   4 105.272 6.18847  12
   1  -7   4 103.573 6.18923   3
   1  -7   4 94.5367 6.07678  14
  -2   7  -4 1026.97 54.9913   5
   2  -7   4 835.540 55.1297  12
   2  -7   4 870.415 54.9274   3
   2  -7   4 1009.66 54.9800   5
   2  -7   4 838.048 54.9133  14
  -3   7  -4 416.220 25.6178   6
  -3   7  -4 427.848 25.1763   4
   3  -7   4 386.980 25.0496   3
   3  -7   4 439.035 25.0916  12
   3  -7   4 412.556 25.2739   5
  -4   7  -4 409.013 25.0849   4
  -4   7  -4 412.505 25.1242   6
  -4   7  -4 408.362 24.9423  16
   4  -7   4 429.436 25.0022  12
  -5   7  -4 4.70605 0.69913  11
  -5   7  -4 4.88194 0.75686  16
  -5   7  -4 4.23486 0.81256   4
  -5   7  -4 3.37885 0.73884   6
   5  -7   4 4.70483 0.70161  12
  -6   7  -4 42.8909 3.22955   4
  -6   7  -4 42.6867 2.93945  16
  -6   7  -4 40.3131 3.13072  11
  -6   7  -4 43.8251 3.10477   6
   6  -7   4 42.2871 2.84082  12
  -7   7  -4 6.36940 1.39830   1
  -7   7  -4 5.78265 1.09587  11
  -7   7  -4 7.02181 1.16174   6
  -7   7  -4 6.78772 1.51631   4
  -7   7  -4 5.08781 0.76442  16
   7  -7   4 6.96183 0.74726  12
  -8   7  -4 40.1335 2.79607   6
  -8   7  -4 44.4270 2.90942   4
  -8   7  -4 39.1251 2.76068   1
  -8   7  -4 42.8473 2.72593  11
  -8   7  -4 41.1265 2.70366  16
  -7  -6   4 315.058 17.4293   4
  -7  -6   4 266.995 17.4069   9
  -7  -6   4 285.662 17.3552  13
  -6  -6   4 2.57680 0.54896   9
  -6  -6   4 1.75126 0.42730  16
  -6  -6   4 2.38994 0.54520  15
  -6  -6   4 1.90549 0.70612   4
  -6  -6   4 3.23212 0.53291  13
  -5  -6   4 80.2473 4.98587  12
  -5  -6   4 88.6238 5.81453   4
  -5  -6   4 74.5401 4.93341  16
  -5  -6   4 73.7464 5.12917  15
  -4  -6   4 611.698 37.5944  10
  -4  -6   4 633.332 37.8200   4
  -4  -6   4 637.029 37.6808   3
  -4  -6   4 583.097 37.6136  16
  -4  -6   4 645.995 37.7852  15
  -4  -6   4 631.850 37.6471  13
  -4  -6   4 671.334 37.6964  12
  -4  -6   4 605.658 37.7958   9
  -3  -6   4 88.0571 5.25223  15
  -3  -6   4 82.3697 5.12014   3
  -3  -6   4 75.0691 5.28089   4
  -3  -6   4 82.9945 5.26008   9
  -3  -6   4 80.9338 5.08576  13
  -3  -6   4 79.3442 5.02972  10
  -3  -6   4 75.3944 5.06997  16
  -3  -6   4 86.0040 5.11755  12
   2   6  -4 96.2476 6.35451   5
  -2  -6   4 112.875 6.50232  15
  -2  -6   4 102.049 6.70040   9
  -2  -6   4 101.637 6.36774   3
  -2  -6   4 100.355 6.35095  13
   1   6  -4 101.061 6.27661   5
   0   6  -4 0.08386 0.34627   5
   0  -6   4 -0.1907 0.18290  14
   0  -6   4 -0.3169 0.17182   5
  -1   6  -4 183.511 11.7932  17
  -1   6  -4 197.448 11.8429   5
  -1   6  -4 200.415 11.7943  17
   1  -6   4 203.321 11.8556  17
   1  -6   4 186.297 11.7660  14
   1  -6   4 185.550 11.8171   5
   1  -6   4 206.121 11.8139  17
  -2   6  -4 309.917 16.5604  17
  -2   6  -4 277.282 16.4603   5
  -2   6  -4 258.631 16.3670  17
   2  -6   4 271.094 16.5966  17
   2  -6   4 258.728 16.3684  14
   2  -6   4 257.894 16.4285  17
   2  -6   4 270.798 16.4514   5
  -3   6  -4 9.59496 0.97849   5
  -3   6  -4 10.1233 1.30004   4
   3  -6   4 9.50750 1.03504   5
   3  -6   4 9.26958 0.93011  12
   3  -6   4 8.12507 0.91122  14
  -4   6  -4 111.529 6.72412   6
  -4   6  -4 110.100 6.71476   4
  -4   6  -4 89.0092 6.56242  11
  -4   6  -4 91.4905 6.68668   7
  -4   6  -4 113.218 6.64455  16
   4  -6   4 112.104 6.54639  12
   4  -6   4 110.436 6.61039   5
  -5   6  -4 1144.15 75.5321  11
  -5   6  -4 1284.96 75.5131  16
   5  -6   4 1356.37 75.5629  12
  -6   6  -4 154.725 9.43979   6
  -6   6  -4 149.771 9.21960  16
  -6   6  -4 154.751 9.40831   4
  -6   6  -4 142.140 9.27864  11
  -6   6  -4 149.549 9.51685   7
   6  -6   4 147.651 9.20520  12
  -7   6  -4 2.71095 0.73247  16
  -7   6  -4 4.40935 0.86621  11
  -7   6  -4 1.44821 0.75412   4
  -7   6  -4 2.75429 0.74822   1
  -7   6  -4 2.49662 0.74998   6
   7  -6   4 3.09405 0.58547  12
  -8   6  -4 1.11940 0.51347   6
  -8   6  -4 0.83397 0.46198   1
  -8   6  -4 1.62456 0.64517  11
  -8   6  -4 0.80585 0.54542  16
  -8   6  -4 -0.0925 0.62270   4
   8  -6   4 1.02331 0.39793  12
  -9   6  -4 -0.0762 0.34410  11
  -8  -5   4 108.588 6.59604   9
  -7  -5   4 10.5139 1.30835   4
  -7  -5   4 10.2626 1.02044   9
  -7  -5   4 8.28717 0.88799  15
  -7  -5   4 9.91367 0.86465  13
  -6  -5   4 6.22191 0.99003   9
  -6  -5   4 5.37501 0.87758  16
  -6  -5   4 5.55075 0.80832  13
  -6  -5   4 5.64644 0.90317  15
  -6  -5   4 4.35239 0.87695   4
  -5  -5   4 12.8942 1.32579  16
  -5  -5   4 15.0118 1.27158  13
  -5  -5   4 12.4655 1.80426   4
  -5  -5   4 15.5355 1.42349  15
  -5  -5   4 16.3883 1.48247   9
  -5  -5   4 17.0514 1.30331  12
  -4  -5   4 70.5829 4.84396  16
  -4  -5   4 81.0504 5.00600  15
  -4  -5   4 76.3286 5.03375   9
  -4  -5   4 84.4598 4.90255  12
  -4  -5   4 79.5411 4.89048   3
  -4  -5   4 71.0919 5.08126   4
  -4  -5   4 79.7218 4.88237  13
  -3  -5   4 100.575 6.41647   4
  -3  -5   4 109.137 6.29264  12
  -3  -5   4 104.271 6.30643   3
  -3  -5   4 91.2080 6.73553  15
   2   5  -4 15.7573 1.14999   5
  -2  -5   4 13.1072 1.09909  17
   1   5  -4 0.05775 0.27524  17
  -1  -5   4 0.01444 0.19733  17
   0   5  -4 32.5417 2.18032   5
   0   5  -4 33.8201 2.15236  17
   0   5  -4 30.1343 2.21614  17
   0  -5   4 30.6818 2.09413  17
   0  -5   4 35.8796 2.09049  14
   0  -5   4 35.9453 2.21396  17
   0  -5   4 31.5060 2.14547   5
  -1   5  -4 75.2728 4.69255   5
  -1   5  -4 74.9316 4.66214  17
  -1   5  -4 72.9865 4.61360  17
   1  -5   4 77.2337 4.75087   5
   1  -5   4 74.9810 4.65634  17
   1  -5   4 73.8329 4.62581  17
   1  -5   4 78.2759 4.62842  14
  -2   5  -4 1531.93 94.7322  17
  -2   5  -4 1634.60 94.7736   5
   2  -5   4 1591.40 94.7670   5
   2  -5   4 1627.13 94.7500  17
   2  -5   4 1527.09 94.7131  14
   2  -5   4 1598.70 94.7051  17
   3  -5   4 288.024 16.3770   5
   3  -5   4 253.297 16.3214  14
  -4   5  -4 79.5729 5.59708   6
  -4   5  -4 76.1864 5.00751  16
  -4   5  -4 67.2770 4.99063   7
   4  -5   4 80.8009 4.82071   5
  -5   5  -4 542.492 31.6242   4
  -5   5  -4 479.365 31.6534   7
  -5   5  -4 579.798 31.7328   6
  -5   5  -4 523.270 31.4756  16
  -5   5  -4 494.792 31.5515  11
  -6   5  -4 247.874 15.7186   7
  -6   5  -4 253.577 15.5691  11
  -6   5  -4 257.980 15.6236   4
  -6   5  -4 254.438 15.4589  16
  -6   5  -4 259.643 15.6794   6
  -7   5  -4 157.572 10.3369   1
  -7   5  -4 174.871 10.6165   7
  -7   5  -4 172.695 10.4580   4
  -7   5  -4 168.369 10.4707   6
  -7   5  -4 173.219 10.4103  11
  -7   5  -4 168.823 10.2799  16
   7  -5   4 158.824 10.2393  12
  -8   5  -4 11.5015 1.67853   4
  -8   5  -4 11.8288 1.18893   6
  -8   5  -4 12.3944 1.23970  16
   8  -5   4 9.34735 0.93196  12
  -9   5  -4 17.1751 1.18640  11
  -9   5  -4 16.1013 1.20134  16
  -9   5  -4 13.5861 1.24930   4
  -8  -4   4 1.31283 0.31412  13
  -8  -4   4 2.27888 0.48146   9
  -8  -4   4 1.01959 0.43544   4
  -7  -4   4 79.6503 4.97724   4
  -7  -4   4 71.6695 4.81786  15
  -7  -4   4 77.7112 4.90235   9
  -7  -4   4 78.7318 4.77327  13
  -6  -4   4 24.7535 2.17151   4
  -6  -4   4 25.5746 1.88274  15
  -6  -4   4 24.5756 1.93308   9
  -6  -4   4 24.5398 1.75367  13
  -6  -4   4 22.8963 1.80399  16
  -5  -4   4 89.0313 6.40554  16
  -5  -4   4 102.325 6.87775   4
  -5  -4   4 116.707 6.74181  15
  -5  -4   4 97.9129 6.43083   3
  -5  -4   4 115.640 6.48393  12
  -4  -4   4 138.032 9.64509   4
  -4  -4   4 148.972 9.37420  13
  -4  -4   4 155.483 9.44573   3
  -4  -4   4 157.461 9.53931   9
  -4  -4   4 160.206 9.49832  15
  -4  -4   4 161.446 9.39474  12
   3   4  -4 110.096 6.44157   5
   3   4  -4 101.579 6.47329   5
   2   4  -4 277.231 17.3968   5
   2   4  -4 300.664 17.3605   5
   2   4  -4 285.252 17.3141  17
  -2  -4   4 291.921 17.2980  17
   1   4  -4 1264.02 79.3630   5
   1   4  -4 1327.33 79.2880  17
   1   4  -4 1270.03 79.2956  14
   1   4  -4 1334.46 79.3238   5
  -1  -4   4 1354.36 79.2866  17
  -1  -4   4 1367.30 79.2733  17
  -1  -4   4 1373.38 79.3365   5
   0   4  -4 250.426 16.3706   5
   0   4  -4 278.909 16.3322   5
   0   4  -4 272.951 16.2731  17
   0   4  -4 271.358 16.4043  14
   0   4  -4 270.623 16.2961  17
   0  -4   4 296.491 16.2812  14
   0  -4   4 238.470 16.3827  17
   0  -4   4 284.133 16.3009  17
   0  -4   4 278.127 16.3215   5
  -1   4  -4 753.691 44.7689   5
  -1   4  -4 731.524 44.7265  17
   1  -4   4 788.247 44.7474  17
   1  -4   4 761.973 44.7165  14
   1  -4   4 725.495 44.7490   5
   1  -4   4 725.324 44.7017  17
  -2   4  -4 140.962 8.32845   8
  -2   4  -4 134.581 8.35701   5
  -2   4  -4 135.164 8.29299  17
  -2   4  -4 135.054 8.33971  17
   2  -4   4 133.597 8.30144  17
   2  -4   4 135.015 8.33529  17
   2  -4   4 141.280 8.37031   5
   2  -4   4 143.167 8.51564  14
  -3   4  -4 179.458 11.1824  17
  -3   4  -4 182.127 11.2458   5
   3  -4   4 179.401 11.2493  14
   3  -4   4 204.512 11.3532   5
   3  -4   4 183.240 11.2551  17
  -4   4  -4 0.40946 0.64571   4
  -4   4  -4 1.07801 0.62671   7
  -4   4  -4 2.60009 0.69374   6
   4  -4   4 1.72733 0.41653   5
   4  -4   4 1.63917 0.44504  14
  -5   4  -4 284.495 16.6702   4
  -5   4  -4 316.288 16.7978   6
  -5   4  -4 255.662 16.7250   7
  -5   4  -4 270.974 16.5149  16
  -5   4  -4 274.625 16.6283  11
   5  -4   4 236.448 16.4707   3
  -6   4  -4 54.4423 3.72834   1
  -6   4  -4 52.9584 3.90117   4
  -6   4  -4 54.8630 3.81732  11
  -6   4  -4 58.2414 3.87269   6
  -6   4  -4 55.1977 3.68263  16
  -6   4  -4 53.6067 4.08397   7
  -7   4  -4 192.851 11.7606  16
  -7   4  -4 194.404 11.9198   4
  -7   4  -4 191.382 12.0604   7
  -7   4  -4 194.270 11.8988  11
  -7   4  -4 189.466 11.9212   6
  -8   4  -4 452.510 28.2028   6
  -8   4  -4 448.191 28.2879  11
  -8   4  -4 522.443 28.1640  16
   8  -4   4 452.333 28.1192  12
  -9   4  -4 62.5868 3.89217  11
  -9   4  -4 62.8439 3.93106   4
  -8  -3   4 181.113 11.0353   9
  -8  -3   4 190.185 11.0623   4
  -8  -3   4 173.343 10.9353  13
  -7  -3   4 11.9460 1.51937   4
  -7  -3   4 11.9753 1.23192   9
  -7  -3   4 11.6038 1.19566  16
  -7  -3   4 11.5212 1.14287  15
  -7  -3   4 12.6494 1.05519  13
  -6  -3   4 2.03238 0.48964  13
  -6  -3   4 3.03332 0.55217  16
  -6  -3   4 2.30857 0.60378   9
  -6  -3   4 3.14707 0.67376   4
  -5  -3   4 751.148 42.4213   9
  -5  -3   4 637.318 42.3505   4
  -5  -3   4 705.089 42.2575  13
  -5  -3   4 747.728 42.3844  15
  -5  -3   4 683.752 42.2501   3
   4   3  -4 334.109 20.1505   8
   3   3  -4 565.617 33.8591   5
   2   3  -4 349.948 21.7571   5
   2   3  -4 355.983 21.7129  14
   2   3  -4 357.011 21.6836  17
   2   3  -4 381.749 21.7393   5
   2   3  -4 356.521 21.7031  17
  -2  -3   4 383.154 21.6908  17
  -2  -3   4 354.218 21.6991  17
   1   3  -4 367.775 21.2798   5
   1   3  -4 355.429 21.2497  17
   1   3  -4 328.490 21.2932   5
   1   3  -4 356.465 21.2277  17
   1   3  -4 341.414 21.2680  14
  -1  -3   4 362.210 21.2471  17
  -1  -3   4 362.958 21.2329  17
  -1  -3   4 363.885 21.2593   5
   0   3  -4 312.816 19.7254  14
   0   3  -4 283.568 19.7285   5
   0   3  -4 344.312 19.7664   5
   0   3  -4 329.446 19.6910  17
   0  -3   4 356.292 19.6878  14
   0  -3   4 348.442 19.7136  17
   0  -3   4 325.174 19.7036   5
  -2   3  -4 1120.65 65.6766   5
  -2   3  -4 1099.24 65.6176  17
  -2   3  -4 1139.28 65.6225   8
  -2   3  -4 1023.49 65.5929   8
  -2   3  -4 1083.41 65.6535  17
   2  -3   4 1134.41 65.6576  17
   2  -3   4 1079.92 65.6559  14
   2  -3   4 1112.28 65.6778   5
   2  -3   4 1093.58 65.6239  17
  -3   3  -4 492.175 30.3976  17
  -3   3  -4 486.818 30.4580   5
   3  -3   4 531.826 30.4658  17
   3  -3   4 495.954 30.4591  14
   3  -3   4 533.424 30.4712   5
  -4   3  -4 1646.64 116.255   7
   4  -3   4 2109.59 115.880   5
   4  -3   4 2059.65 115.896  14
  -5   3  -4 10.2485 1.35730   6
  -5   3  -4 8.11529 1.38642  11
  -5   3  -4 9.17797 1.20915  16
  -5   3  -4 8.21021 1.78809   7
  -5   3  -4 10.3855 1.49725   4
   5  -3   4 6.42878 0.91355   3
  -6   3  -4 1.17884 0.68998   6
  -6   3  -4 2.09981 0.58686   9
  -6   3  -4 -0.1353 0.83151  11
  -6   3  -4 0.60072 0.91616   7
  -6   3  -4 1.00037 0.61645  16
  -6   3  -4 0.54421 0.67240   4
   6  -3   4 0.90433 0.43690   3
  -7   3  -4 216.299 13.5189   7
  -7   3  -4 219.513 13.3933  11
  -7   3  -4 214.057 13.3699   6
  -7   3  -4 219.068 13.2508  16
  -7   3  -4 218.394 13.3778   4
  -8   3  -4 -0.1259 0.58089  16
  -8   3  -4 0.12796 0.59343   4
  -8   3  -4 0.02955 0.41450   6
  -8   3  -4 1.03991 0.70855  11
  -8  -2   4 7.29438 0.99404   9
  -8  -2   4 7.88497 0.89668  16
  -8  -2   4 5.28514 0.67686  13
  -7  -2   4 18.1346 1.92507   4
  -7  -2   4 21.1085 1.61071   9
  -7  -2   4 19.6513 1.53123  15
  -7  -2   4 20.3409 1.42790  13
  -7  -2   4 15.9641 1.61087  16
  -6  -2   4 21.6386 1.73933   4
  -6  -2   4 21.6217 1.68741   9
  -6  -2   4 20.7197 1.56403  16
  -6  -2   4 18.1787 1.52090   1
  -6  -2   4 21.7013 1.63286  15
  -6  -2   4 16.9968 1.55729  11
  -6  -2   4 20.4928 1.49409  13
   5   2  -4 280.850 18.0346   8
  -5  -2   4 343.198 18.1161  15
  -5  -2   4 259.250 17.8844   1
  -5  -2   4 291.585 17.9497  13
  -5  -2   4 310.223 18.0466   9
   4   2  -4 465.135 29.2653  14
   4   2  -4 511.024 29.3106   8
   3   2  -4 73.2150 4.39655   8
   3   2  -4 68.5233 4.31561  14
   2   2  -4 1495.22 94.9310   5
   2   2  -4 1607.60 94.9582   8
   2   2  -4 1577.43 94.8943  17
   2   2  -4 1690.43 95.0402  14
   2   2  -4 1563.73 94.8777  17
  -2  -2   4 1542.63 94.8874  17
  -2  -2   4 1562.24 94.8926   5
  -2  -2   4 1677.47 94.8854  17
   1   2  -4 312.238 18.4949  17
   1   2  -4 316.620 18.5462   8
   1   2  -4 310.370 18.5122  17
   1   2  -4 285.952 18.5849   5
  -1  -2   4 315.828 18.5219   5
  -1  -2   4 314.147 18.5072  17
   0   2  -4 174.093 11.4088  14
   0   2  -4 178.007 11.4243   5
   0   2  -4 189.167 11.3595  17
   0   2  -4 183.889 11.4232   8
   0   2  -4 192.281 11.3820  17
   0  -2   4 193.034 11.3758  17
   0  -2   4 189.762 11.3947   5
   0  -2   4 192.432 11.3658  17
   0  -2   4 212.454 11.3908  14
  -1   2  -4 4.21597 0.43324  17
  -1   2  -4 4.46613 0.43953   8
  -1   2  -4 4.24336 0.51914  17
  -1   2  -4 4.16733 0.53959   5
   1  -2   4 4.02784 0.48418  17
   1  -2   4 4.55575 0.52147  14
   1  -2   4 4.10227 0.55113   5
   1  -2   4 4.03025 0.45615  17
   1  -2   4 3.30631 0.57164   5
  -2   2  -4 2.16229 0.36075  17
  -2   2  -4 2.62120 0.46219   5
  -2   2  -4 2.83013 0.44730  17
   2  -2   4 2.79123 0.53733   5
   2  -2   4 2.68248 0.51661  14
   2  -2   4 2.25452 0.31715  17
   2  -2   4 2.03889 0.37830   5
   2  -2   4 2.45321 0.34162  17
  -3   2  -4 1931.61 123.730  17
  -3   2  -4 1866.78 123.748   5
   3  -2   4 2229.05 123.780   5
   3  -2   4 2185.58 123.773  14
   3  -2   4 2146.29 123.757  17
  -4   2  -4 170.488 11.1660   7
  -4   2  -4 174.921 11.0170   2
   4  -2   4 187.072 10.7786   5
  -5   2  -4 27.6299 2.22856  16
  -5   2  -4 33.2097 2.40787   6
  -5   2  -4 26.9090 2.74818   7
  -5   2  -4 27.7600 2.48642   2
  -5   2  -4 30.1184 2.42759  11
  -5   2  -4 32.2312 2.24238   9
  -5   2  -4 31.3508 2.41401   4
  -6   2  -4 36.1458 2.84589  11
  -6   2  -4 37.7604 2.61727   9
  -6   2  -4 35.9994 2.65099  16
  -6   2  -4 36.2885 2.84858   4
  -6   2  -4 34.9668 3.16586   7
  -6   2  -4 37.1074 2.73667   6
  -7   2  -4 7.66077 1.61223   4
  -7   2  -4 7.60463 1.01555   6
  -7   2  -4 8.28842 1.33157  16
  -7   2  -4 6.43313 1.18253   7
  -7   2  -4 8.23828 1.55822  11
  -7   2  -4 8.04642 1.01690   9
  -8   2  -4 12.3212 1.42902  11
  -8   2  -4 12.8738 1.50408   4
  -8   2  -4 13.4766 1.29844  16
  -8  -1   4 246.128 14.0923  16
  -8  -1   4 192.340 14.0471   1
  -8  -1   4 247.593 14.1786   4
  -8  -1   4 235.944 14.0804  11
  -8  -1   4 244.168 14.1449   9
  -7  -1   4 106.665 7.05774  16
  -7  -1   4 114.049 7.08279   1
  -7  -1   4 122.039 7.18334   9
  -7  -1   4 111.018 7.18821   4
  -7  -1   4 121.590 7.16810  15
  -7  -1   4 115.286 7.03972  13
  -7  -1   4 113.134 7.09272  11
  -6  -1   4 312.049 18.2928  13
  -6  -1   4 337.126 18.4488   9
  -6  -1   4 272.200 18.3536   4
  -6  -1   4 276.765 18.2765  16
  -6  -1   4 282.418 18.2989  11
  -6  -1   4 347.006 18.4474  15
  -6  -1   4 297.063 18.3098   1
   5   1  -4 2.53301 0.49966   8
   4   1  -4 27.5092 1.88350  14
   3   1  -4 1186.20 68.2150   5
   3   1  -4 1171.66 68.2825   8
   3   1  -4 1068.70 68.2084   5
   2   1  -4 329.552 19.4634  17
   2   1  -4 330.387 19.4932   5
   2   1  -4 310.699 19.4936  14
   2   1  -4 331.239 19.4836  17
   2   1  -4 321.997 19.4995   5
   2   1  -4 332.948 19.5333   8
  -2  -1   4 315.982 19.4796   5
  -2  -1   4 309.063 19.4592  17
  -2  -1   4 347.623 19.4655  17
   1   1  -4 422.627 25.2911  17
   1   1  -4 408.218 25.3330   5
   1   1  -4 402.554 25.3202  14
   1   1  -4 413.768 25.3328   8
   1   1  -4 434.387 25.3313   5
   1   1  -4 428.876 25.3026  17
  -1  -1   4 434.240 25.2942  17
  -1  -1   4 440.361 25.3213   5
   0   1  -4 11.9143 0.88984   5
   0   1  -4 12.2171 0.81609  17
   0   1  -4 12.2164 0.87287  17
   0   1  -4 11.2517 0.87327   8
   0   1  -4 11.9798 0.91655   5
   0   1  -4 10.6571 0.88828  14
   0  -1   4 12.0718 0.87599   5
   0  -1   4 12.3092 0.83049  17
   0  -1   4 12.5882 0.87431  14
  -1   1  -4 42.0975 2.52010  17
  -1   1  -4 40.7513 2.48441  17
  -1   1  -4 36.9607 2.48615   8
  -1   1  -4 40.4210 2.53999   5
   1  -1   4 42.6876 2.54238   5
   1  -1   4 42.1998 2.51916  14
   1  -1   4 36.6565 2.54808   5
   1  -1   4 41.0975 2.48994  17
  -2   1  -4 94.2292 5.94914   5
  -2   1  -4 100.439 5.93380  17
  -2   1  -4 97.5018 5.90069  17
   2  -1   4 85.2987 6.08652   5
   2  -1   4 99.5245 5.91961  17
   2  -1   4 101.205 5.94877   5
   2  -1   4 100.479 5.93782  14
   2  -1   4 101.095 5.90700  17
  -3   1  -4 259.620 16.7005  17
   3  -1   4 276.006 16.7371  17
   3  -1   4 291.350 16.7581   5
   3  -1   4 286.300 16.7453  14
  -4   1  -4 12.0207 1.70233   7
  -4   1  -4 13.9259 1.24581   9
  -4   1  -4 10.1786 1.41105   4
  -4   1  -4 9.11113 1.22484  16
  -4   1  -4 10.8123 1.59327   2
   4  -1   4 14.2029 1.43436   5
  -5   1  -4 19.0409 1.63907  16
  -5   1  -4 15.9208 1.84616   4
  -5   1  -4 20.0101 1.62522   9
  -5   1  -4 18.9675 2.01934   2
  -5   1  -4 18.9950 1.72660   6
  -5   1  -4 16.2314 1.84608  11
  -5   1  -4 21.5240 2.35292   7
  -6   1  -4 88.7419 6.03809   7
  -6   1  -4 88.9004 5.67246  16
  -6   1  -4 91.8028 5.86166  11
  -6   1  -4 86.7321 5.86315   2
  -6   1  -4 88.7777 5.78516   4
  -6   1  -4 90.7393 5.70468   9
  -6   1  -4 88.1356 5.71645   6
  -7   1  -4 2.32758 0.92487   7
  -7   1  -4 2.11406 0.88316  11
  -7   1  -4 2.68333 0.58564   9
  -7   1  -4 2.86724 0.71335  16
  -7   1  -4 2.61028 0.71586   4
   7  -1   4 2.51500 0.58577   3
  -8   1  -4 46.3736 3.15708  11
  -8   1  -4 49.1975 3.11841  16
  -8   1  -4 49.4789 3.22337   4
  -9   0   4 4.21987 0.72224  11
  -8   0   4 422.523 25.4876   1
  -8   0   4 417.834 25.4675  16
  -8   0   4 446.898 25.5152  11
  -8   0   4 408.542 25.5220   4
  -7   0   4 428.182 25.2449  13
  -7   0   4 402.673 25.2590  16
  -7   0   4 479.427 25.4058  15
  -7   0   4 426.685 25.3130  11
  -7   0   4 397.927 25.3257   4
  -7   0   4 364.872 25.4608   9
  -7   0   4 441.794 25.3187   1
  -6   0   4 409.565 25.9490   4
  -6   0   4 414.413 25.7430  11
  -6   0   4 476.449 25.8567   9
  -6   0   4 436.871 25.7619   1
  -6   0   4 436.015 25.7236  13
  -6   0   4 393.784 25.7806  16
   5   0  -4 513.189 30.8782   8
   5   0  -4 515.398 30.9571  14
   4   0  -4 1194.97 71.4585   8
   3   0  -4 1037.24 63.5917   5
   3   0  -4 1082.51 63.6498   8
   3   0  -4 1107.79 63.6053   5
  -3   0   4 1030.85 63.5605  17
   2   0  -4 189.610 11.9945   5
   2   0  -4 204.196 11.9770  17
   2   0  -4 214.250 12.0197   5
   2   0  -4 198.622 11.9701  17
   2   0  -4 200.555 12.0312   8
  -2   0   4 206.138 11.9748  17
  -2   0   4 195.671 11.9592  17
  -2   0   4 189.180 11.9920   5
   1   0  -4 0.95271 0.32687   8
   1   0  -4 1.23235 0.28556   5
   1   0  -4 0.65505 0.21301  14
   1   0  -4 1.24899 0.25520  17
   1   0  -4 0.96858 0.23339   5
   1   0  -4 1.07978 0.22471  17
  -1   0   4 1.19841 0.24925  17
  -1   0   4 1.15848 0.19942  17
  -1   0   4 0.72907 0.27287   8
   0   0  -4 2.75456 0.40977  17
   0   0  -4 2.82351 0.52419   5
   0   0  -4 3.26229 0.59374   8
   0   0  -4 2.56619 0.45112  14
   0   0  -4 2.43933 0.43378   5
   0   0   4 2.67802 0.50609   5
   0   0   4 3.31336 0.41994  17
   0   0   4 2.61643 0.43082   8
  -1   0  -4 10.6405 0.81265  17
  -1   0  -4 10.4062 0.82625   8
  -1   0  -4 10.0207 0.88063   5
  -1   0  -4 11.7108 0.79124  17
   1   0   4 11.2806 0.79221  17
   1   0   4 11.3196 0.77910  17
   1   0   4 10.3350 0.85977   5
   1   0   4 10.3677 0.77569   8
  -2   0  -4 17.8903 1.23925  17
   2   0   4 18.8126 1.32102   5
   2   0   4 18.9497 1.27457  14
   3   0   4 171.483 10.0957   5
   3   0   4 161.417 10.0569  14
  -4   0  -4 1.04194 0.58721   2
  -4   0  -4 0.86585 0.63106   6
  -4   0  -4 0.11086 0.52147  13
  -4   0  -4 -0.2881 0.60722   4
  -4   0  -4 0.17971 0.48696   9
  -5   0  -4 150.325 8.98825   6
  -5   0  -4 140.042 9.07349   2
  -5   0  -4 135.678 8.86906  16
  -5   0  -4 148.244 9.04889  11
  -5   0  -4 156.300 8.99816   9
  -5   0  -4 142.659 8.77504  13
  -5   0  -4 134.600 8.95907   4
  -5   0  -4 145.057 9.19559   7
  -6   0  -4 -0.3963 0.87381   2
  -6   0  -4 0.35436 1.05282  11
  -7   0  -4 104.003 6.26483   7
  -7   0  -4 89.6913 6.21486   9
  -7   0  -4 100.865 6.19065   4
  -7   0  -4 102.674 6.26263  11
  -7   0  -4 100.765 6.09610  16
   7   0   4 88.4162 5.97253   3
  -8   0  -4 11.5866 1.08319   4
  -8   0  -4 7.36767 1.35014  11
  -8   0  -4 10.7917 0.98009  16
  -9   1   4 158.759 10.2381   1
  -9   1   4 170.571 10.2337  16
  -9   1   4 178.387 10.2783  11
  -8   1   4 98.4793 5.83974  11
  -8   1   4 92.8831 5.81424   1
  -8   1   4 86.8752 5.75636  16
  -7   1   4 2.57483 0.59032   1
  -7   1   4 0.89950 0.51587  15
  -7   1   4 1.64512 0.57131  11
  -7   1   4 1.31309 0.48850  16
  -6   1   4 536.223 30.4220   1
  -6   1   4 474.013 30.3519  11
   5  -1  -4 163.246 9.85696   8
   5  -1  -4 160.112 9.96808  14
   4  -1  -4 0.72204 0.40871   8
   4  -1  -4 1.46547 0.32082   5
   4  -1  -4 0.85955 0.21104   5
   3  -1  -4 240.501 14.7347  17
   3  -1  -4 241.184 14.7693   5
   3  -1  -4 266.105 14.8362   8
   3  -1  -4 244.071 14.7510  17
   3  -1  -4 270.232 14.8128   5
  -3   1   4 225.829 14.7627   5
  -3   1   4 239.363 14.7250  17
  -3   1   4 241.697 14.7474  17
   2  -1  -4 216.730 13.1020  17
   2  -1  -4 216.901 13.1667   8
   2  -1  -4 206.619 13.1323   5
   2  -1  -4 231.231 13.1211  17
   2  -1  -4 229.923 13.1688   5
  -2   1   4 214.979 13.0924  17
  -2   1   4 213.922 13.1501   5
   1  -1  -4 356.474 21.6106   5
   1  -1  -4 370.234 21.5691  17
   1  -1  -4 325.716 21.6026   5
   1  -1  -4 363.643 21.6067   8
   1  -1  -4 358.334 21.5553  17
  -1   1   4 354.746 21.6009   5
  -1   1   4 389.083 21.5721  17
  -1   1   4 363.394 21.5481  17
   0  -1  -4 0.59445 0.35099   8
   0  -1  -4 1.07147 0.32625   5
   0  -1  -4 0.87544 0.25772  17
   0   1   4 0.79308 0.32405   8
   0   1   4 0.40156 0.29440   5
   0   1   4 1.15216 0.26590  17
  -1  -1  -4 1.40751 0.41641   8
  -1  -1  -4 0.98927 0.27297  17
  -1  -1  -4 0.85581 0.31304   5
  -1  -1  -4 1.16952 0.28657  17
   1   1   4 1.25439 0.25575  17
   1   1   4 1.12701 0.28434   8
   1   1   4 1.12480 0.33858   5
   1   1   4 0.73483 0.32212   5
   1   1   4 0.99921 0.28900  17
  -2  -1  -4 177.004 11.0882   5
  -2  -1  -4 175.285 10.9832  17
   2   1   4 203.596 11.0594   5
   2   1   4 193.330 10.9847  17
   2   1   4 162.013 10.9722   8
  -3  -1  -4 97.6623 6.65956   2
  -3  -1  -4 99.9790 6.66227  10
  -3  -1  -4 120.065 6.65001   9
   3   1   4 106.269 6.53865   5
  -4  -1  -4 3.39264 0.51334  13
  -4  -1  -4 3.56511 0.87325   7
  -4  -1  -4 1.58026 0.53613  10
  -4  -1  -4 2.74162 0.66872  16
  -4  -1  -4 2.88740 0.61668   9
  -4  -1  -4 2.37709 0.66345   4
  -4  -1  -4 2.09813 0.63185   2
  -5  -1  -4 55.0058 3.84392  11
  -5  -1  -4 54.9643 3.72826  16
  -5  -1  -4 55.0178 4.09416   7
  -5  -1  -4 61.0734 3.78234   9
  -5  -1  -4 55.0083 3.94244   2
  -5  -1  -4 55.3383 3.52733  13
  -5  -1  -4 52.8464 3.81486   4
  -6  -1  -4 70.0329 4.54928   4
  -6  -1  -4 70.4395 4.65254   2
  -6  -1  -4 70.5744 4.72831   7
  -6  -1  -4 67.7358 4.48827   9
  -6  -1  -4 67.3927 4.55651  11
  -6  -1  -4 66.9870 4.42986  16
  -7  -1  -4 -1.0120 0.52979  11
 -10   2   4 3.21162 0.56203  11
  -9   2   4 0.76121 0.49679  11
  -9   2   4 0.41824 0.50628   1
  -8   2   4 8.56812 1.16020  16
  -8   2   4 10.2962 1.78161  11
  -7   2   4 9.59795 1.14320  16
  -7   2   4 12.0562 1.26659  11
  -7   2   4 11.6078 1.15646  15
  -7   2   4 12.3169 1.37048   1
  -6   2   4 72.1848 5.04014  11
  -6   2   4 77.0152 5.13388   1
  -6   2   4 92.1158 5.21865  15
   5  -2  -4 352.484 21.9538   5
   5  -2  -4 394.017 22.2850  14
   5  -2  -4 351.055 22.0222   8
   4  -2  -4 34.5695 2.18612   5
   4  -2  -4 36.4802 2.29874   8
   4  -2  -4 32.9904 2.12491  17
  -4   2   4 33.5292 2.14889  17
   3  -2  -4 104.620 5.94323   5
   3  -2  -4 95.1780 5.83210  17
   3  -2  -4 101.117 5.93668   8
   3  -2  -4 92.2658 5.92933   5
  -3   2   4 93.8264 5.85756  17
  -3   2   4 91.9728 5.90298   5
   2  -2  -4 306.626 18.0185  17
   2  -2  -4 260.735 18.0180   5
   2  -2  -4 289.775 18.0594   8
   2  -2  -4 316.499 18.0834   5
   2  -2  -4 310.709 17.9937  17
  -2   2   4 316.674 18.0227  17
  -2   2   4 303.622 17.9859  17
  -2   2   4 298.001 18.0668   5
   1  -2  -4 387.419 23.3885   5
   1  -2  -4 372.762 23.3486   8
   1  -2  -4 378.287 23.2900  17
  -1   2   4 398.079 23.3730   5
  -1   2   4 407.780 23.3211  17
  -1   2   4 389.994 23.2892  17
   0  -2  -4 576.378 34.8147   8
   0  -2  -4 558.074 34.8403   5
   0  -2  -4 561.243 34.7540  17
   0  -2  -4 601.666 34.7879  17
   0   2   4 625.901 34.7924  17
   0   2   4 562.129 34.7477  17
   0   2   4 582.641 34.8323   5
  -1  -2  -4 98.2458 6.34761   5
  -1  -2  -4 99.9463 6.25570  17
  -1  -2  -4 105.047 6.31806   8
  -1  -2  -4 101.634 6.28052  17
   1   2   4 104.213 6.24707  17
   1   2   4 104.933 6.33764   5
   1   2   4 106.545 6.29133  17
   2   2   4 1295.12 77.4793   5
  -3  -2  -4 47.8592 2.77730  13
  -3  -2  -4 39.2090 2.99073   2
  -3  -2  -4 42.6071 2.89042  16
  -3  -2  -4 38.9782 2.82450  10
  -3  -2  -4 49.0888 2.94304   9
   3   2   4 37.7761 2.86557   5
  -4  -2  -4 24.6396 2.04231  16
  -4  -2  -4 21.1548 1.93241  10
  -4  -2  -4 21.2319 2.15456   2
  -4  -2  -4 29.1818 2.11206  13
  -4  -2  -4 28.1215 2.02256   9
  -5  -2  -4 261.744 15.6891   7
  -5  -2  -4 243.289 15.3732   4
  -5  -2  -4 253.809 15.3065  16
  -5  -2  -4 259.275 15.4634   2
  -5  -2  -4 251.797 15.4040  11
  -5  -2  -4 242.397 15.2185  13
  -6  -2  -4 16.5979 1.80724   2
  -6  -2  -4 14.9882 1.64145   7
  -6  -2  -4 17.2635 1.23714  13
  -6  -2  -4 16.0822 1.49143   9
  -6  -2  -4 20.4885 1.69160   4
  -6  -2  -4 19.0041 1.55976  16
  -7  -2  -4 35.0792 2.30337  16
  -7  -2  -4 32.0731 2.32401   9
  -7  -2  -4 37.3630 2.75447   4
 -10   3   4 89.5307 4.91378  11
 -10   3   4 70.5778 4.93792   1
  -9   3   4 16.3024 1.33033  11
  -9   3   4 16.1262 1.34960   1
  -9   3   4 12.4348 1.21345  16
  -8   3   4 27.7060 2.49639   1
  -8   3   4 20.1151 1.75594  16
  -7   3   4 481.112 29.1409  11
  -7   3   4 488.629 29.2360  15
  -7   3   4 500.306 29.2218   1
  -7   3   4 466.157 29.0724  16
  -6   3   4 168.586 10.4959  11
  -6   3   4 170.633 10.5771   1
  -6   3   4 160.653 10.4291  16
  -6   3   4 187.187 10.6786  15
   5  -3  -4 434.825 25.3635   5
   5  -3  -4 419.873 25.3855   8
  -5   3   4 414.387 25.3564  11
  -5   3   4 417.020 25.4297   1
   4  -3  -4 402.112 22.8102   5
   4  -3  -4 394.646 22.8089   8
   4  -3  -4 355.936 22.6750  17
  -4   3   4 361.849 22.7062  17
   3  -3  -4 302.246 21.4444   5
   3  -3  -4 361.083 21.4011  17
   3  -3  -4 365.271 21.5003   8
   3  -3  -4 384.055 21.5269   5
   3  -3  -4 366.589 21.4494  17
  -3   3   4 361.208 21.4088  17
  -3   3   4 357.309 21.4950   5
  -3   3   4 359.209 21.4464  17
   2  -3  -4 1107.86 65.8903  17
   2  -3  -4 1100.85 65.8564  17
   2  -3  -4 1075.89 65.9338   8
   2  -3  -4 1158.34 65.9742   5
  -2   3   4 1122.36 65.8936  17
  -2   3   4 1094.52 65.9537   5
  -2   3   4 1055.46 65.8476  17
   1  -3  -4 393.577 23.4239   5
   1  -3  -4 380.960 23.3413  17
   1  -3  -4 380.188 23.3387  17
   1  -3  -4 390.483 23.4059   8
  -1   3   4 405.150 23.4280   5
  -1   3   4 383.417 23.3025  17
   0  -3  -4 177.031 10.4811   5
   0  -3  -4 163.170 10.1917  17
   0  -3  -4 173.897 10.2509   8
   0  -3  -4 153.527 10.1493  17
   0   3   4 162.361 10.1520  17
   0   3   4 176.274 10.2120  17
   0   3   4 172.353 10.2774   5
  -1  -3  -4 1578.27 95.8713   8
   1   3   4 1628.68 95.9131   5
  -2  -3  -4 79.2461 5.35187   7
  -2  -3  -4 95.5178 5.40528   9
  -2  -3  -4 82.8250 5.41145  13
  -2  -3  -4 73.2231 5.44855   2
  -2  -3  -4 88.3784 5.32890  16
  -3  -3  -4 -0.1202 0.49391   2
  -3  -3  -4 0.70413 0.63234  16
  -3  -3  -4 0.88231 0.67377   7
  -3  -3  -4 0.38920 0.42603  13
  -3  -3  -4 -0.6318 0.42499  10
  -4  -3  -4 151.769 9.29780   2
  -4  -3  -4 146.198 9.33137   7
  -4  -3  -4 161.226 9.28104   9
  -4  -3  -4 136.893 9.19124   4
  -4  -3  -4 138.182 9.19374  11
  -4  -3  -4 150.731 9.08716  13
  -4  -3  -4 153.749 9.16952  16
  -4  -3  -4 150.462 9.11544  10
  -5  -3  -4 39.0631 2.64911  16
  -5  -3  -4 34.3288 2.72594   7
  -5  -3  -4 37.5397 2.74393   4
  -5  -3  -4 35.7186 2.63484   9
  -5  -3  -4 33.8847 2.57731  11
  -5  -3  -4 38.0174 2.44020  13
  -5  -3  -4 38.1392 2.85042   2
  -6  -3  -4 12.7169 1.37094   4
  -6  -3  -4 13.1735 1.18895   9
  -6  -3  -4 10.6165 1.24162  16
  -6  -3  -4 12.7793 1.44822   2
 -10   4   4 26.6619 1.71878  11
 -10   4   4 23.6008 1.67502   1
  -9   4   4 26.0533 1.98633  16
  -9   4   4 31.4476 2.20684   1
  -9   4   4 31.0708 2.09524  11
  -8   4   4 116.250 7.29005  11
  -8   4   4 113.179 7.22403  16
  -8   4   4 123.206 7.38567   1
  -7   4   4 52.9220 3.39974  16
  -7   4   4 52.8670 3.48565  11
  -7   4   4 51.2779 3.54268  15
  -7   4   4 51.4708 3.58662   1
  -6   4   4 264.453 15.4797  15
  -6   4   4 246.425 15.3469   1
  -6   4   4 239.188 15.2019  16
  -6   4   4 256.988 15.2728  11
   5  -4  -4 123.371 7.35796   5
   5  -4  -4 116.180 7.32696   8
  -5   4   4 114.179 7.20731  16
   4  -4  -4 42.1252 3.04387   5
   4  -4  -4 49.9654 3.47042  14
   4  -4  -4 43.6129 2.99478   8
   3  -4  -4 991.443 57.6468   8
   3  -4  -4 1021.91 57.6860   5
  -3   4   4 872.997 57.5935  17
   2  -4  -4 154.535 8.90810   5
   2  -4  -4 150.747 8.85864   8
   2  -4  -4 122.972 8.75999  17
   2  -4  -4 143.981 8.79355  17
  -2   4   4 145.844 8.79776  17
  -2   4   4 135.467 8.72675  17
  -2   4   4 156.267 8.93830   5
   1  -4  -4 71.9153 5.00517  17
   1  -4  -4 79.1438 5.07413  17
   1  -4  -4 85.7758 5.20192   5
   1  -4  -4 81.9337 5.14170   8
  -1   4   4 84.1552 5.09665  17
  -1   4   4 89.9252 5.21025   5
  -1   4   4 78.6281 5.01194  17
   0  -4  -4 215.929 13.6489   5
   0  -4  -4 221.819 13.6105   8
   0   4   4 233.499 13.6610   5
  -1  -4  -4 352.412 19.8346  13
  -1  -4  -4 328.497 19.8125  12
  -1  -4  -4 332.616 19.8809   9
  -1  -4  -4 290.826 19.9485   2
  -1  -4  -4 291.457 19.8347   7
   1   4   4 379.109 20.3000   5
  -2  -4  -4 16.1021 1.63231   2
  -2  -4  -4 15.1581 1.45698  10
  -2  -4  -4 15.6301 1.44937   9
  -2  -4  -4 16.7186 1.48901  16
  -2  -4  -4 16.5442 1.63333   4
  -2  -4  -4 19.4547 1.76572   7
  -2  -4  -4 16.1273 1.33505  13
  -3  -4  -4 380.315 22.1612  13
  -3  -4  -4 377.820 22.1887  16
  -3  -4  -4 385.768 22.3039   9
  -3  -4  -4 367.996 22.3164   7
  -3  -4  -4 357.646 22.2744   2
  -3  -4  -4 337.255 22.2148   4
  -4  -4  -4 107.664 6.86848  13
  -4  -4  -4 111.316 7.00042  16
  -4  -4  -4 120.512 7.17607   2
  -4  -4  -4 114.886 6.97297  10
  -4  -4  -4 101.152 6.96839   4
  -4  -4  -4 112.119 7.03934   9
  -5  -4  -4 24.2685 1.82384   9
  -5  -4  -4 22.6101 2.02192   2
  -5  -4  -4 23.2389 1.84131  16
  -5  -4  -4 23.0805 1.65798  13
  -6  -4  -4 -0.8062 0.60909  16
  -6  -4  -4 -0.2549 0.37863   9
  -6  -4  -4 0.06618 0.36554   4
 -10   5   4 12.6968 1.04232   1
 -10   5   4 14.2611 1.03467  11
  -9   5   4 240.394 14.2422  11
  -9   5   4 225.981 14.3210   1
  -8   5   4 46.7668 3.11510  11
  -8   5   4 47.4319 3.23863   1
  -8   5   4 45.7272 3.04462  16
  -7   5   4 5.31239 1.25141   1
  -7   5   4 8.47191 1.07188  16
  -7   5   4 6.43042 1.11899  15
  -7   5   4 7.54120 1.08865  11
  -6   5   4 59.6660 3.73300  11
  -6   5   4 53.3660 3.88140   1
  -5   5   4 10.2771 1.44055   1
  -5   5   4 13.6720 1.14534  16
  -5   5   4 13.6389 1.23773  11
   4  -5  -4 140.158 8.21541   5
  -4   5   4 121.576 8.10429   1
  -4   5   4 133.004 8.01207  11
  -4   5   4 127.779 7.95178  16
   3  -5  -4 324.611 19.2636   8
   3  -5  -4 309.323 19.1800  14
   3  -5  -4 309.256 19.0028   2
   3  -5  -4 317.903 19.1609   5
   2  -5  -4 461.508 29.0917   2
   2  -5  -4 488.175 29.2711   5
   2  -5  -4 470.423 29.2239   8
  -2   5   4 519.418 29.3093   5
   1  -5  -4 32.4052 2.34969  13
  -1   5   4 39.6138 2.66667   5
   0  -5  -4 62.8750 3.85668  13
   0  -5  -4 56.6095 3.82986  12
   0  -5  -4 59.8257 4.10771   9
   0  -5  -4 55.6565 3.79600  10
   0  -5  -4 62.5359 3.93913   2
   0   5   4 67.5291 4.34008   5
  -1  -5  -4 595.641 33.3882   9
  -1  -5  -4 550.802 33.2367  10
  -1  -5  -4 496.998 33.3050   4
  -1  -5  -4 558.867 33.2941  12
  -1  -5  -4 576.243 33.3518   2
  -1  -5  -4 576.950 33.2883  13
  -1  -5  -4 525.730 33.3298   7
  -2  -5  -4 -0.3430 0.47684  10
  -2  -5  -4 -0.2168 0.55051   2
  -2  -5  -4 0.99668 0.61880  16
  -2  -5  -4 0.43853 0.48939  13
  -2  -5  -4 0.08587 0.51642   9
  -2  -5  -4 -0.4797 0.64002   7
  -2  -5  -4 0.25257 0.56722   4
  -3  -5  -4 1074.10 65.3378  10
  -3  -5  -4 1023.33 65.4702   9
  -3  -5  -4 1049.19 65.2986  13
  -3  -5  -4 1216.50 65.4956  16
  -4  -5  -4 193.405 11.5033  10
  -4  -5  -4 171.565 11.5859   9
  -4  -5  -4 186.637 11.5587   4
  -4  -5  -4 196.104 11.5410  16
  -4  -5  -4 191.902 11.5124  13
  -4  -5  -4 198.283 11.6512   2
  -5  -5  -4 0.50011 0.36538  13
  -5  -5  -4 0.15964 0.43136   9
  -9   6   4 73.5837 4.74337  16
  -9   6   4 80.1862 4.80689  11
  -9   6   4 78.8739 4.85562   1
   8  -6  -4 67.6530 4.61956   2
  -8   6   4 77.4166 4.77962   1
  -8   6   4 76.3154 4.66418  11
  -8   6   4 74.7736 4.61112  16
  -7   6   4 6.61145 1.11431  15
  -7   6   4 6.02292 1.12458   1
  -7   6   4 5.99744 1.09676  11
  -6   6   4 1.50461 0.50326  16
  -6   6   4 1.53073 0.57345  11
  -6   6   4 1.71468 0.63478   1
  -5   6   4 169.008 10.5296  11
   4  -6  -4 417.409 24.5032   2
  -4   6   4 399.115 24.5359   1
  -4   6   4 404.032 24.4515  11
   3  -6  -4 5.59537 0.87185   2
   3  -6  -4 4.14347 0.68105  10
  -3   6   4 2.80281 0.55531  11
   2  -6  -4 12.4364 1.10866   2
   2  -6  -4 10.7822 1.87719   5
   2  -6  -4 8.45980 0.94328  10
   1  -6  -4 12.0065 1.02017  13
   1  -6  -4 10.0524 1.01293  10
   1  -6  -4 11.5018 1.19751   2
   1  -6  -4 11.0460 1.01523  12
   1  -6  -4 9.47473 1.15029   7
   0  -6  -4 259.074 16.4173   7
   0  -6  -4 254.028 16.3603  12
   0  -6  -4 266.742 16.4968  13
   0  -6  -4 304.009 16.5017   2
  -1  -6  -4 302.247 17.4855  13
  -1  -6  -4 291.646 17.5343   9
  -1  -6  -4 267.442 17.4991   7
  -1  -6  -4 300.636 17.5458   2
  -1  -6  -4 301.903 17.4354  10
  -1  -6  -4 283.243 17.4789  12
  -1  -6  -4 276.599 17.5087   4
  -2  -6  -4 77.5642 4.64282  10
  -2  -6  -4 62.9298 4.73678  16
  -2  -6  -4 69.3709 4.36818   9
  -2  -6  -4 68.5634 4.20546  13
  -2  -6  -4 59.6527 4.65310   2
  -2  -6  -4 56.2768 4.24968   4
  -3  -6  -4 100.543 6.01988  10
  -3  -6  -4 96.1514 6.02899  13
  -3  -6  -4 99.4945 6.06355  16
  -3  -6  -4 95.7667 6.10116   9
  -3  -6  -4 98.3864 6.16373   2
  -3  -6  -4 93.2121 6.07363   4
  -4  -6  -4 848.701 55.5487   9
  -4  -6  -4 967.811 55.5062  16
  -4  -6  -4 967.915 55.4828  10
  -4  -6  -4 914.585 55.4983  13
  -4  -6  -4 940.052 55.5573   2
  -9   7   4 163.457 9.62870   1
  -9   7   4 153.905 9.74310  11
   8  -7  -4 1.58093 0.40755   2
  -8   7   4 1.34903 0.48742  16
  -8   7   4 1.88948 0.58381   1
  -8   7   4 3.02860 0.77162  11
   7  -7  -4 56.5240 3.75142   2
  -7   7   4 52.8061 3.84912  15
  -7   7   4 58.4298 3.70587  11
  -7   7   4 60.2761 3.69692  16
  -7   7   4 61.2209 3.85459   1
   6  -7  -4 6.45159 1.12644   2
  -6   7   4 8.77408 1.71157   1
  -6   7   4 7.14097 1.00729  16
   5  -7  -4 6.99834 1.06168   2
  -5   7   4 5.02687 0.79143   1
  -5   7   4 4.50742 0.69330  11
   4  -7  -4 93.3463 5.30473   2
   4  -7  -4 76.8940 5.13790  10
  -4   7   4 81.7500 5.19609  11
   3  -7  -4 87.5367 5.59944  10
   3  -7  -4 93.7387 5.68122   2
   2  -7  -4 97.2665 6.25063   7
   2  -7  -4 104.886 6.28609   2
   2  -7  -4 98.9855 6.15020  10
   1  -7  -4 304.989 18.3492  13
   1  -7  -4 341.863 18.4083   2
   1  -7  -4 316.042 18.2846  10
   1  -7  -4 269.940 18.2922  12
   1  -7  -4 286.345 18.3346   7
   0  -7  -4 181.450 10.8274  13
   0  -7  -4 187.275 10.9023   2
   0  -7  -4 166.358 10.8407   7
   0  -7  -4 187.053 10.7855  10
   0  -7  -4 165.256 10.7951  12
  -1  -7  -4 5.02392 0.77551   4
  -1  -7  -4 5.65615 1.25862   2
  -1  -7  -4 7.16592 1.06549  10
  -1  -7  -4 8.10435 0.88542   9
  -1  -7  -4 7.86739 0.94630  13
  -2  -7  -4 -0.6083 0.45014  10
  -2  -7  -4 0.18842 0.50054  13
  -2  -7  -4 -0.0467 0.47669   9
  -2  -7  -4 -0.8092 0.47661   2
  -2  -7  -4 -0.8036 0.53610   4
  -2  -7  -4 0.23601 0.57379  16
  -3  -7  -4 439.992 25.5833  16
  -3  -7  -4 416.998 25.5655   4
  -3  -7  -4 441.829 25.5932  13
  -3  -7  -4 372.351 25.6110   9
  -3  -7  -4 451.479 25.5612  10
  -3  -7  -4 435.116 25.6360   2
  -4  -7  -4 29.3551 1.88202  16
  -9   8   4 10.3258 0.82036   1
   8  -8  -4 35.9595 2.33097   2
  -8   8   4 36.0029 2.37853   1
   7  -8  -4 1.42508 0.43171   2
  -7   8   4 1.88361 0.42287  11
  -7   8   4 2.55231 0.58005  15
   6  -8  -4 65.2755 4.06851   2
  -6   8   4 59.8305 3.95316  11
  -6   8   4 65.0308 4.07045   1
   5  -8  -4 154.631 9.37206  10
  -5   8   4 135.534 9.31926  11
  -5   8   4 171.719 9.68881   1
   4  -8  -4 28.2965 2.08266   2
   3  -8  -4 30.7833 2.16135   2
   3  -8  -4 26.3684 1.94271  10
   2  -8  -4 38.5312 2.89263  10
   2  -8  -4 40.2827 2.78183   2
   1  -8  -4 126.445 7.27800   2
   1  -8  -4 103.543 7.17350   7
   1  -8  -4 119.748 7.14111  10
   0  -8  -4 38.6993 2.73183  13
   0  -8  -4 42.9421 2.74657  10
   0  -8  -4 42.3390 2.87947   2
  -1  -8  -4 34.5702 2.33100  10
  -1  -8  -4 35.7875 2.38330  16
  -1  -8  -4 33.2631 2.30045  13
  -1  -8  -4 33.7547 2.47441   2
  -2  -8  -4 28.7855 1.86065  10
  -2  -8  -4 26.2756 1.99224   2
  -2  -8  -4 25.9557 1.90913  16
  -3  -8  -4 13.1711 0.99772  16
   8  -9  -4 3.41535 0.56867   2
   7  -9  -4 205.349 11.5591   2
  -7   9   4 200.577 11.5429   1
  -7   9   4 167.918 11.5868  15
   6  -9  -4 27.6116 2.01276   2
   5  -9  -4 316.684 19.0910   2
   4  -9  -4 372.084 21.8721   2
   4  -9  -4 359.544 21.8191   7
   4  -9  -4 356.599 21.8956  10
   3  -9  -4 154.904 9.80482  10
   3  -9  -4 153.432 9.86915   7
   3  -9  -4 178.749 9.96201   2
   2  -9  -4 8.59236 1.08239   7
   2  -9  -4 11.1699 1.00783  10
   2  -9  -4 9.22858 1.27438   2
   1  -9  -4 7.46196 1.15452   2
   1  -9  -4 8.13877 1.35996  10
   0  -9  -4 111.053 6.94496   2
   0  -9  -4 110.956 6.88387  16
   0  -9  -4 114.796 6.84780  10
  -1  -9  -4 7.55203 0.88166  16
  -1  -9  -4 6.55687 0.96929   2
  -1  -9  -4 8.62787 0.81519  10
   7 -10  -4 1.08805 0.26354   2
   7 -10  -4 1.03309 0.37088   7
   6 -10  -4 115.279 6.53619   2
   6 -10  -4 108.509 6.60395   7
  -6  10   4 96.4803 6.57009  15
   5 -10  -4 196.465 14.1022   7
   5 -10  -4 266.946 14.0238   2
   4 -10  -4 92.1112 5.92916  10
   4 -10  -4 111.552 6.04620   2
   4 -10  -4 88.5248 6.01598   7
   3 -10  -4 3.56354 0.56373  10
   3 -10  -4 2.67348 0.51324   2
   2 -10  -4 29.3807 2.07884   2
   2 -10  -4 28.8031 2.10441  10
   1 -10  -4 8.45949 0.78238  10
   1 -10  -4 8.54334 0.88416  16
   1 -10  -4 6.31965 0.99181   2
   0 -10  -4 11.3032 1.07728  10
   0 -10  -4 10.2302 0.90127   2
   0 -10  -4 9.15818 0.85706  16
   5 -11  -4 70.6850 3.83486   2
  -5  11   4 52.6175 3.96206  15
   4 -11  -4 22.4466 1.54993   2
   3 -11  -4 33.7006 2.17363   2
  -1 -12   5 6.37931 0.57395  12
  -1 -12   5 6.80645 0.79430   4
   0 -12   5 6.25401 0.90419   4
   0 -12   5 5.68344 0.56996  10
   0 -12   5 5.76353 0.60615  12
   1 -12   5 -0.1485 0.26378  10
   1 -12   5 0.02127 0.33609  12
   2 -12   5 8.85463 0.79345  12
   2 -12   5 9.24275 0.81898  10
   3 -12   5 24.9673 1.66983  12
   3 -12   5 25.1638 1.64655  10
  -4  12  -5 9.34390 0.94669   1
   4 -12   5 8.73553 0.73025  12
   4 -12   5 9.40450 0.77833  10
  -5  12  -5 91.0838 5.52598   1
   5 -12   5 88.6588 5.43827  10
  -2 -11   5 51.3614 3.36867  15
  -2 -11   5 50.0863 3.30207  12
  -2 -11   5 57.0826 3.41772   4
  -1 -11   5 127.874 7.82990  15
  -1 -11   5 122.177 7.74636  12
  -1 -11   5 134.208 7.84535   4
  -1 -11   5 123.803 7.67155  10
   0 -11   5 103.659 6.50941  15
   0 -11   5 104.708 6.40646   3
   0 -11   5 103.116 6.43157  12
   0 -11   5 105.941 6.36649  10
   1 -11   5 187.535 11.8329   3
   1 -11   5 198.939 11.7222  10
   1 -11   5 196.606 11.8137  12
   2 -11   5 130.239 7.92156   3
   2 -11   5 127.845 7.97069  12
   2 -11   5 131.996 7.90357  10
   3 -11   5 61.4404 3.75816  10
   3 -11   5 58.2863 3.79343  12
   4 -11   5 230.830 13.6732  12
   4 -11   5 255.287 13.6681  10
   4 -11   5 192.647 13.6242   2
   5 -11   5 8.87179 0.91454   2
   5 -11   5 9.31381 0.79614  12
   5 -11   5 9.81603 0.88159  10
  -6  11  -5 3.47365 0.57703   1
  -4 -10   5 20.3773 1.44081  13
  -4 -10   5 23.7756 1.50403  15
  -3 -10   5 36.5422 2.36156  12
  -3 -10   5 35.0961 2.31697  13
  -3 -10   5 36.3391 2.44643  15
  -3 -10   5 31.5398 2.34333   9
  -3 -10   5 42.0066 2.57123   4
  -2 -10   5 549.443 32.9371   3
  -2 -10   5 568.111 32.8679  13
  -2 -10   5 562.290 33.0316  15
  -2 -10   5 526.358 32.9285   9
  -2 -10   5 529.220 32.9378  12
  -2 -10   5 557.955 32.8511  10
  -1 -10   5 12.6020 1.26639  15
  -1 -10   5 10.1044 1.25426   9
  -1 -10   5 11.7103 1.12710   3
  -1 -10   5 13.1631 1.15274  12
  -1 -10   5 13.2721 1.07464  10
   0 -10   5 41.8096 2.96434  15
   0 -10   5 44.5933 2.88452  12
   0 -10   5 42.6347 2.77701  10
   0 -10   5 42.8752 2.85927   3
   1 -10   5 21.4190 1.60631  12
   1 -10   5 17.9579 1.61980  15
   1 -10   5 21.4328 1.58388   3
   1 -10   5 21.5661 1.54383  10
   2 -10   5 342.747 22.6531   3
   2 -10   5 386.279 22.6641  10
   2 -10   5 400.550 22.7730  12
   3 -10   5 440.098 27.8431   3
   3 -10   5 457.249 27.8073   2
   3 -10   5 493.541 27.8324  10
  -4  10  -5 2.17118 0.58394   6
   4 -10   5 3.87252 0.81535   2
   4 -10   5 3.23832 0.56256  12
   4 -10   5 2.30593 0.43120  10
  -5  10  -5 0.67181 0.37242   6
   5 -10   5 0.86379 0.39846  10
   5 -10   5 1.27653 0.42485  12
  -6  10  -5 78.0152 4.85859   6
  -6  10  -5 77.8658 5.06245   1
   6 -10   5 82.3725 4.81217  10
   6 -10   5 73.0716 4.78703  12
  -7  10  -5 6.57577 1.10888   1
   7 -10   5 9.68497 1.01845  10
  -5  -9   5 28.5327 2.00030  15
  -5  -9   5 32.3553 1.95635  13
  -5  -9   5 33.2079 2.06397   4
  -5  -9   5 30.1458 1.98732   9
  -4  -9   5 160.667 10.0773  15
  -4  -9   5 162.904 10.0025  12
  -4  -9   5 162.062 9.96456  13
  -4  -9   5 154.742 10.0319   9
  -4  -9   5 184.544 10.1402   4
  -3  -9   5 309.912 18.0228  10
  -3  -9   5 336.775 18.2668   4
  -3  -9   5 292.142 18.1095   3
  -3  -9   5 265.228 18.1375   9
  -3  -9   5 288.808 18.1083  12
  -3  -9   5 302.878 18.0583  13
  -3  -9   5 304.903 18.2129  15
  -2  -9   5 121.039 7.18137   4
  -2  -9   5 116.766 7.12093  15
  -2  -9   5 113.378 7.01182   3
  -2  -9   5 113.263 6.90289  10
  -2  -9   5 114.126 6.92351  13
  -2  -9   5 111.361 7.00245  12
  -2  -9   5 100.685 7.02704   9
  -1  -9   5 144.489 9.60402   9
  -1  -9   5 159.132 9.68664  15
  -1  -9   5 154.578 9.49019  13
  -1  -9   5 163.099 9.59746  12
  -1  -9   5 160.195 9.58958   3
  -1  -9   5 154.878 9.47203  10
   0  -9   5 48.5465 3.21933  15
   0  -9   5 43.1961 3.13461   9
   0  -9   5 48.9523 3.10082   3
   0  -9   5 43.6535 2.98177  10
   0  -9   5 48.4262 3.09429  12
   1  -9   5 20.7774 1.57156   3
   1  -9   5 19.3616 1.61581  15
   1  -9   5 20.9100 1.52541  10
   1  -9   5 19.6429 1.56853  12
   2  -9   5 35.9360 2.43137   3
   2  -9   5 34.0690 2.39676  10
   2  -9   5 37.3541 2.48327  12
  -3   9  -5 9.86876 1.55366   6
   3  -9   5 14.1987 1.22845  10
   3  -9   5 12.1639 1.12051   3
   3  -9   5 13.3447 1.17386  12
  -4   9  -5 4.46377 0.79293   6
   4  -9   5 4.24505 0.60434  10
   4  -9   5 5.26700 0.82022  12
  -5   9  -5 41.2549 3.04407  16
  -5   9  -5 50.8619 3.27276   6
   5  -9   5 49.5270 3.12532  12
   5  -9   5 49.1611 3.13313  10
  -6   9  -5 62.3956 4.18180  16
  -6   9  -5 65.4257 4.34618   6
   6  -9   5 69.1062 4.24047  10
   6  -9   5 72.0865 4.29881  12
  -7   9  -5 63.9291 3.90305   6
  -7   9  -5 62.1097 3.98934   1
  -7   9  -5 60.5775 3.76741  16
   7  -9   5 64.8380 3.79036  10
   7  -9   5 52.1352 3.72855  12
  -6  -8   5 1.56218 0.31694   9
  -6  -8   5 1.71827 0.28379  13
  -5  -8   5 142.045 9.10980   9
  -5  -8   5 140.339 9.11023  15
  -5  -8   5 151.435 9.03353  13
  -5  -8   5 162.580 9.17754   4
  -4  -8   5 0.62814 0.48725  12
  -4  -8   5 1.07826 0.53072  15
  -4  -8   5 -0.5817 0.60935   4
  -4  -8   5 -0.0610 0.38889  13
  -4  -8   5 0.24250 0.48815   9
  -3  -8   5 15.8187 1.41511   3
  -3  -8   5 14.0938 1.25053  10
  -3  -8   5 12.4586 1.44319  12
  -3  -8   5 11.1177 1.62656   9
  -3  -8   5 16.5060 1.52568  15
  -2  -8   5 761.233 45.7384  13
  -2  -8   5 748.228 45.8976   9
  -2  -8   5 770.790 45.8153   3
  -2  -8   5 736.423 45.6899  10
  -2  -8   5 813.474 45.9333  15
  -2  -8   5 751.023 45.7975  12
  -1  -8   5 15.5227 1.44152  15
  -1  -8   5 14.1182 1.26401   3
  -1  -8   5 12.4673 1.30276   9
  -1  -8   5 13.9652 1.23971  12
   0  -8   5 152.973 8.96659  12
   0  -8   5 143.667 9.03246  15
   0  -8   5 150.985 8.96815   3
   0  -8   5 135.818 9.00774   9
   0  -8   5 144.564 8.85096  10
   1  -8   5 6.16548 0.96156  15
   1  -8   5 6.73576 0.86672  10
   1  -8   5 8.87849 0.94695   3
   1  -8   5 8.93351 0.91933  12
   2  -8   5 224.442 14.2319  10
   2  -8   5 241.323 14.3194   3
   2  -8   5 241.621 14.3274  12
  -3   8  -5 5.92604 0.95271   6
  -3   8  -5 5.92061 0.86153  16
   3  -8   5 6.78399 0.90211  12
   3  -8   5 6.97897 1.01424  10
   3  -8   5 7.70952 0.83885   3
  -4   8  -5 175.394 10.5857   6
  -4   8  -5 151.304 10.3522  16
   4  -8   5 186.175 10.4851  12
  -5   8  -5 620.110 39.3257  16
  -5   8  -5 647.667 39.4846   6
  -5   8  -5 680.229 39.4594   4
   5  -8   5 672.612 39.3528  12
  -6   8  -5 77.8777 4.98010   6
  -6   8  -5 79.4004 5.00139   4
  -6   8  -5 68.4238 4.69420  16
   6  -8   5 76.7856 4.76880  12
  -7   8  -5 31.5913 2.27198   1
  -7   8  -5 27.3805 1.93205  16
  -7   8  -5 28.6384 2.46049   6
   7  -8   5 27.7404 1.90928  12
  -8   8  -5 7.68711 0.91225   6
   8  -8   5 9.14863 0.87551  10
  -6  -7   5 71.0145 4.28462   4
  -6  -7   5 68.4430 4.16086  13
  -6  -7   5 66.6193 4.24998   9
  -6  -7   5 62.9926 4.21175  15
  -5  -7   5 71.8154 4.45878  12
  -5  -7   5 67.9603 4.55057  15
  -5  -7   5 65.9275 4.55599   9
  -5  -7   5 74.0328 4.71537   4
  -5  -7   5 74.7993 4.44747  13
  -4  -7   5 14.6119 1.39485  15
  -4  -7   5 12.5452 1.44273   9
  -4  -7   5 13.8523 1.26988   3
  -4  -7   5 16.9769 1.40557  12
  -4  -7   5 13.8708 1.24230  13
  -4  -7   5 12.2706 2.65378   4
  -3  -7   5 243.037 14.7977  13
  -3  -7   5 249.364 14.9727   4
  -3  -7   5 223.881 14.7488  10
  -3  -7   5 242.257 14.8450   3
  -3  -7   5 240.982 14.9687   9
  -3  -7   5 250.798 14.8455  12
  -3  -7   5 260.553 14.9637  15
  -2  -7   5 180.599 10.7164  13
  -2  -7   5 169.689 10.6419  10
  -2  -7   5 174.643 10.8840   9
  -2  -7   5 183.669 10.7670  12
  -2  -7   5 181.558 10.7733   3
  -2  -7   5 189.897 10.8787  15
  -2  -7   5 152.671 10.7395   1
  -1  -7   5 1.82340 0.56536  15
  -1  -7   5 1.28789 0.58039   9
  -1  -7   5 2.56260 0.57792   1
  -1  -7   5 1.41483 0.48344  12
  -1  -7   5 1.36129 0.41964   3
  -1  -7   5 1.78059 0.38455  10
  -1  -7   5 1.35091 0.45571  13
   0   7  -5 1.25008 0.48130   5
   0  -7   5 1.30401 0.42384  12
   0  -7   5 0.19906 0.39805   9
   0  -7   5 1.41769 0.54707  15
   0  -7   5 0.83696 0.31316  10
   0  -7   5 1.30116 0.47235   3
  -1   7  -5 707.570 40.6726   5
   1  -7   5 617.361 40.5089  14
   1  -7   5 688.944 40.5984  12
   1  -7   5 693.195 40.6190  10
  -2   7  -5 3.32635 0.62538   5
  -2   7  -5 2.66958 0.57894   6
   2  -7   5 4.97687 0.75441  12
   2  -7   5 4.72291 0.73216   3
   2  -7   5 4.19593 0.52693  10
   2  -7   5 4.07431 0.64342   5
  -3   7  -5 54.4918 3.77590   4
  -3   7  -5 53.6987 3.70522   6
   3  -7   5 60.2724 3.60811  12
   3  -7   5 52.4148 3.69988   5
   3  -7   5 55.4899 3.55679   3
  -4   7  -5 245.444 15.2464  16
  -4   7  -5 233.303 15.4385   7
  -4   7  -5 297.393 15.7976   4
   4  -7   5 234.221 15.2607   3
  -5   7  -5 145.454 9.22004   7
  -5   7  -5 130.637 8.96541  11
  -5   7  -5 155.557 9.18231   4
  -5   7  -5 139.795 8.93631  16
  -5   7  -5 152.528 9.21016   6
   5  -7   5 153.322 9.01248  12
  -6   7  -5 96.7625 6.26764  11
  -6   7  -5 98.9209 6.22753  16
  -6   7  -5 104.612 6.47563   4
  -6   7  -5 99.4607 6.46070   6
   6  -7   5 100.962 6.24874  12
  -7   7  -5 0.48475 0.75245   1
  -7   7  -5 0.52031 0.57577   6
  -7   7  -5 0.34208 0.56222  11
   7  -7   5 0.63941 0.49458  12
  -8   7  -5 26.6628 1.97547  16
  -8   7  -5 32.2708 2.04574  11
  -8   7  -5 33.8527 2.25710   4
  -8   7  -5 32.2946 2.15764   6
  -7  -6   5 11.1944 0.98803  15
  -7  -6   5 14.7648 1.11061   9
  -7  -6   5 14.8322 1.16727   4
  -7  -6   5 13.9009 1.01362  13
  -6  -6   5 83.4497 5.12078  13
  -6  -6   5 82.6976 5.21438  15
  -6  -6   5 79.2005 5.46800   4
  -6  -6   5 85.3004 5.25092   9
  -5  -6   5 4.18944 0.79168  13
  -5  -6   5 6.81865 1.31702  15
  -5  -6   5 5.88759 0.84586  12
  -4  -6   5 3.41343 0.83446   4
  -4  -6   5 3.15877 0.68507  15
  -4  -6   5 3.00840 0.57929  12
  -4  -6   5 2.21872 0.67837   9
  -4  -6   5 2.49627 0.53751  13
  -4  -6   5 2.82306 0.61182   3
  -3  -6   5 486.982 29.0768  13
  -3  -6   5 482.362 29.0945  12
  -3  -6   5 464.403 29.1828   4
  -3  -6   5 498.629 29.2049  15
  -3  -6   5 491.968 29.2501   9
  -3  -6   5 478.451 29.1052   3
   2   6  -5 3.07565 0.54220   5
  -2  -6   5 3.87670 0.61065   3
  -2  -6   5 4.93280 0.70466  13
  -2  -6   5 3.46656 0.62008  15
  -2  -6   5 4.51433 0.86491   9
  -2  -6   5 4.15658 0.87769   1
  -2  -6   5 4.52753 0.71540  12
   1   6  -5 58.4532 3.91760   5
  -1  -6   5 60.6791 3.92016   3
  -1  -6   5 65.8417 3.98189  12
   0   6  -5 627.702 36.7500   5
   0  -6   5 596.546 36.6274  14
  -1   6  -5 19.6940 1.45596   5
   1  -6   5 18.5755 1.43521   5
   1  -6   5 17.4375 1.29956  14
  -2   6  -5 118.481 7.26013   5
   2  -6   5 114.734 7.19561  14
   2  -6   5 118.628 7.21980  12
  -3   6  -5 50.5814 3.58584   4
   3  -6   5 43.7987 3.11550   3
   3  -6   5 50.5938 3.17964  12
   3  -6   5 49.2269 3.20559   5
  -4   6  -5 93.6133 5.94022  16
  -4   6  -5 88.1113 5.98485  11
  -4   6  -5 87.3250 6.15033   7
  -4   6  -5 99.3598 6.16100   4
  -4   6  -5 108.551 6.22883   6
   4  -6   5 100.053 5.98313  12
   4  -6   5 92.5832 5.92942   3
  -5   6  -5 0.50138 0.70749   6
  -5   6  -5 0.53839 0.52940  16
  -5   6  -5 2.08293 0.70206  11
  -5   6  -5 0.84759 0.77579   7
  -5   6  -5 1.21139 0.76913   4
   5  -6   5 1.83197 0.59224  12
  -6   6  -5 194.277 12.4787   7
  -6   6  -5 205.214 12.3233   4
  -6   6  -5 176.473 12.5418  11
  -6   6  -5 205.923 12.3886   6
   6  -6   5 213.077 12.1945  12
  -7   6  -5 5.20497 1.01652   7
  -7   6  -5 5.12441 0.77465  16
  -7   6  -5 6.34396 1.18946  11
  -7   6  -5 6.06810 1.17075   6
  -7   6  -5 8.86535 1.59732   1
  -7   6  -5 4.28821 0.91381   4
   7  -6   5 6.56262 0.82070  12
  -8   6  -5 37.0625 2.54737   4
  -8   6  -5 39.1818 2.44249  11
  -8   6  -5 35.8092 2.43188   6
   8  -6   5 31.5050 2.25535  12
  -8  -5   5 8.99604 0.78699  13
  -8  -5   5 10.9678 0.85931   9
  -7  -5   5 5.26033 1.10695   4
  -7  -5   5 6.94913 0.81117  15
  -7  -5   5 7.49108 0.88826   9
  -7  -5   5 6.68808 0.76278  13
  -6  -5   5 107.147 6.67971   4
  -6  -5   5 106.213 6.62980   9
  -6  -5   5 103.921 6.59265  15
  -6  -5   5 103.519 6.48430  13
  -5  -5   5 41.6951 2.82646  13
  -5  -5   5 43.1658 3.01694   9
  -5  -5   5 39.3664 3.12631   4
  -5  -5   5 46.1250 2.85784  12
  -5  -5   5 43.4513 2.83629   3
  -5  -5   5 42.7564 2.96123  15
  -4  -5   5 450.622 25.5586  12
  -4  -5   5 427.563 25.7018   9
  -4  -5   5 436.889 25.6575  15
  -4  -5   5 415.018 25.5453   3
  -4  -5   5 422.695 25.5353  13
  -4  -5   5 393.191 25.6410   4
   3   5  -5 55.6525 3.63330   5
  -3  -5   5 50.6593 3.72649   1
  -3  -5   5 61.7163 3.70345  12
  -3  -5   5 61.5176 3.90268   3
  -3  -5   5 61.4106 3.87817   9
  -3  -5   5 60.3174 3.70624  13
  -3  -5   5 52.8282 3.83907   4
  -3  -5   5 60.4111 3.81109  15
   2   5  -5 367.793 22.1139   5
   1   5  -5 38.2107 2.62624  17
   1   5  -5 44.7587 2.68532   5
  -1  -5   5 43.7382 2.59248  17
  -1  -5   5 37.8222 2.76559   5
   0   5  -5 149.748 8.62068   5
   0   5  -5 139.956 8.58182  17
   0  -5   5 132.884 8.57462   5
   0  -5   5 136.512 8.53303  17
   0  -5   5 136.051 8.59753  17
   0  -5   5 150.959 8.53755  14
  -1   5  -5 1948.12 121.027  17
  -1   5  -5 2013.16 121.056   5
   1  -5   5 2181.01 121.032  17
   1  -5   5 1935.08 120.986  14
   1  -5   5 2062.80 121.059   5
   1  -5   5 2014.37 121.040  17
  -2   5  -5 69.6315 3.90971  17
  -2   5  -5 57.7773 3.68406  17
   2  -5   5 58.9499 3.80136  17
   2  -5   5 56.0199 3.75469  17
   2  -5   5 56.8763 3.71932  14
   2  -5   5 58.1837 3.77070   5
  -3   5  -5 3.80813 0.75977   6
   3  -5   5 3.10789 0.53188   5
   3  -5   5 3.13650 0.67305  14
  -4   5  -5 562.182 34.4539  11
  -4   5  -5 625.775 34.5278   4
  -4   5  -5 529.855 34.5248   7
  -5   5  -5 83.4424 5.35788   4
  -5   5  -5 77.5224 5.45415   7
  -5   5  -5 80.1722 5.49027  11
  -5   5  -5 87.5880 5.41141   6
   5  -5   5 75.4334 5.03795   3
  -6   5  -5 226.239 13.7766   4
  -6   5  -5 214.783 13.5923  16
  -6   5  -5 220.236 13.9073   7
  -6   5  -5 234.718 13.8675   6
  -6   5  -5 223.261 13.7414  11
  -7   5  -5 14.2236 1.60918  11
  -7   5  -5 13.3191 1.47090   6
  -7   5  -5 13.9337 2.07320   7
  -7   5  -5 10.9138 1.76776   4
  -7   5  -5 10.8375 1.41114   1
  -7   5  -5 10.2056 1.35770  16
   7  -5   5 13.8739 1.14973  12
  -8   5  -5 6.60345 0.84767   6
  -8   5  -5 5.40830 0.84664  16
  -8   5  -5 5.31997 1.23936   4
  -8   5  -5 6.43785 1.07634  11
   8  -5   5 6.20267 0.62814  12
  -8  -4   5 0.81430 0.36709  13
  -8  -4   5 0.48424 0.38867   9
  -7  -4   5 64.3081 4.24723   4
  -7  -4   5 68.8125 4.24841   9
  -7  -4   5 62.3492 4.17100  15
  -7  -4   5 66.9676 4.10968  13
  -6  -4   5 231.936 13.6935   9
  -6  -4   5 224.551 13.6408  15
  -6  -4   5 216.995 13.5226  13
  -6  -4   5 219.143 13.6545   4
  -5  -4   5 70.2420 4.47790  12
  -5  -4   5 74.3132 4.63018  15
  -5  -4   5 67.1732 4.41574   3
  -5  -4   5 71.7161 4.46140  13
  -5  -4   5 62.3801 4.58284   4
  -5  -4   5 75.1511 4.68361   9
  -4  -4   5 45.6948 3.17403  12
  -4  -4   5 44.1958 2.83258  13
  -4  -4   5 46.0648 3.02618   9
  -4  -4   5 40.5401 3.08152   4
  -4  -4   5 35.6798 2.84919   1
  -4  -4   5 46.4137 2.96731  15
   3   4  -5 601.666 36.1957   8
   2   4  -5 14.3795 1.01440  14
   2   4  -5 14.5335 1.02975   5
   2   4  -5 11.2909 1.05279   5
   2   4  -5 12.3952 0.95367  17
  -2  -4   5 12.8721 0.89560  17
   1   4  -5 18.0894 1.37502   5
   1   4  -5 17.6582 1.22646  17
   1   4  -5 20.3144 1.32920   5
   1   4  -5 18.3647 1.28514  17
  -1  -4   5 18.9823 1.26669   5
  -1  -4   5 18.4055 1.26834  17
   0   4  -5 271.862 16.0836   5
   0   4  -5 272.062 16.0664  17
   0   4  -5 263.809 16.0182  17
   0  -4   5 257.980 16.0488  17
   0  -4   5 266.699 16.0676   5
   0  -4   5 270.884 16.0329  14
   0  -4   5 265.395 16.0248  17
  -1   4  -5 34.0141 2.14882  17
   1  -4   5 32.4081 2.18251  17
   1  -4   5 33.0448 2.21895   5
   1  -4   5 34.0047 2.17763  17
   1  -4   5 36.1203 2.25715  14
  -2   4  -5 1029.23 60.7037   5
  -2   4  -5 1020.61 60.7294   8
  -2   4  -5 986.671 60.6040   8
  -2   4  -5 1013.67 60.6345  17
  -2   4  -5 992.632 60.6844  17
   2  -4   5 1020.05 60.6350  17
   2  -4   5 1060.15 60.7039   5
   2  -4   5 991.050 60.6595  14
  -4   4  -5 319.245 17.5817  11
  -4   4  -5 276.889 17.2806  16
  -4   4  -5 290.043 17.4279   4
  -4   4  -5 258.548 17.4725   7
   4  -4   5 286.860 17.2879   3
   4  -4   5 286.555 17.3100   5
  -5   4  -5 126.224 7.53668   6
  -5   4  -5 108.785 7.00273  16
   5  -4   5 104.436 6.93147   3
  -6   4  -5 318.252 18.9093   6
  -6   4  -5 315.176 18.8250  11
  -6   4  -5 312.382 18.6665  16
  -6   4  -5 299.249 18.7189   1
  -6   4  -5 306.848 18.9552   7
  -6   4  -5 321.991 18.8306   4
   6  -4   5 286.841 18.6079   3
  -7   4  -5 377.895 23.9116   6
  -7   4  -5 394.192 23.8953  11
  -7   4  -5 401.500 24.0281   7
  -7   4  -5 401.820 23.8902   4
  -7   4  -5 398.224 23.7546  16
  -8   4  -5 0.21425 0.47013  16
  -8   4  -5 0.10347 0.33260   6
  -8   4  -5 0.46046 0.63605  11
   8  -4   5 -0.6244 0.38623  12
  -8  -3   5 94.9962 6.30412  15
  -8  -3   5 104.255 6.26253  13
  -8  -3   5 109.463 6.35840   9
  -7  -3   5 63.4023 4.11061  15
  -7  -3   5 62.1100 4.00660  13
  -7  -3   5 61.1936 4.16248   4
  -7  -3   5 68.3190 4.18653   9
  -6  -3   5 1.06019 0.51556  15
  -6  -3   5 1.49230 0.55097   9
  -6  -3   5 0.95253 0.53650   4
  -6  -3   5 0.89853 0.44222  13
  -6  -3   5 0.49177 0.38770   1
  -5  -3   5 147.044 8.71939   9
  -5  -3   5 122.437 8.50806   1
  -5  -3   5 154.845 8.69755  15
  -5  -3   5 131.033 8.63937   4
  -5  -3   5 143.546 8.55476  13
  -5  -3   5 138.744 8.53402   3
   4   3  -5 247.742 14.3120   8
  -4  -3   5 220.086 14.0008  13
  -4  -3   5 233.423 14.1048  15
  -4  -3   5 223.907 14.1255   9
   3   3  -5 22.9468 1.64100   5
   3   3  -5 26.1645 1.63259   5
   3   3  -5 25.0132 1.72397   8
   2   3  -5 0.25061 0.16914  17
   2   3  -5 0.28040 0.35120   8
   2   3  -5 0.15929 0.23352  17
   2   3  -5 0.39093 0.25018   5
  -2  -3   5 0.30633 0.17683   5
  -2  -3   5 0.06355 0.17522  17
  -2  -3   5 0.33973 0.19945  17
   1   3  -5 293.316 17.4451   8
   1   3  -5 292.188 17.4122  17
   1   3  -5 274.367 17.4770   5
   1   3  -5 291.425 17.3812  17
  -1  -3   5 297.848 17.4195   5
  -1  -3   5 291.976 17.4044  17
   0   3  -5 871.287 54.3873   8
   0   3  -5 926.862 54.3535  17
   0   3  -5 890.298 54.3811  17
   0  -3   5 920.116 54.3983   5
   0  -3   5 911.373 54.3773  17
   0  -3   5 927.380 54.3784  14
   0  -3   5 920.673 54.3585  17
  -1   3  -5 169.199 9.71789  17
  -1   3  -5 156.765 9.71020   8
  -1   3  -5 160.626 9.84172   5
   1  -3   5 157.495 9.84768   5
   1  -3   5 155.574 9.72596  14
   1  -3   5 167.078 9.71609  17
  -2   3  -5 6.36356 0.69795   5
  -2   3  -5 6.12851 0.51267   8
  -2   3  -5 6.46160 0.54422  17
  -2   3  -5 5.74699 0.66046  17
   2  -3   5 5.97066 0.65171  17
   2  -3   5 5.59310 0.67393  14
   2  -3   5 6.66177 0.59984  17
   2  -3   5 5.92264 0.73128   5
   3  -3   5 301.722 18.6693  14
   3  -3   5 318.299 18.6824   5
  -4   3  -5 1.22487 0.80321   7
  -4   3  -5 0.86089 0.54918  16
  -4   3  -5 0.98934 0.53671   2
  -4   3  -5 0.32592 0.74866   4
  -4   3  -5 0.88372 0.50829   9
  -4   3  -5 0.53077 0.64942   6
   4  -3   5 0.13806 0.38587   5
   4  -3   5 0.85973 0.58395   3
  -5   3  -5 3.99030 0.69167   9
  -5   3  -5 2.43529 0.72242  16
  -5   3  -5 3.20861 1.36688   7
  -5   3  -5 2.02198 1.35695  11
   5  -3   5 2.89572 0.55639   3
  -6   3  -5 33.1685 2.35333   9
  -6   3  -5 30.4707 2.62190   4
  -6   3  -5 33.3617 2.64394  11
  -6   3  -5 29.7037 2.35914  16
  -6   3  -5 29.8908 2.94655   7
  -6   3  -5 33.2321 2.53372   6
   6  -3   5 29.7656 2.15907   3
  -7   3  -5 128.804 8.51725   6
  -7   3  -5 137.731 8.74196   7
  -7   3  -5 144.816 8.58820   4
  -7   3  -5 137.576 8.43540  16
  -7   3  -5 137.037 8.59424  11
  -8   3  -5 183.461 10.6340  11
  -8   3  -5 185.818 10.6288   4
   8  -3   5 153.995 10.5208  12
  -8  -2   5 87.6931 5.91057   4
  -8  -2   5 100.232 5.78627   9
  -8  -2   5 90.4099 5.73744  15
  -8  -2   5 92.5980 5.67625  13
  -7  -2   5 86.1554 5.34702   9
  -7  -2   5 83.3193 5.29114  15
  -7  -2   5 80.4933 5.17744  13
  -6  -2   5 12.9774 1.72035   9
  -6  -2   5 13.8793 1.36727   4
  -6  -2   5 9.98442 1.13389  11
   5   2  -5 493.252 32.1813   8
  -5  -2   5 522.910 32.2723   9
  -5  -2   5 530.544 32.0136  13
  -5  -2   5 585.432 32.1556  15
   4   2  -5 205.250 12.4586   8
   3   2  -5 154.421 9.05941   8
   3   2  -5 152.824 8.96944   5
   3   2  -5 139.015 8.98728   5
   2   2  -5 77.1553 4.81208   8
   2   2  -5 77.0356 6.35850   5
   2   2  -5 80.3968 4.76745   5
   2   2  -5 76.1308 4.71652  17
   2   2  -5 72.5655 4.73284  17
  -2  -2   5 83.4357 4.75399   5
  -2  -2   5 84.1417 4.72362  17
  -2  -2   5 72.8387 4.72396  17
   1   2  -5 431.062 25.7873  17
   1   2  -5 393.500 25.8309   5
   1   2  -5 431.023 25.7644  17
   1   2  -5 442.109 25.8263   8
   1   2  -5 451.228 25.8193   5
  -1  -2   5 428.342 25.7776  17
  -1  -2   5 432.932 25.7973   5
  -1  -2   5 436.004 25.7678  17
   0   2  -5 18.9976 1.33963  17
   0   2  -5 19.1837 1.34431   8
   0   2  -5 21.8096 1.32120  17
   0   2  -5 19.6829 1.36756   5
   0  -2   5 18.7431 1.31050  17
   0  -2   5 19.9596 1.36014   5
   0  -2   5 20.3627 1.35398  14
   0  -2   5 21.2704 1.31751  17
  -1   2  -5 503.517 30.0747  17
  -1   2  -5 511.309 30.1034   5
  -1   2  -5 507.525 30.0447  17
  -1   2  -5 469.417 30.0428   8
   1  -2   5 509.811 30.0719  14
   1  -2   5 505.473 30.0895   5
   1  -2   5 508.112 30.0979  17
   1  -2   5 502.472 30.0664  17
  -2   2  -5 83.8586 5.35013  17
  -2   2  -5 81.8691 5.41027   5
   2  -2   5 85.3018 5.39643  14
   2  -2   5 89.4681 5.40625  17
   2  -2   5 94.6222 5.47316  17
   2  -2   5 93.7459 5.43014   5
   3  -2   5 181.497 10.9980   5
   3  -2   5 181.134 10.9904  14
  -4   2  -5 341.581 21.1625   4
  -4   2  -5 325.732 21.2677   7
  -4   2  -5 391.578 21.3218   6
  -4   2  -5 326.277 21.1974   2
   4  -2   5 362.751 21.1054   5
  -5   2  -5 251.996 15.7628   4
  -5   2  -5 247.629 15.8075   2
  -5   2  -5 281.832 15.9345   6
  -5   2  -5 249.031 15.7924  11
  -5   2  -5 288.353 15.8144   9
  -5   2  -5 246.305 15.7461  16
  -5   2  -5 240.675 15.9007   7
  -6   2  -5 16.2858 2.32568   7
  -6   2  -5 20.8902 2.02048  16
  -6   2  -5 16.9901 2.10456   6
  -6   2  -5 16.8819 1.95933  11
  -6   2  -5 19.9666 1.76469   9
  -6   2  -5 16.3052 1.97412   4
  -7   2  -5 34.9819 2.42048   9
  -7   2  -5 35.6849 2.69489  11
  -7   2  -5 36.1690 2.97255   7
  -7   2  -5 38.0457 2.67639   4
  -7   2  -5 31.4408 2.35439   6
  -7   2  -5 37.2731 2.49038  16
   7  -2   5 32.7569 2.27201   3
  -8   2  -5 4.81280 0.97708   4
  -8   2  -5 6.74706 1.05548  11
  -8   2  -5 5.07592 0.75806  16
  -8  -1   5 61.1722 3.81682   1
  -8  -1   5 59.7166 3.75215  13
  -8  -1   5 58.1563 3.78904  11
  -8  -1   5 61.8205 3.84839  15
  -7  -1   5 17.4659 1.48092  11
  -7  -1   5 19.9961 1.54770   1
  -7  -1   5 18.7202 1.60240   9
  -7  -1   5 20.8897 1.57497  15
  -7  -1   5 17.5123 1.39331  13
  -7  -1   5 15.5464 1.45083  16
  -6  -1   5 55.3646 3.65227   9
  -6  -1   5 53.8355 3.51057  13
  -6  -1   5 53.0767 3.55029   1
  -6  -1   5 48.9758 3.50677  11
  -6  -1   5 63.3472 3.69903  15
   5   1  -5 198.367 12.6074  14
  -5  -1   5 221.388 12.5508  13
  -5  -1   5 200.666 12.5394   1
   4   1  -5 55.1896 3.52604   8
   3   1  -5 1646.87 99.1601   5
   3   1  -5 1608.25 99.0974  17
   3   1  -5 1792.70 99.1578   5
   3   1  -5 1651.59 99.1009  17
  -3  -1   5 1696.95 99.1000  17
  -3  -1   5 1563.99 99.0909  17
   2   1  -5 3285.19 203.442   5
   2   1  -5 3456.83 203.394  17
   2   1  -5 3470.56 203.383  17
  -2  -1   5 3219.14 203.409   5
  -2  -1   5 3606.83 203.388  17
   1   1  -5 122.505 7.44644   8
   1   1  -5 122.588 7.40545  17
   1   1  -5 110.082 7.44398   5
   1   1  -5 124.395 7.44230   5
   1   1  -5 121.663 7.39100  17
  -1  -1   5 123.991 7.39164  17
  -1  -1   5 133.471 7.45389   5
   0   1  -5 1379.02 86.1606   8
   0   1  -5 1466.32 86.1386  17
   0   1  -5 1398.64 86.1960   5
   0   1  -5 1432.86 86.1513  17
   0  -1   5 1527.61 86.1708  14
   0  -1   5 1485.92 86.1395  17
   0  -1   5 1406.59 86.1732   5
  -1   1  -5 336.174 21.6787   8
  -1   1  -5 360.570 21.7359   5
  -1   1  -5 361.342 21.6783  17
  -1   1  -5 366.311 21.7032  17
   1  -1   5 365.020 21.6781  17
   1  -1   5 368.612 21.7228   5
   1  -1   5 375.121 21.7021  14
  -2   1  -5 51.8149 3.21448  17
  -2   1  -5 50.0979 3.24958  17
  -2   1  -5 50.4851 3.28768   5
   2  -1   5 55.1133 3.28446   5
   2  -1   5 51.3333 3.21717  17
   2  -1   5 50.8516 3.23793  17
   2  -1   5 53.0332 3.25375  14
   3  -1   5 1309.83 79.1208  14
   3  -1   5 1337.13 79.1425   5
  -4   1  -5 374.026 23.4991   4
  -4   1  -5 362.944 23.4086  16
  -4   1  -5 446.770 23.6897   6
  -4   1  -5 377.894 23.6420   7
  -4   1  -5 384.937 23.5773   2
  -5   1  -5 5.92020 1.10732  11
  -5   1  -5 6.25914 1.20288  16
  -5   1  -5 8.87438 1.43174   4
  -5   1  -5 7.14129 1.23661   6
  -5   1  -5 10.2854 1.19825   9
  -5   1  -5 7.90652 1.27734   7
  -5   1  -5 8.54115 1.69298   2
  -6   1  -5 112.795 7.66012   6
  -6   1  -5 126.768 7.75497   4
  -6   1  -5 123.531 7.97148   7
  -6   1  -5 122.062 7.71467   9
  -6   1  -5 125.735 7.81771  11
  -6   1  -5 123.579 7.63169  16
  -6   1  -5 127.036 7.85748   2
  -7   1  -5 40.3548 2.86588   9
  -7   1  -5 42.4377 2.90442  16
  -7   1  -5 45.7563 3.23644   7
   7  -1   5 43.3667 2.75307   3
  -8   1  -5 71.1330 4.11429  16
  -8   1  -5 61.5320 3.99438   4
  -8   1  -5 61.3507 3.98577  11
  -9   0   5 272.511 17.8274   1
  -9   0   5 321.460 17.8360  11
  -8   0   5 517.280 29.4665   1
  -8   0   5 499.978 29.4372  11
  -8   0   5 497.622 29.4984  15
  -8   0   5 446.144 29.3772  16
  -7   0   5 322.773 17.4924  15
  -7   0   5 289.800 17.3621   1
  -7   0   5 283.923 17.3397  11
  -7   0   5 277.323 17.2878  13
  -7   0   5 260.915 17.2728  16
  -6   0   5 152.892 8.91993  13
  -6   0   5 138.388 8.92274  11
  -6   0   5 146.163 8.95050   1
   5   0  -5 40.8418 2.67163   8
   5   0  -5 40.9917 2.77392  14
  -5   0   5 37.7496 2.63441   1
   4   0  -5 410.119 26.3180   5
   4   0  -5 445.331 26.5085   5
   4   0  -5 463.766 26.4305   8
   3   0  -5 903.351 55.0156  17
   3   0  -5 887.447 55.0625   5
   3   0  -5 976.615 55.1276   8
   3   0  -5 908.731 55.0263  17
   3   0  -5 937.905 55.0772   5
  -3   0   5 912.444 55.0229  17
   2   0  -5 13.7773 1.07138   8
   2   0  -5 14.0932 1.05611   5
   2   0  -5 13.7399 0.95305  17
   2   0  -5 13.2760 0.95037  17
   2   0  -5 11.6226 0.96549   5
  -2   0   5 12.8517 0.89564  17
  -2   0   5 12.0821 0.98092   5
  -2   0   5 15.9468 0.94911  17
   1   0  -5 409.949 26.8945   5
   1   0  -5 450.513 26.7037  17
   1   0  -5 438.521 26.7438   8
   1   0  -5 463.471 26.7610   5
   1   0  -5 436.474 26.7000  17
  -1   0   5 443.482 26.7349   5
  -1   0   5 445.558 26.6867  17
  -1   0   5 481.270 26.7213  17
   0   0  -5 54.4063 3.51459   8
   0   0  -5 58.1716 3.48640  17
   0   0  -5 53.7290 3.48443  17
   0   0  -5 57.4878 3.56094   5
   0   0   5 55.9269 3.46508  17
   0   0   5 56.4919 3.52799   5
   0   0   5 59.9002 3.48705  17
  -1   0  -5 33.7612 2.31824   5
  -1   0  -5 35.0672 2.23373  17
  -1   0  -5 34.1253 2.25311  17
  -1   0  -5 33.4678 2.25494   8
   1   0   5 34.9848 2.22670  17
   1   0   5 36.0610 2.23782  17
   1   0   5 37.1799 2.26056  14
   1   0   5 37.1570 2.30857   5
  -2   0  -5 18.5557 1.27648  17
  -2   0  -5 15.8319 1.32222   5
   2   0   5 19.8661 1.29235  14
  -3   0  -5 90.8874 6.04889   7
  -3   0  -5 92.3069 5.80491  10
  -3   0  -5 94.4740 5.97459   2
   3   0   5 97.8006 5.82224   5
   3   0   5 92.4250 5.75359  14
  -4   0  -5 222.913 12.0686   9
  -4   0  -5 192.783 12.0823   2
  -4   0  -5 200.016 11.8609  13
  -4   0  -5 177.182 11.9690   4
  -4   0  -5 188.510 12.1579   7
  -4   0  -5 207.980 12.1106   6
  -4   0  -5 181.138 11.9011  16
  -5   0  -5 22.6534 1.96940   6
  -5   0  -5 26.8919 2.00770   9
  -5   0  -5 24.4051 2.20334  11
  -5   0  -5 24.2838 1.97833  16
  -5   0  -5 25.0734 1.73154  13
  -5   0  -5 23.2727 2.13842   4
  -5   0  -5 24.7374 2.34095   2
  -5   0  -5 21.3656 2.61393   7
  -6   0  -5 23.9432 2.54172   7
  -6   0  -5 24.7371 2.24476  11
  -6   0  -5 23.8098 2.28311   2
  -6   0  -5 24.7440 1.97905   9
  -6   0  -5 26.9610 2.17001   4
  -6   0  -5 25.6812 2.04896  16
  -7   0  -5 2.03095 0.51303   9
  -7   0  -5 2.36417 0.55348  16
  -7   0  -5 1.82357 0.54007   4
  -7   0  -5 2.26215 0.66671  11
  -7   0  -5 1.04188 0.68466   7
   7   0   5 2.27777 0.40192   3
  -9   1   5 29.7772 2.05392  11
  -9   1   5 31.0079 2.07591   1
  -8   1   5 167.246 10.6520  16
  -8   1   5 175.034 10.7142  11
  -8   1   5 175.122 10.7679  15
  -8   1   5 185.849 10.7534   1
  -7   1   5 727.038 43.8649  11
  -7   1   5 664.680 43.7853  16
  -7   1   5 794.599 44.0015  15
  -7   1   5 739.415 43.8908   1
  -6   1   5 207.120 13.5895  11
  -6   1   5 258.184 13.7947  15
  -6   1   5 213.645 13.6244   1
  -6   1   5 218.087 13.5740  13
   5  -1  -5 257.381 15.8330   8
   5  -1  -5 267.351 16.0856  14
  -5   1   5 266.710 15.8982  11
  -5   1   5 253.425 15.8218   1
   4  -1  -5 171.961 10.2740   5
   4  -1  -5 166.998 10.3213   8
   3  -1  -5 354.957 22.4961   5
   3  -1  -5 364.372 22.4653  17
   3  -1  -5 399.107 22.5395   5
   3  -1  -5 423.091 22.6147   8
   3  -1  -5 371.519 22.4620  17
  -3   1   5 359.096 22.5484   5
  -3   1   5 382.750 22.4679  17
  -3   1   5 345.395 22.4282  17
   2  -1  -5 188.204 10.8924   5
   2  -1  -5 161.177 10.8489   5
   2  -1  -5 179.473 10.8261  17
   2  -1  -5 181.331 10.8858   8
   2  -1  -5 180.077 10.8077  17
  -2   1   5 189.883 10.8298  17
  -2   1   5 173.496 10.7903  17
  -2   1   5 184.278 10.9125   5
   1  -1  -5 65.1143 4.07315  17
   1  -1  -5 64.9133 4.13809   8
   1  -1  -5 67.6729 4.16482   5
   1  -1  -5 70.5682 4.09769  17
  -1   1   5 63.9438 4.05372  17
  -1   1   5 68.5404 4.09274  17
  -1   1   5 65.4310 4.14313   5
   0  -1  -5 -0.1385 0.24822  17
   0  -1  -5 0.69211 0.27748  17
   0  -1  -5 0.24809 0.39498   8
   0   1   5 0.14632 0.24947  17
   0   1   5 0.46584 0.29884  17
   0   1   5 -0.0006 0.32653   5
  -1  -1  -5 15.3172 1.17924   8
  -1  -1  -5 15.0812 1.12304  17
  -1  -1  -5 15.0162 1.26582   5
  -1  -1  -5 15.7296 1.10876  17
   1   1   5 16.6058 1.24438   5
   1   1   5 14.7218 1.14508  17
   1   1   5 14.8049 1.07458  17
   2   1   5 130.694 8.02354   5
  -3  -1  -5 100.901 6.89162   7
  -3  -1  -5 117.350 6.85722   6
  -3  -1  -5 99.5222 6.64947  10
  -3  -1  -5 101.787 6.80629   2
  -3  -1  -5 117.256 6.64830  13
  -3  -1  -5 97.3862 6.71418  16
  -3  -1  -5 121.594 6.82758   9
  -4  -1  -5 57.6899 3.54633   9
  -4  -1  -5 51.4916 3.80307   7
  -4  -1  -5 43.8847 3.71722   4
  -4  -1  -5 54.8011 3.42718  13
  -4  -1  -5 52.0422 3.67514   2
  -4  -1  -5 49.2731 3.49752  16
  -5  -1  -5 -1.3512 0.95777   7
  -5  -1  -5 1.11871 0.64970  13
  -5  -1  -5 -0.5566 0.88526  11
  -5  -1  -5 -0.2748 0.66408   2
  -5  -1  -5 -0.0299 0.59047   9
  -5  -1  -5 -0.0664 0.67857  16
  -5  -1  -5 -0.0996 0.70624   4
  -6  -1  -5 -0.3777 0.67205  11
  -6  -1  -5 0.12447 0.57569   2
  -6  -1  -5 1.17740 0.62489  16
  -6  -1  -5 0.16969 0.56499   9
  -6  -1  -5 0.72456 0.59846   4
  -7  -1  -5 68.9030 4.42536   9
  -7  -1  -5 76.7562 4.40986   4
  -7  -1  -5 68.2695 4.33830  11
  -7  -1  -5 75.9263 4.41370  16
   7   1   5 62.1867 4.29863   3
 -10   2   5 -0.3428 0.28994  11
  -9   2   5 186.740 11.3424  16
  -8   2   5 2.13740 0.51605  15
  -8   2   5 1.69328 0.46943  16
  -7   2   5 421.611 25.3146  11
  -7   2   5 427.210 25.3558   1
  -7   2   5 440.402 25.4610  15
  -7   2   5 391.523 25.2303  16
  -6   2   5 1371.26 84.2060  11
  -6   2   5 1263.29 84.1424  16
  -6   2   5 1399.14 84.2629   1
  -6   2   5 1598.27 84.4430  15
   5  -2  -5 296.316 18.1327  14
   5  -2  -5 284.661 17.8913   5
  -5   2   5 287.746 17.9673   1
  -5   2   5 340.315 18.1543  15
  -5   2   5 276.354 17.9040  11
   4  -2  -5 28.1910 1.86481   5
   4  -2  -5 26.5141 1.86098   8
   4  -2  -5 25.2210 1.65560  17
  -4   2   5 23.8812 1.69531  17
   3  -2  -5 1267.65 74.7575   8
   3  -2  -5 1212.21 74.6501  17
   3  -2  -5 1383.97 74.7821   5
   3  -2  -5 1107.05 74.7048   5
  -3   2   5 1278.01 74.6878  17
   2  -2  -5 19.3802 1.59205   8
   2  -2  -5 26.1279 1.48920  17
   2  -2  -5 21.8536 1.57080  17
   2  -2  -5 21.4582 1.63944   5
  -2   2   5 20.3890 1.60429   5
  -2   2   5 26.2578 1.57100  17
  -2   2   5 20.7526 1.51711  17
   1  -2  -5 0.57361 0.41707   5
   1  -2  -5 0.36581 0.30567  17
   1  -2  -5 0.12611 0.26717  17
   1  -2  -5 -0.0652 0.42297   8
  -1   2   5 0.49716 0.44650   5
  -1   2   5 0.04279 0.29693  17
  -1   2   5 -0.1471 0.22151  17
   0  -2  -5 7.81507 0.92174   8
   0  -2  -5 9.48265 0.80664  17
   0  -2  -5 8.48225 1.00398   5
   0  -2  -5 8.52063 0.73568  17
   0   2   5 7.96311 0.79730  17
   0   2   5 8.11111 0.69782  17
   0   2   5 8.99522 0.94026   5
  -1  -2  -5 44.6451 2.97642   8
   1   2   5 47.1471 3.03449   5
  -2  -2  -5 77.3801 5.00131  16
  -2  -2  -5 82.9805 5.78242   7
  -2  -2  -5 73.7350 5.11466  13
  -2  -2  -5 85.6958 5.03338  10
  -3  -2  -5 154.369 10.3089   4
  -3  -2  -5 167.003 10.2753  16
  -3  -2  -5 168.489 10.2518  10
  -3  -2  -5 169.406 10.4049   2
  -3  -2  -5 168.141 10.4772   7
  -3  -2  -5 182.196 10.2613  13
  -4  -2  -5 29.2111 1.96312  13
  -4  -2  -5 24.0853 2.25208   4
  -4  -2  -5 28.7730 2.20020  16
  -4  -2  -5 26.6618 2.14039  10
  -4  -2  -5 29.5995 2.18888   9
  -4  -2  -5 28.0711 2.37375   2
  -4  -2  -5 27.6127 2.60257   7
  -5  -2  -5 12.1200 1.36048   9
  -5  -2  -5 12.8620 1.78978   2
  -5  -2  -5 12.7562 1.43221  16
  -5  -2  -5 13.2050 1.91515   7
  -5  -2  -5 14.3588 1.56139  11
  -5  -2  -5 13.7026 1.12542  13
  -5  -2  -5 12.8132 1.59451   4
  -6  -2  -5 188.321 11.2455   2
  -6  -2  -5 175.867 11.1349  11
  -6  -2  -5 184.522 11.2722   7
  -6  -2  -5 182.811 11.1210  16
  -6  -2  -5 177.280 11.2132   9
  -6  -2  -5 193.049 11.1802   4
 -10   3   5 2.22596 0.37049   1
  -9   3   5 46.5801 3.03862  11
  -9   3   5 45.3216 3.14895   1
  -8   3   5 3.14095 0.60900   1
  -8   3   5 2.08666 0.49998  16
  -8   3   5 3.05053 0.57703  15
  -7   3   5 132.710 8.01061  11
  -7   3   5 123.122 8.13342  15
  -7   3   5 124.718 7.92578  16
  -7   3   5 137.829 8.10835   1
  -6   3   5 15.3083 1.35306  16
  -6   3   5 15.8857 1.65298  15
  -6   3   5 17.9436 1.58103   1
  -6   3   5 18.1930 1.45463  11
   5  -3  -5 14.8990 1.36146   5
  -5   3   5 14.8726 1.34119  11
   4  -3  -5 2649.92 157.914   5
   4  -3  -5 2634.98 157.936   8
   3  -3  -5 418.866 24.5745   5
   3  -3  -5 386.067 24.5352   8
  -3   3   5 427.571 24.7445   5
  -3   3   5 397.808 24.4866  17
   2  -3  -5 15.7066 1.35344   8
   2  -3  -5 18.3667 1.46285   5
   2  -3  -5 14.3087 1.16714  17
   2  -3  -5 16.9921 1.23452  17
  -2   3   5 18.1865 1.40737   5
  -2   3   5 16.3769 1.15819  17
  -2   3   5 15.9472 1.23052  17
   1  -3  -5 1.44261 0.41793  17
   1  -3  -5 1.26586 0.54354   8
   1  -3  -5 0.72567 0.49110   5
  -1   3   5 1.01431 0.41645  17
  -1   3   5 1.32533 0.28864  17
  -1   3   5 1.44765 0.51532   5
   0  -3  -5 399.888 25.4227   8
   0  -3  -5 402.999 25.4809   5
   0   3   5 464.761 25.6182   5
  -1  -3  -5 2.01645 0.54758   9
  -1  -3  -5 0.64009 0.47463   2
  -1  -3  -5 2.01815 0.71321  13
  -1  -3  -5 1.18975 0.55335   7
  -1  -3  -5 1.63022 0.64607   8
  -1  -3  -5 1.02931 0.40378  10
   1   3   5 1.45486 0.55106   5
  -2  -3  -5 103.597 6.67677   7
  -2  -3  -5 117.143 6.65753   9
  -2  -3  -5 90.0404 6.54902   4
  -2  -3  -5 112.131 6.51489  13
  -2  -3  -5 107.011 6.63518   2
  -2  -3  -5 105.409 6.48427  10
  -2  -3  -5 101.533 6.51380  16
  -3  -3  -5 545.055 32.4067  10
  -3  -3  -5 545.349 32.6058   7
  -3  -3  -5 569.497 32.5817   9
  -3  -3  -5 477.984 32.4415   4
  -3  -3  -5 560.399 32.4309  13
  -3  -3  -5 541.760 32.4354  16
  -4  -3  -5 13.5131 1.52414  11
  -4  -3  -5 15.3515 1.38186  13
  -4  -3  -5 14.8033 2.01580   7
  -4  -3  -5 11.5821 1.67138   9
  -5  -3  -5 29.9946 2.18478   9
  -5  -3  -5 27.6287 2.24073   7
  -5  -3  -5 29.9455 2.09698  11
  -5  -3  -5 28.9754 2.36487   2
  -5  -3  -5 28.9591 2.05329  13
  -5  -3  -5 30.9956 2.13798  16
  -6  -3  -5 82.1483 4.86321   2
  -6  -3  -5 76.3169 4.59733   4
  -6  -3  -5 64.8411 4.62865   9
 -10   4   5 351.626 21.4038   1
 -10   4   5 362.601 21.3942  11
  -9   4   5 97.9857 6.01388  16
  -8   4   5 44.1564 2.88811   1
  -8   4   5 41.2963 2.69105  16
  -8   4   5 44.9708 2.82284  11
  -8   4   5 35.2635 2.76892  15
  -7   4   5 175.253 10.9522  16
  -7   4   5 186.686 11.1201   1
  -7   4   5 184.072 11.0363  11
  -7   4   5 175.910 11.2156  15
  -6   4   5 87.7256 6.49696  15
  -6   4   5 93.7842 5.98584  16
  -6   4   5 109.270 6.17916  11
  -5   4   5 311.804 18.7644   1
  -5   4   5 307.255 18.6733  11
  -4   4   5 1249.73 74.9194  11
   3  -4  -5 161.614 9.71086   5
   3  -4  -5 151.878 9.64960   8
   2  -4  -5 3.85153 0.79419   8
   2  -4  -5 2.52458 0.70961   5
  -2   4   5 5.43002 1.06211   5
   1  -4  -5 962.905 59.2948   7
   1  -4  -5 994.571 59.3154   2
   1  -4  -5 969.219 59.2917  13
   1  -4  -5 934.285 59.3615   8
  -1   4   5 1092.75 59.6055   5
   0  -4  -5 99.9876 6.00131  13
   0  -4  -5 100.447 6.06077   2
   0  -4  -5 90.0594 6.40397   9
   0  -4  -5 88.1081 5.93372  10
   0   4   5 105.462 6.19207   5
  -1  -4  -5 91.9001 5.58756   9
  -1  -4  -5 90.8260 5.49837  13
  -1  -4  -5 85.0804 5.45774  10
  -1  -4  -5 82.4829 5.60358   7
  -1  -4  -5 90.4980 5.58668   2
  -2  -4  -5 298.397 18.0830  16
  -2  -4  -5 294.808 18.0448  10
  -2  -4  -5 281.865 18.2084   7
  -2  -4  -5 310.546 18.2052   9
  -2  -4  -5 307.749 18.2036   2
  -2  -4  -5 302.790 18.0860  13
  -3  -4  -5 6.00357 0.85272  13
  -3  -4  -5 4.44396 0.63810  10
  -3  -4  -5 4.18513 0.71158   2
  -3  -4  -5 3.96166 0.83683   4
  -3  -4  -5 4.77035 0.78268   9
  -4  -4  -5 26.5349 1.85507  13
  -4  -4  -5 27.4952 1.98663  10
  -4  -4  -5 30.1706 2.04450  16
  -4  -4  -5 22.0191 2.04349  11
  -4  -4  -5 23.2855 2.01145   4
  -4  -4  -5 27.1896 2.24213   2
  -4  -4  -5 27.2822 2.01821   9
  -5  -4  -5 50.4258 3.24249   2
  -5  -4  -5 46.6156 3.14360   9
  -5  -4  -5 44.8882 3.41966   4
  -5  -4  -5 49.7542 3.08103  16
 -10   5   5 8.24669 0.72933  11
 -10   5   5 7.86130 0.74902   1
  -9   5   5 1.26656 0.45969   1
  -8   5   5 25.4371 1.88867  16
  -8   5   5 28.3609 2.10000   1
  -8   5   5 29.6676 2.03880  11
  -7   5   5 20.2703 1.78376  16
  -7   5   5 20.2556 1.85353  15
  -7   5   5 21.6221 1.84042   1
  -7   5   5 22.1000 1.72704  11
   6  -5  -5 1.14112 0.41540   2
  -6   5   5 1.00936 0.56509  11
  -6   5   5 0.66055 0.53719   1
  -6   5   5 -0.1595 0.83097  15
  -6   5   5 0.36817 0.42540  16
   5  -5  -5 66.0589 4.27708   2
  -5   5   5 67.8197 4.37647   1
  -5   5   5 64.9620 4.19225  16
  -5   5   5 69.7285 4.27719  11
   4  -5  -5 9.46991 1.00649   2
  -4   5   5 9.64559 1.04567  11
  -4   5   5 7.75796 1.20608   1
   3  -5  -5 51.7041 3.27188   2
   3  -5  -5 50.9430 3.54233   5
  -3   5   5 48.3637 3.21989  11
   2  -5  -5 545.904 31.1105   5
   2  -5  -5 455.029 30.7423  10
   2  -5  -5 539.665 30.8301   2
   1  -5  -5 61.8479 3.89382   2
   1  -5  -5 58.8097 3.85622   7
   1  -5  -5 57.6391 3.74898  10
   1  -5  -5 61.6160 3.83377  13
   0  -5  -5 251.314 14.8744  13
   0  -5  -5 244.377 14.8103  10
   0  -5  -5 256.778 14.9279   2
   0  -5  -5 229.202 14.8935   7
   0  -5  -5 246.106 14.9315   9
  -1  -5  -5 0.95364 0.46064   9
  -1  -5  -5 -0.8670 0.41420  10
  -1  -5  -5 -0.0879 0.48536  13
  -1  -5  -5 -0.0917 0.48370   2
  -2  -5  -5 7.59212 1.11601  10
  -2  -5  -5 7.55596 1.47340   7
  -2  -5  -5 6.26398 1.42002   2
  -2  -5  -5 7.47248 0.97951  13
  -2  -5  -5 9.43766 1.19528  16
  -2  -5  -5 8.55856 1.77060   4
  -2  -5  -5 9.17395 1.09610   9
  -3  -5  -5 37.0021 2.58460   4
  -3  -5  -5 33.2338 2.65156   7
  -3  -5  -5 35.8230 2.75031   2
  -3  -5  -5 38.4443 2.53743  10
  -3  -5  -5 37.6851 2.58818  16
  -3  -5  -5 37.3679 2.59830   9
  -3  -5  -5 37.8826 2.49814  13
  -4  -5  -5 81.8858 5.10487  13
  -4  -5  -5 77.0475 5.18480   9
  -4  -5  -5 83.3679 5.24511   2
  -4  -5  -5 87.1729 5.14365  16
  -5  -5  -5 11.6534 0.88621  16
  -5  -5  -5 11.9210 1.01515   2
  -5  -5  -5 10.4479 0.90781   9
  -9   6   5 21.4045 1.59168   1
  -9   6   5 23.0029 1.57392  11
   8  -6  -5 44.5201 3.01799   2
  -8   6   5 54.5780 3.11712  11
  -8   6   5 40.5914 3.10589  15
  -8   6   5 47.3904 3.20049  16
  -8   6   5 51.4588 3.16862   1
   7  -6  -5 -0.3843 0.37263   2
  -7   6   5 0.05603 0.65298  15
  -7   6   5 0.21053 0.44657  16
  -7   6   5 1.25105 0.59715   1
   6  -6  -5 14.4018 1.38247   2
  -6   6   5 14.3339 1.34958  11
  -6   6   5 13.2757 1.51829   1
  -6   6   5 15.0033 1.26554  16
   5  -6  -5 49.1346 3.28437   2
  -5   6   5 50.2571 3.33818   1
  -5   6   5 50.4859 3.26959  11
   4  -6  -5 28.5695 2.15604   2
  -3   6   5 14.2390 1.18057  11
   2  -6  -5 11.5989 1.88154   2
   2  -6  -5 15.4582 1.14608  10
  -2   6   5 14.4402 1.17492  11
   1  -6  -5 377.087 23.6488  10
   1  -6  -5 389.857 23.7372  13
   1  -6  -5 429.705 23.7862   2
   1  -6  -5 379.433 23.7335   7
   0  -6  -5 0.29317 0.45346  10
   0  -6  -5 0.94833 0.51604  13
   0  -6  -5 0.32379 0.51431   2
   0  -6  -5 -0.1281 0.56687   7
  -1  -6  -5 94.2917 6.28321  13
  -1  -6  -5 103.065 6.40961   2
  -1  -6  -5 97.8973 6.47197   9
  -1  -6  -5 109.090 6.31009  10
  -2  -6  -5 231.672 14.1534  13
  -2  -6  -5 243.685 14.1535  16
  -2  -6  -5 230.521 14.2309   2
  -2  -6  -5 239.872 14.1101  10
  -2  -6  -5 221.778 14.2007   9
  -3  -6  -5 26.8372 1.89886  16
  -3  -6  -5 24.7988 2.50270   2
  -3  -6  -5 27.5718 1.95159  10
  -3  -6  -5 24.9131 1.86845   9
  -4  -6  -5 93.8844 5.54395  16
  -4  -6  -5 100.228 5.62530   2
  -4  -6  -5 79.2481 5.56868   9
  -9   7   5 121.940 7.30881   1
  -9   7   5 118.328 7.25570  11
   8  -7  -5 72.9778 4.73657   2
  -8   7   5 64.7222 4.83429  15
  -8   7   5 83.4303 4.80567   1
  -8   7   5 86.2403 4.76923  11
   7  -7  -5 133.706 8.19016   2
  -7   7   5 139.412 8.19547  11
  -7   7   5 123.853 8.37862  15
  -7   7   5 139.493 8.25411   1
   6  -7  -5 0.20623 0.39904   2
  -6   7   5 0.05852 0.50968  11
  -6   7   5 0.52755 0.49581   1
   5  -7  -5 141.777 8.37284   2
  -5   7   5 130.131 8.33451  11
   4  -7  -5 78.7851 4.67067   2
  -4   7   5 68.1819 4.56450  11
   3  -7  -5 9.64781 1.20740   2
  -3   7   5 8.07376 0.88523  11
   2  -7  -5 41.6288 2.93316   7
   2  -7  -5 45.3286 2.97054   2
   2  -7  -5 40.9756 2.75742  10
   1  -7  -5 31.8956 2.41950   7
   1  -7  -5 32.4263 2.26504  10
   1  -7  -5 35.0402 2.44260   2
   0  -7  -5 73.0275 4.40379  10
   0  -7  -5 75.6774 4.55195   2
   0  -7  -5 61.1442 4.47992   7
  -1  -7  -5 71.0070 4.33572  16
  -1  -7  -5 67.8051 4.27716  10
  -1  -7  -5 65.7633 4.31701  13
  -1  -7  -5 67.8647 4.43104   2
  -2  -7  -5 147.878 8.49698  10
  -2  -7  -5 121.612 8.54068   9
  -2  -7  -5 141.796 8.51614  16
  -2  -7  -5 147.793 8.61445   2
  -3  -7  -5 6.42816 0.75981  16
  -3  -7  -5 5.88276 0.93339   2
   8  -8  -5 80.9634 5.39104   2
  -8   8   5 87.8625 5.36187  11
  -8   8   5 96.8582 5.42003   1
   7  -8  -5 13.1611 1.02411   2
  -7   8   5 11.4526 1.02712   1
  -7   8   5 10.3572 0.93025  11
  -7   8   5 11.5380 1.16249  15
   6  -8  -5 119.766 6.90403   2
  -6   8   5 109.830 6.86128  11
  -6   8   5 107.396 6.90131   1
   5  -8  -5 64.4018 3.78734   2
  -5   8   5 52.7924 3.65112  11
   4  -8  -5 8.50502 1.18631   2
   3  -8  -5 17.6077 1.62752   2
   3  -8  -5 17.9725 1.57197   7
   3  -8  -5 15.5426 1.28633  10
   2  -8  -5 78.8594 5.04289  10
   2  -8  -5 76.9783 5.15072   7
   2  -8  -5 89.6978 5.22410   2
   1  -8  -5 1.28307 0.57490   2
   1  -8  -5 2.05884 0.44337  10
   1  -8  -5 1.55402 0.54986   7
   0  -8  -5 0.51632 0.51233  16
   0  -8  -5 0.03208 0.61583  10
   0  -8  -5 -0.1076 0.50672   2
  -1  -8  -5 34.0157 2.26035  16
  -1  -8  -5 32.4161 2.35010   2
  -1  -8  -5 33.9392 2.20015  10
  -2  -8  -5 0.30710 0.32733  16
  -2  -8  -5 -0.3436 0.31083   2
  -2  -8  -5 -0.0875 0.25490  10
   7  -9  -5 6.20736 0.78104   2
  -7   9   5 4.69557 0.66010  15
   6  -9  -5 108.792 6.38539   2
  -6   9   5 98.8959 6.51070  15
   5  -9  -5 68.2375 4.40549   7
   5  -9  -5 71.3776 4.76558   2
   4  -9  -5 6.59889 1.20594   7
   4  -9  -5 6.90230 1.11616   2
   3  -9  -5 95.8934 6.24485   7
   3  -9  -5 110.220 6.32457   2
   3  -9  -5 98.5117 6.16844  10
   2  -9  -5 22.5748 1.62269  10
   2  -9  -5 25.5140 2.02804   2
   1  -9  -5 60.8416 3.80233  10
   1  -9  -5 61.9619 3.95573   2
   0  -9  -5 20.8689 1.36740  10
   0  -9  -5 19.9142 1.49530  16
   0  -9  -5 18.9593 1.56013   2
   6 -10  -5 3.26556 0.63065   2
   6 -10  -5 2.45514 0.57107   7
  -6  10   5 2.78032 0.55864  15
   5 -10  -5 17.3835 1.41752   7
   5 -10  -5 19.7530 1.48703   2
   4 -10  -5 455.507 27.3156   2
   3 -10  -5 166.452 10.0907   2
   2 -10  -5 68.6113 4.38101  16
   2 -10  -5 74.8298 4.76105   2
   1 -10  -5 -0.4529 0.29714   2
   1 -10  -5 -0.3799 0.36971  16
  -1 -12   6 27.3360 1.85178  12
  -1 -12   6 31.2351 1.93876   4
   0 -12   6 16.6774 1.17597  12
   1 -12   6 19.8413 1.30470  10
   1 -12   6 19.6907 1.36859  12
   2 -12   6 61.1150 3.79818  12
   3 -12   6 47.3459 3.06582  10
   3 -12   6 51.7493 3.11157  12
   4 -12   6 140.250 8.15701  10
   4 -12   6 130.026 8.16605  12
   5 -12   6 0.73980 0.19636  10
  -2 -11   6 36.5484 2.39183  15
  -2 -11   6 30.7914 2.27417  12
  -2 -11   6 40.9853 2.72166   4
  -1 -11   6 106.029 6.48520  12
  -1 -11   6 103.309 6.52662  15
  -1 -11   6 101.553 6.37998  10
  -1 -11   6 111.347 6.56706   4
  -1 -11   6 106.319 6.46727   3
   0 -11   6 8.13894 0.86694  15
   0 -11   6 8.30494 0.76455  10
   0 -11   6 8.95235 0.85846  12
   0 -11   6 8.46342 0.84239   3
   1 -11   6 0.76055 0.39987  10
   1 -11   6 0.84469 0.40225   3
   1 -11   6 0.66252 0.42134  12
   2 -11   6 145.897 9.05865  10
   2 -11   6 152.846 9.07712   3
   3 -11   6 11.0785 0.99617  12
   4 -11   6 22.7740 1.64645  12
   4 -11   6 24.7093 1.63755  10
   5 -11   6 101.950 6.52494  12
   5 -11   6 112.277 6.50830  10
  -6  11  -6 131.031 8.05673   1
   6 -11   6 132.430 7.93535  10
  -4 -10   6 45.1550 2.84848  15
  -3 -10   6 0.46716 0.42442   9
  -3 -10   6 1.50772 0.41535  12
  -3 -10   6 1.39214 0.35109  13
  -3 -10   6 1.49091 0.46000  15
  -3 -10   6 1.11967 0.50306   4
  -2 -10   6 25.8469 1.76853  12
  -2 -10   6 23.2736 1.65626  13
  -2 -10   6 21.7990 1.72514   9
  -2 -10   6 27.1754 1.88469  15
  -2 -10   6 26.2450 1.77246   3
  -1 -10   6 117.391 7.73924   9
  -1 -10   6 127.552 7.67744  12
  -1 -10   6 130.894 7.68915   3
  -1 -10   6 122.495 7.58018  10
  -1 -10   6 125.452 7.75428  15
   0 -10   6 172.105 10.3357   3
   0 -10   6 166.907 10.3967  15
   0 -10   6 166.084 10.2208  10
   0 -10   6 171.564 10.3406  12
   1 -10   6 210.115 13.8646  15
   1 -10   6 237.576 13.8567   3
   1 -10   6 230.002 13.8686  12
   1 -10   6 234.977 13.7607  10
   2 -10   6 30.5397 2.04082  10
   2 -10   6 28.7185 2.05779   3
   3 -10   6 2.10614 0.55084  12
   3 -10   6 2.00745 0.44635   3
   3 -10   6 1.60288 0.39038  10
  -4  10  -6 493.881 30.4704   6
   4 -10   6 524.591 30.4001   2
   4 -10   6 515.114 30.4007  10
   4 -10   6 494.204 30.4720  12
  -5  10  -6 52.8362 3.48798   6
   5 -10   6 54.7771 3.52405  12
   5 -10   6 56.3030 3.46117  10
  -6  10  -6 4.91146 0.86631   1
  -6  10  -6 4.76425 0.70145   6
   6 -10   6 5.21316 0.65246  12
   6 -10   6 6.48214 0.72527  10
  -7  10  -6 171.491 10.5491   1
   7 -10   6 177.331 10.4729  10
  -5  -9   6 61.1488 3.56253  13
  -5  -9   6 57.9154 3.62507  15
  -5  -9   6 55.6770 3.59998   9
  -4  -9   6 18.2025 1.57484   4
  -4  -9   6 14.8611 1.29334   9
  -4  -9   6 17.7056 1.39609  15
  -4  -9   6 17.0024 1.20797  13
  -4  -9   6 16.5542 1.25164  12
  -3  -9   6 16.5381 1.27120  13
  -3  -9   6 16.5447 1.35926   3
  -3  -9   6 17.0259 1.34226  12
  -3  -9   6 14.2972 1.39164   9
  -3  -9   6 17.7717 1.47525  15
  -3  -9   6 19.7460 1.78147   4
  -2  -9   6 20.6551 1.89616   4
  -2  -9   6 15.2584 1.49030   9
  -2  -9   6 20.1123 1.59724  15
  -2  -9   6 16.0796 1.31444  13
  -2  -9   6 16.6482 1.44110   3
  -2  -9   6 17.4948 1.43816  12
  -1  -9   6 191.247 11.8240   9
  -1  -9   6 190.737 11.6312  15
  -1  -9   6 196.208 11.5596   3
  -1  -9   6 171.693 11.4876  13
  -1  -9   6 195.268 11.5482  12
   0  -9   6 14.1946 1.24885   3
   0  -9   6 12.2431 1.29549  15
   0  -9   6 12.7201 1.13798  10
   0  -9   6 14.3356 1.24483  12
   0  -9   6 13.4540 1.28615   9
   1  -9   6 76.7410 5.27440  15
   1  -9   6 81.7418 5.16804  10
   1  -9   6 89.0844 5.28445   3
   1  -9   6 86.4510 5.28427  12
   2  -9   6 352.563 20.7909   3
   2  -9   6 334.415 20.6916  10
   2  -9   6 345.505 20.7984  12
  -3   9  -6 598.729 37.8872   6
   3  -9   6 638.812 37.7459  10
   3  -9   6 654.300 37.8504  12
   3  -9   6 627.403 37.8039   3
  -4   9  -6 155.492 9.50517   6
   4  -9   6 159.509 9.43212  12
   4  -9   6 140.273 9.39957   3
   4  -9   6 158.388 9.36102  10
  -5   9  -6 65.6038 4.39647   6
   5  -9   6 68.3021 4.29748  12
   5  -9   6 68.8095 4.27082  10
  -6   9  -6 216.510 12.8429   6
   6  -9   6 204.198 12.7260  12
  -7   9  -6 33.7921 2.24671   6
  -7   9  -6 34.8494 2.66547   1
   7  -9   6 37.3399 2.16328  10
   7  -9   6 28.1164 2.10426  12
  -6  -8   6 60.5608 3.84056   9
  -6  -8   6 59.5404 3.82789  15
  -6  -8   6 66.5743 3.79962  13
  -5  -8   6 25.3087 2.02537   9
  -5  -8   6 33.7713 2.16933   4
  -5  -8   6 29.4776 1.95141  13
  -5  -8   6 29.1459 2.05751  15
  -4  -8   6 205.671 13.6844   9
  -4  -8   6 230.063 13.6155  12
  -4  -8   6 222.750 13.7091  15
  -4  -8   6 223.053 13.6149   3
  -4  -8   6 219.846 13.5725  13
  -4  -8   6 246.196 13.7445   4
  -3  -8   6 886.178 53.0173   9
  -3  -8   6 975.563 53.0174   4
  -3  -8   6 858.152 52.9475   3
  -3  -8   6 870.676 52.8451  12
  -3  -8   6 857.360 52.7775  13
  -3  -8   6 840.770 53.0194  15
  -2  -8   6 30.9042 2.15330  12
  -2  -8   6 29.2453 2.27546   9
  -2  -8   6 31.5064 2.28628  15
  -2  -8   6 24.7697 2.06214  10
  -2  -8   6 30.2934 2.05528  13
  -2  -8   6 32.5260 2.17214   3
  -1  -8   6 58.8199 3.70132   3
  -1  -8   6 58.0334 3.79099  15
  -1  -8   6 53.5271 3.54253  10
  -1  -8   6 59.0285 3.68685  12
  -1  -8   6 54.7709 3.58594  13
  -1  -8   6 55.7997 3.78913   9
   0  -8   6 750.605 48.6396   9
   0  -8   6 862.476 48.8984  15
   0  -8   6 790.152 48.5397  12
   0  -8   6 834.503 48.5602   3
   1  -8   6 91.6822 6.53449  15
   1  -8   6 110.588 6.27041  12
   1  -8   6 100.284 6.18793  10
   1  -8   6 96.3358 6.28748   9
  -2   8  -6 25.8718 2.14497   6
   2  -8   6 25.4933 1.94846  10
   2  -8   6 26.0232 1.92600   3
   2  -8   6 26.6501 1.90363  12
  -3   8  -6 0.99587 0.47755   6
   3  -8   6 0.97776 0.51390  12
   3  -8   6 1.37307 0.42876   3
   3  -8   6 0.93313 0.44551  10
  -4   8  -6 139.002 8.60837   6
   4  -8   6 143.220 8.48281  12
   4  -8   6 129.397 8.39859   3
  -5   8  -6 90.4696 5.57870   6
  -5   8  -6 91.1347 5.60311   4
  -5   8  -6 73.6762 5.26054  16
   5  -8   6 87.1069 5.38597  12
  -6   8  -6 186.004 11.4621   6
  -6   8  -6 180.813 11.2027  16
  -6   8  -6 190.261 11.4237   4
   6  -8   6 185.453 11.2991  12
  -7   8  -6 2.78253 0.55231   1
  -7   8  -6 3.13572 0.57706   6
   7  -8   6 3.60831 0.52627  12
   7  -8   6 2.54882 0.51750  10
  -6  -7   6 98.1831 5.95706  13
  -6  -7   6 99.5481 6.05261   9
  -6  -7   6 94.8310 6.02286  15
  -5  -7   6 0.82792 0.44520  13
  -5  -7   6 0.13363 0.52025   9
  -5  -7   6 -0.6520 0.57979   4
  -5  -7   6 -0.3757 0.61183  12
  -5  -7   6 1.08078 0.56747  15
  -4  -7   6 212.082 14.0026   9
  -4  -7   6 254.736 14.0546  15
  -4  -7   6 247.766 13.8819  12
  -4  -7   6 206.605 13.9725   3
  -4  -7   6 217.020 13.8352  13
  -3  -7   6 1.88609 0.50361   1
  -3  -7   6 0.97794 0.50551  13
  -3  -7   6 0.42626 0.48186   3
  -3  -7   6 0.34174 0.59009   9
  -3  -7   6 1.83842 0.68524   4
  -3  -7   6 1.37390 0.49840  12
  -3  -7   6 1.10487 0.62955  15
  -2  -7   6 435.734 22.8799  13
  -2  -7   6 420.564 22.9368   3
  -2  -7   6 335.775 23.1198  15
  -2  -7   6 352.448 22.8956   1
  -2  -7   6 391.686 22.9612  12
  -2  -7   6 337.251 23.2572   9
  -1  -7   6 791.828 46.9287  12
  -1  -7   6 719.265 46.9594   1
  -1  -7   6 755.171 46.8192  10
  -1  -7   6 795.168 47.0585   9
  -1  -7   6 802.702 47.0084  15
  -1  -7   6 829.291 46.9602   3
  -1  -7   6 784.886 46.8757  13
   0  -7   6 1.99285 0.63520   1
   0  -7   6 1.68926 0.54061   9
   0  -7   6 1.73203 0.57394  15
   0  -7   6 2.34243 0.48926  12
   0  -7   6 2.02488 0.47914   3
  -1   7  -6 20.3731 1.67098   5
   1  -7   6 21.3174 1.58296  12
   1  -7   6 20.7612 1.57551   3
   1  -7   6 20.4599 1.48829  10
  -2   7  -6 30.2574 2.15283   6
   2  -7   6 27.3806 2.00887   3
   2  -7   6 28.7910 2.02201  12
   2  -7   6 27.3865 1.96677  10
  -3   7  -6 166.850 10.0984   6
  -3   7  -6 155.959 10.0509   4
  -3   7  -6 152.990 10.0944   7
   3  -7   6 172.728 9.95980  12
   3  -7   6 162.151 9.92039   3
  -4   7  -6 34.6775 2.47560   6
  -4   7  -6 29.4050 2.51435   4
   4  -7   6 30.0328 2.16206   3
   4  -7   6 31.7887 2.23341  12
  -5   7  -6 116.649 7.58838  16
  -5   7  -6 126.526 7.82513   6
  -5   7  -6 122.958 7.75449   4
  -5   7  -6 121.476 7.83323   7
   5  -7   6 124.897 7.60430  12
  -6   7  -6 43.4276 3.27909   4
  -6   7  -6 47.1679 3.46524   7
  -6   7  -6 45.9480 2.97662  16
  -6   7  -6 45.3893 3.27336   6
  -6   7  -6 45.0560 3.07293  11
   6  -7   6 46.6711 3.02170  12
  -7   7  -6 47.2403 3.27142   1
  -7   7  -6 52.0398 3.23614  11
  -7   7  -6 52.0374 3.39705   4
  -7   7  -6 49.1265 3.37299   6
   7  -7   6 50.4182 3.19388  12
  -8   7  -6 5.15742 0.60746   6
   8  -7   6 5.08023 0.61544  10
  -7  -6   6 30.6912 2.08518   9
  -7  -6   6 32.6735 2.00075  13
  -7  -6   6 29.7908 2.04853  15
  -6  -6   6 50.7860 3.38661  15
  -6  -6   6 51.8953 3.28940  13
  -6  -6   6 53.5544 3.41337   4
  -6  -6   6 49.9869 3.41650   9
  -5  -6   6 27.3794 2.43814   4
  -5  -6   6 31.4744 2.12201   3
  -5  -6   6 29.3744 2.31259   9
  -5  -6   6 34.3500 2.22102  13
  -5  -6   6 30.2567 2.11366  12
  -5  -6   6 30.3103 2.29297  15
  -4  -6   6 67.6389 4.50691   9
  -4  -6   6 66.3440 4.31547  13
  -4  -6   6 66.1755 4.52434   4
  -4  -6   6 68.2721 4.45245  15
  -4  -6   6 68.2592 4.34650   3
  -4  -6   6 71.1832 4.33411  12
  -3  -6   6 124.205 7.40281  12
  -3  -6   6 129.329 7.53737  15
  -3  -6   6 118.452 7.41609   3
  -3  -6   6 120.367 7.56796   9
  -3  -6   6 122.305 7.38471  13
  -3  -6   6 105.425 7.39331   1
  -3  -6   6 118.529 7.50771   4
  -2  -6   6 0.98640 0.51246  15
  -2  -6   6 1.46392 0.56281   1
  -2  -6   6 0.72593 0.45550   3
  -2  -6   6 1.04354 0.42100  13
  -2  -6   6 0.98482 0.57778   9
  -2  -6   6 0.53658 0.42551  12
  -1  -6   6 6.90401 0.81058  12
  -1  -6   6 5.44180 0.87313  15
  -1  -6   6 6.77753 0.91114   3
  -1  -6   6 7.63801 1.23208   1
  -1  -6   6 6.21925 0.98429   9
   0   6  -6 116.338 6.85146   5
   0  -6   6 110.702 6.80886  12
   0  -6   6 109.512 6.73880  14
   0  -6   6 112.724 6.82252   3
   0  -6   6 102.580 6.90076   1
  -1   6  -6 0.76074 0.41509   5
   1  -6   6 0.73720 0.39776  14
   1  -6   6 1.42973 0.55718   1
   1  -6   6 1.87934 0.41748   3
   1  -6   6 0.76040 0.40017  12
  -2   6  -6 22.1986 1.75485   6
  -2   6  -6 21.9352 1.51359   8
   2  -6   6 19.1045 1.60242   5
   2  -6   6 20.0212 1.58628  12
  -3   6  -6 36.8231 2.91176   4
  -3   6  -6 47.1800 2.99322   6
  -3   6  -6 35.3416 2.87336   7
   3  -6   6 40.6308 2.67712   3
   3  -6   6 38.9711 2.74286   5
   3  -6   6 41.6361 2.70010  12
  -4   6  -6 53.5214 3.55492   6
  -4   6  -6 49.6629 3.33918  11
  -4   6  -6 43.7592 3.22203  16
   4  -6   6 47.5927 3.22829   3
   4  -6   6 53.1302 3.29996  12
  -5   6  -6 49.5796 3.53753   4
  -5   6  -6 46.6867 3.65107   7
  -5   6  -6 52.9653 3.54862   6
  -5   6  -6 46.6013 3.31969  11
  -5   6  -6 46.2879 3.18718  16
   5  -6   6 44.3140 3.14373   3
   5  -6   6 52.1381 3.24354  12
  -6   6  -6 119.059 7.59088   7
  -6   6  -6 122.289 7.46305   4
  -6   6  -6 111.414 7.18843  16
  -6   6  -6 109.750 7.44286   6
  -6   6  -6 116.053 7.34179  11
   6  -6   6 123.521 7.27194  12
  -7   6  -6 1.93888 0.80540   1
  -7   6  -6 0.98879 0.67147  11
  -7   6  -6 1.21393 0.70914   6
  -7   6  -6 0.09011 0.40933  16
   7  -6   6 0.75267 0.49281  12
  -8   6  -6 74.6426 4.49153  11
  -8   6  -6 66.0305 4.49523   6
  -8   6  -6 77.7457 4.55066   4
  -8  -5   6 30.8877 2.06537   9
  -8  -5   6 33.8561 2.02463  13
  -7  -5   6 177.957 11.1218  15
  -7  -5   6 186.991 11.1662   9
  -7  -5   6 183.925 11.0610  13
  -6  -5   6 44.9185 3.02159   4
  -6  -5   6 42.2090 2.97679  15
  -6  -5   6 44.7089 3.03255   9
  -6  -5   6 43.0764 2.86179  13
  -5  -5   6 30.9863 2.20210  15
  -5  -5   6 29.1692 2.21344  12
  -5  -5   6 29.7448 2.04574  13
  -5  -5   6 27.2094 2.34044   4
  -5  -5   6 25.2412 2.06814   1
  -5  -5   6 30.3996 2.04907   3
  -5  -5   6 29.6758 2.24801   9
  -4  -5   6 214.130 13.5885   3
  -4  -5   6 212.298 13.6725   4
  -4  -5   6 239.852 13.6003  12
  -4  -5   6 222.662 13.6394  13
  -4  -5   6 230.221 13.8666   9
  -3  -5   6 6.57852 1.18084   4
  -3  -5   6 6.52340 1.06563   9
  -3  -5   6 6.29662 0.85344   3
  -3  -5   6 6.60132 0.87398  13
  -3  -5   6 8.48008 1.01247   1
  -3  -5   6 8.13676 1.01283  15
  -3  -5   6 8.36960 0.85016  12
   2   5  -6 53.0263 3.50663   8
  -2  -5   6 61.9604 3.68343   9
  -2  -5   6 48.9596 3.60568   1
  -2  -5   6 61.6897 3.63347  15
  -2  -5   6 54.1338 3.49152   3
  -2  -5   6 45.8682 3.59366  13
   1   5  -6 98.1203 6.06367   5
   0   5  -6 65.6626 3.98854   5
   0  -5   6 60.0683 3.89684  14
  -1   5  -6 70.3699 4.18690   8
  -1   5  -6 66.6350 4.25131  17
   1  -5   6 63.5596 4.16919  14
   1  -5   6 69.7441 4.24397   5
   1  -5   6 65.4840 4.17423  17
  -2   5  -6 743.470 41.5733   5
  -2   5  -6 692.006 41.5071   8
   2  -5   6 704.702 41.5264  12
   2  -5   6 630.141 41.4764  14
  -3   5  -6 345.041 21.1812   4
  -3   5  -6 380.700 21.1493   6
  -3   5  -6 293.367 20.9439  11
   3  -5   6 369.287 20.9860   3
  -4   5  -6 51.3509 3.71629  16
  -4   5  -6 56.6726 4.05033   7
  -4   5  -6 59.1546 3.98338   4
  -4   5  -6 58.2362 3.84226  11
   4  -5   6 61.3532 3.70798   3
  -5   5  -6 154.787 9.12140   6
  -5   5  -6 137.521 9.11732   7
  -5   5  -6 137.285 8.77424  16
  -5   5  -6 144.513 8.94453  11
  -5   5  -6 149.601 9.00327   4
   5  -5   6 135.733 8.76729   3
  -6   5  -6 83.3474 5.69296   6
  -6   5  -6 85.6707 5.44837  16
  -6   5  -6 84.4302 5.51007   1
  -6   5  -6 91.4507 5.90619   7
  -6   5  -6 92.9568 5.71127   4
  -6   5  -6 90.8462 5.65716  11
   6  -5   6 79.6546 5.37718   3
  -7   5  -6 240.383 15.4655   6
  -7   5  -6 268.189 15.4332   4
  -7   5  -6 271.720 15.5185   7
  -7   5  -6 235.426 15.1927  16
  -7   5  -6 238.111 15.6150  11
   7  -5   6 260.955 15.3905  12
  -8   5  -6 27.3457 1.72890  11
  -8   5  -6 21.5788 1.59018   6
  -8   5  -6 25.3315 1.73938   4
   8  -5   6 22.1466 1.58863  12
  -8  -4   6 88.4547 5.24756   9
  -8  -4   6 78.9390 5.18291  15
  -8  -4   6 86.8915 5.20525  13
  -7  -4   6 22.8955 1.69127   9
  -7  -4   6 21.5161 1.60985  15
  -7  -4   6 17.3030 1.64261   4
  -7  -4   6 21.0516 1.49599  13
  -6  -4   6 2.34983 0.68191   1
  -6  -4   6 2.24774 0.54841  13
  -6  -4   6 2.52305 0.59604  15
  -6  -4   6 2.06383 0.57604   9
  -5  -4   6 137.711 8.55945  13
  -5  -4   6 145.586 8.69898  15
  -5  -4   6 143.906 8.74492   9
  -5  -4   6 140.378 8.89907   3
  -5  -4   6 129.678 8.61362   1
  -4  -4   6 251.515 17.3468   1
  -4  -4   6 279.148 17.3719   3
  -4  -4   6 314.425 17.5725   9
  -4  -4   6 305.445 17.3984  13
  -4  -4   6 249.209 17.4608   4
  -4  -4   6 326.962 17.5380  15
   3   4  -6 28.2116 1.99586   5
  -3  -4   6 30.8156 2.10249  13
  -3  -4   6 31.2325 2.28095   9
  -3  -4   6 32.7611 2.22733  15
   2   4  -6 195.616 11.7594   8
  -2  -4   6 191.576 11.6480  17
   1   4  -6 1168.93 69.0246  17
  -1  -4   6 1213.31 68.9883  17
  -1  -4   6 1081.04 69.0043   5
   0   4  -6 0.80832 0.32940  17
   0   4  -6 1.56807 0.29333  17
   0   4  -6 1.31378 0.41200   8
   0  -4   6 1.38190 0.29517  17
   0  -4   6 1.30487 0.32168  17
   0  -4   6 0.84488 0.28754  14
   0  -4   6 0.76773 0.28441   5
  -1   4  -6 1200.82 72.6035  17
  -1   4  -6 1285.02 72.6312   5
  -1   4  -6 1206.83 72.5367  17
  -1   4  -6 1249.59 72.5644   8
   1  -4   6 1191.66 72.5441  17
   1  -4   6 1102.02 72.5512  14
   1  -4   6 1261.14 72.6111   5
  -2   4  -6 772.741 50.7887   8
  -2   4  -6 877.565 50.9122   5
  -2   4  -6 922.276 50.9711  17
   2  -4   6 827.166 50.8684  14
  -3   4  -6 80.5144 5.67512   7
  -3   4  -6 84.2209 5.61965   4
   3  -4   6 93.8903 5.49851   5
   3  -4   6 91.6284 5.46902   3
  -4   4  -6 1269.35 67.5345   6
  -4   4  -6 1039.51 67.4036   7
  -4   4  -6 1108.84 67.3359  11
  -4   4  -6 1123.44 67.3302   4
  -4   4  -6 1054.00 67.1897  16
   4  -4   6 1144.72 67.2301   3
  -5   4  -6 329.690 19.3412   4
  -5   4  -6 316.652 19.3481  11
  -5   4  -6 336.914 19.4880   6
  -5   4  -6 306.693 19.1632  16
  -5   4  -6 304.541 19.4620   7
   5  -4   6 311.928 19.1757   3
  -6   4  -6 276.466 16.8653   7
  -6   4  -6 284.007 16.6993   4
  -6   4  -6 270.247 16.5300  16
  -6   4  -6 264.424 16.7630   6
  -6   4  -6 278.301 16.7207  11
   6  -4   6 267.658 16.5225   3
  -7   4  -6 1.52309 0.88115   7
  -7   4  -6 1.61802 0.83082  11
  -7   4  -6 1.49095 0.58227   6
  -8   4  -6 1.42253 0.50510  11
  -8   4  -6 1.18962 0.43519   4
   8  -4   6 1.95244 0.38147  12
  -8  -3   6 7.70317 0.74415  13
  -8  -3   6 7.10756 0.85188   9
  -8  -3   6 8.74485 0.82245  15
  -7  -3   6 239.071 13.6909   9
  -7  -3   6 223.503 13.6507  15
  -7  -3   6 232.130 13.5569  13
  -7  -3   6 201.431 13.5303   1
  -6  -3   6 9.40536 1.12814  15
  -6  -3   6 9.80738 1.08241   1
  -6  -3   6 9.77040 1.18411   9
  -6  -3   6 9.09886 0.99636  13
  -5  -3   6 704.164 47.6567   1
  -5  -3   6 767.920 47.6741   3
  -5  -3   6 818.726 47.7082  13
  -5  -3   6 830.248 47.8708   9
  -5  -3   6 858.373 47.8426  15
  -4  -3   6 64.5573 3.95527   9
  -4  -3   6 54.2083 4.14592  13
  -4  -3   6 64.0844 4.19212  15
  -4  -3   6 52.4431 3.72367   1
   3   3  -6 465.969 28.3595   5
   3   3  -6 480.448 28.4523   8
   2   3  -6 2379.48 146.272  17
   2   3  -6 2526.64 146.358   8
  -2  -3   6 2443.22 146.244  17
   1   3  -6 0.81220 0.31750  17
   1   3  -6 0.90578 0.24469  17
   1   3  -6 0.99385 0.36458   8
   1   3  -6 0.98000 0.30754   5
  -1  -3   6 0.79811 0.26705  17
  -1  -3   6 1.60493 0.28637  17
  -1  -3   6 0.78454 0.37069   5
   0   3  -6 9.02764 0.83798   5
   0   3  -6 9.04034 0.73013  17
   0   3  -6 10.2313 0.81696  17
   0   3  -6 9.11723 0.79788   8
   0  -3   6 8.68444 0.76098  17
   0  -3   6 8.15225 0.79034   5
   0  -3   6 8.98980 0.74256  17
   0  -3   6 10.0589 0.80650  14
  -1   3  -6 2.33364 0.43162   5
  -1   3  -6 2.77207 0.47634   8
  -1   3  -6 1.75402 0.36115  17
  -1   3  -6 3.03299 0.44025  17
   1  -3   6 1.97041 0.35249  17
   1  -3   6 3.08941 0.40549  17
   1  -3   6 2.01831 0.33447  14
   1  -3   6 2.09942 0.39551   5
  -2   3  -6 1.15508 0.36847   5
  -2   3  -6 0.23498 0.27116  17
   2  -3   6 0.78764 0.33666  14
   2  -3   6 1.63428 0.37544  17
  -3   3  -6 914.012 63.2942   7
  -3   3  -6 1219.79 63.3591   9
  -3   3  -6 908.513 63.2485   2
  -3   3  -6 1193.99 63.4819   6
   3  -3   6 1080.80 63.1706   5
   3  -3   6 1015.26 63.1275   3
  -4   3  -6 349.928 22.9650  16
  -4   3  -6 362.964 23.2202   7
  -4   3  -6 390.696 23.1216   4
  -4   3  -6 426.492 23.2986   6
  -4   3  -6 357.473 23.1211   2
   4  -3   6 404.197 23.0030   3
  -5   3  -6 95.7200 5.87837   9
  -5   3  -6 81.5228 5.67472  16
  -5   3  -6 95.9346 6.01114   6
  -5   3  -6 93.7713 5.90364   4
  -5   3  -6 92.0852 6.15786   7
  -5   3  -6 86.4644 5.93389  11
   5  -3   6 91.5407 5.67062   3
  -6   3  -6 87.9894 5.50239   4
  -6   3  -6 84.0608 5.52680  11
  -6   3  -6 80.1294 5.31073  16
  -6   3  -6 84.3373 5.74591   7
  -6   3  -6 82.0031 5.48471   6
   6  -3   6 85.6180 5.25302   3
  -7   3  -6 366.590 21.2118   4
  -7   3  -6 345.690 21.0820  16
  -7   3  -6 379.844 21.7700   7
  -7   3  -6 313.120 21.1525   6
  -8   3  -6 69.8348 4.30605   4
  -8   3  -6 68.4502 4.28463  11
  -8  -2   6 104.993 6.39724  13
  -8  -2   6 111.902 6.48162   9
  -8  -2   6 95.7136 6.40949   1
  -8  -2   6 106.885 6.54501  15
  -7  -2   6 164.868 11.2030  13
  -7  -2   6 209.039 11.3081   9
  -7  -2   6 172.524 11.3385  15
  -6  -2   6 378.464 24.7817   1
  -6  -2   6 420.268 24.9493   9
  -6  -2   6 414.414 24.8070  13
  -6  -2   6 435.158 24.9472  15
  -5  -2   6 204.278 11.4406  15
  -5  -2   6 167.523 11.2618   1
  -5  -2   6 184.206 11.2892  13
  -5  -2   6 185.790 11.4255   9
   4   2  -6 85.1402 5.88274   8
  -4  -2   6 94.2131 5.92993  15
  -4  -2   6 99.9170 6.05786  13
   3   2  -6 531.667 30.9421   5
   3   2  -6 463.380 30.9627   5
   3   2  -6 504.832 30.9295  17
  -3  -2   6 565.965 30.9071  17
   2   2  -6 407.193 23.5009  17
   2   2  -6 390.675 23.4994  17
   2   2  -6 358.984 23.5574   5
   2   2  -6 413.297 23.5303   5
   2   2  -6 405.127 23.5680   8
  -2  -2   6 385.805 23.5086   5
  -2  -2   6 382.918 23.5551  17
   1   2  -6 9.09159 0.93077   5
   1   2  -6 10.8305 0.77995  17
   1   2  -6 11.2237 0.89178   5
   1   2  -6 9.89760 0.89191   8
   1   2  -6 10.3167 0.84268  17
  -1  -2   6 10.4536 0.82304   5
  -1  -2   6 10.9114 0.78952  17
  -1  -2   6 9.77843 0.77409  17
   0   2  -6 4.28244 0.63929   5
   0   2  -6 3.77145 0.48694  17
   0   2  -6 3.97711 0.55183  17
   0   2  -6 4.06647 0.58635   8
   0  -2   6 3.64951 0.57769   5
   0  -2   6 4.24181 0.49220  17
   0  -2   6 4.88376 0.64974  14
   0  -2   6 3.49085 0.48366  17
  -1   2  -6 1.31173 0.37593   5
  -1   2  -6 2.06091 0.34937  17
  -1   2  -6 2.42792 0.46696   8
  -1   2  -6 1.66067 0.39630  17
   1  -2   6 2.21547 0.36673  17
   1  -2   6 1.38082 0.31284  14
   1  -2   6 1.60970 0.35914   5
   1  -2   6 1.71719 0.36108  17
   2  -2   6 39.1840 2.38153   5
   2  -2   6 30.7577 2.45842  17
   2  -2   6 35.7840 2.32951  14
  -3   2  -6 8.05715 1.30592   2
  -3   2  -6 5.50945 1.04981   9
  -4   2  -6 345.731 21.2924   4
  -4   2  -6 340.445 21.3515   2
  -4   2  -6 323.273 21.1676  16
  -4   2  -6 370.884 21.4606   6
  -4   2  -6 335.021 21.4405   7
  -4   2  -6 394.914 21.3942   9
  -5   2  -6 32.0380 2.74008  11
  -5   2  -6 34.8122 2.66903   6
  -5   2  -6 35.9131 2.56926   9
  -5   2  -6 34.1863 2.43926  16
  -5   2  -6 31.7695 2.69621   4
  -5   2  -6 37.4501 3.15110   7
  -5   2  -6 34.0352 2.77177   2
   5  -2   6 32.7399 2.32156   3
  -6   2  -6 106.093 7.08509   6
  -6   2  -6 109.372 6.97047  16
  -6   2  -6 115.887 7.36549   7
  -6   2  -6 118.128 7.20965  11
  -6   2  -6 110.805 7.09550   9
  -6   2  -6 120.222 7.14019   4
   6  -2   6 109.202 6.93078   3
  -7   2  -6 64.5218 4.15061   4
  -7   2  -6 62.6298 4.02284  16
  -7   2  -6 66.1832 4.21556  11
  -7   2  -6 71.0663 4.39880   7
   7  -2   6 57.9464 3.95381   3
  -8  -1   6 11.3067 1.05721  15
  -8  -1   6 10.1358 0.97799  13
  -8  -1   6 12.1472 1.12552   1
  -7  -1   6 424.880 23.9730  15
  -7  -1   6 392.289 23.8939   9
  -7  -1   6 390.947 23.8053  13
  -7  -1   6 371.974 23.7778  11
  -7  -1   6 398.743 23.8411   1
  -6  -1   6 7.27643 0.90664  11
  -6  -1   6 8.95101 0.93664  13
  -6  -1   6 8.34409 1.05696   9
  -6  -1   6 10.9173 1.43470  15
   5   1  -6 50.9107 3.60281  14
  -5  -1   6 59.0792 3.64825   9
  -5  -1   6 61.1085 3.52730  13
  -5  -1   6 53.1586 3.50470   1
  -5  -1   6 48.0797 3.43121  11
   4   1  -6 15.5460 1.26597   5
   4   1  -6 19.0118 1.27109   5
   4   1  -6 18.7141 1.41273   8
   3   1  -6 195.296 12.3773   5
   3   1  -6 218.110 12.4390   8
   3   1  -6 201.656 12.3103  17
  -3  -1   6 204.602 12.3062  17
   2   1  -6 220.678 13.4641  17
   2   1  -6 237.715 13.5176   5
   2   1  -6 216.874 13.4522  17
   2   1  -6 230.219 13.5409   8
   2   1  -6 205.839 13.5268   5
  -2  -1   6 232.345 13.4541  17
   1   1  -6 14.0962 1.11556   8
   1   1  -6 12.4446 1.34821   5
   1   1  -6 14.1317 1.02851  17
   1   1  -6 15.1302 1.26254  17
   1   1  -6 14.8795 1.13734   5
  -1  -1   6 15.1945 1.02743  17
  -1  -1   6 14.4609 1.07287   5
   0   1  -6 126.852 7.93352   8
   0   1  -6 138.180 7.91210  17
   0   1  -6 128.574 7.92245  17
   0   1  -6 130.081 7.97000   5
   0  -1   6 135.945 7.90470  17
   0  -1   6 124.013 7.99986   5
  -1   1  -6 208.560 13.5383   8
  -1   1  -6 216.424 13.5731  17
  -1   1  -6 232.767 13.6158  17
  -1   1  -6 226.066 13.6248   5
   1  -1   6 225.605 13.5447  17
   1  -1   6 231.206 13.5686  14
   1  -1   6 234.539 13.5995   5
   2  -1   6 295.999 18.0998  14
   2  -1   6 305.444 18.1389   5
  -3   1  -6 211.317 11.7987   6
  -3   1  -6 177.061 11.7549   7
  -3   1  -6 176.062 11.6490   2
  -3   1  -6 219.121 11.7289   9
  -3   1  -6 167.093 11.5828   4
   3  -1   6 188.589 11.5467   5
  -4   1  -6 3.80340 1.58385   7
  -4   1  -6 3.62387 0.79177   4
  -4   1  -6 6.66541 1.20912   6
  -4   1  -6 4.34630 0.67780  16
  -4   1  -6 2.76159 0.94694   9
  -5   1  -6 136.979 8.81009   6
  -5   1  -6 143.578 8.80059   9
  -5   1  -6 135.426 8.63696  16
  -5   1  -6 142.287 8.87100   2
  -5   1  -6 144.564 8.88170  11
  -5   1  -6 140.313 8.76105   4
  -5   1  -6 141.111 9.02218   7
  -6   1  -6 0.08678 0.58463   9
  -6   1  -6 -0.0106 0.77957  11
  -6   1  -6 0.29995 0.56899  16
  -6   1  -6 -0.4153 0.87169   7
  -6   1  -6 -0.1388 0.60763   4
   6  -1   6 -0.0555 0.42932   3
  -7   1  -6 13.7195 1.37201  16
  -7   1  -6 14.6886 1.29972   4
  -7   1  -6 14.3043 1.40142  11
  -7   1  -6 14.1393 1.62862   7
   7  -1   6 13.4700 1.01230   3
  -9   0   6 80.8600 4.97641   1
  -8   0   6 62.2969 4.22942  11
  -8   0   6 73.6578 4.32932   1
  -8   0   6 66.7399 4.34557  15
  -7   0   6 42.1746 2.81711  15
  -7   0   6 36.9026 2.60071  13
  -7   0   6 40.6737 2.74223   1
  -7   0   6 38.3127 2.65350  11
  -6   0   6 355.624 23.8225  11
  -6   0   6 455.689 24.0758  15
  -6   0   6 382.811 23.8763   1
  -6   0   6 391.906 23.8591  13
  -5   0   6 90.1256 5.82339  11
  -5   0   6 90.9822 5.82104   1
  -5   0   6 99.5685 5.83929  13
   4   0  -6 239.837 14.9970   8
   4   0  -6 255.009 14.9368   5
   3   0  -6 704.073 42.0718  17
   3   0  -6 650.132 42.1339   5
   3   0  -6 751.407 42.1879   8
  -3   0   6 708.985 42.0808  17
   2   0  -6 136.975 9.25063   5
   2   0  -6 153.825 9.20272  17
   2   0  -6 156.688 9.27965   8
   2   0  -6 162.715 9.27657   5
   2   0  -6 158.050 9.20322  17
  -2   0   6 143.568 9.23087   5
  -2   0   6 155.487 9.19664  17
  -2   0   6 151.432 9.17351  17
   1   0  -6 950.903 56.9179   8
   1   0  -6 941.158 56.8676  17
   1   0  -6 959.906 56.9332   5
   1   0  -6 959.590 56.8702  17
  -1   0   6 986.435 56.8676  17
  -1   0   6 902.979 56.8408  17
  -1   0   6 957.807 56.9086   5
   0   0  -6 756.117 44.2892   5
   0   0  -6 755.021 44.2200  17
   0   0  -6 705.316 44.2332   8
   0   0  -6 720.021 44.2146  17
   0   0   6 734.365 44.1999  17
   0   0   6 732.742 44.2553   5
   0   0   6 769.686 44.2168  17
  -1   0  -6 262.189 17.0374  17
  -1   0  -6 276.205 17.0390   8
  -1   0  -6 281.829 17.1175   5
  -1   0  -6 303.375 17.2694  17
   1   0   6 295.416 17.0906   5
   1   0   6 280.869 17.0362  17
  -2   0  -6 103.033 5.94522   9
  -2   0  -6 84.1401 5.97388   7
   2   0   6 93.0364 5.80882   5
  -3   0  -6 486.128 31.5779  16
  -3   0  -6 577.947 31.8264   6
  -3   0  -6 467.214 31.6435   4
  -3   0  -6 583.758 31.6131  13
  -3   0  -6 518.991 31.7323   2
  -3   0  -6 524.471 31.7995   7
  -4   0  -6 159.163 9.76244   6
  -4   0  -6 154.702 9.86882   7
  -4   0  -6 159.350 9.77909   2
  -4   0  -6 149.531 9.63784   4
  -4   0  -6 171.616 9.76290   9
  -4   0  -6 143.671 9.53883  16
  -5   0  -6 18.7601 3.32383   7
  -5   0  -6 19.2188 1.83750   9
  -5   0  -6 17.1766 1.83241   4
  -5   0  -6 17.8425 2.61193  11
  -5   0  -6 18.1488 1.61448  16
  -6   0  -6 413.625 26.6704   9
  -6   0  -6 416.267 26.6617  16
  -6   0  -6 453.111 26.6864  11
  -6   0  -6 489.347 27.1703   7
  -6   0  -6 446.971 26.7039   2
  -6   0  -6 420.393 26.8871   4
   6   0   6 457.946 26.6531   3
  -7   0  -6 15.2364 1.38479   4
  -7   0  -6 12.5501 1.15275  11
  -7   0  -6 14.1018 1.26031  16
  -9   1   6 92.8228 5.67357   1
  -9   1   6 90.8743 5.62923  11
  -8   1   6 329.434 18.7941   1
  -8   1   6 309.839 18.7346  11
  -8   1   6 292.911 18.8256  15
  -7   1   6 4.42355 0.65138  13
  -7   1   6 5.58085 1.04538  15
  -7   1   6 5.97404 1.04910   1
  -7   1   6 6.70271 0.97227  11
  -6   1   6 5.12199 0.72965  13
  -6   1   6 3.26823 0.62831  11
  -6   1   6 3.87072 0.82074  15
  -6   1   6 4.53906 1.01584   1
   5  -1  -6 2.96729 0.65438   5
  -5   1   6 4.90793 0.86413   1
  -5   1   6 3.96134 0.73197  11
  -5   1   6 5.52502 0.96933  15
  -5   1   6 4.75416 0.63093  13
   4  -1  -6 2.95484 0.51338   5
   4  -1  -6 3.23116 0.69979   8
   3  -1  -6 6.18891 0.60597  17
   3  -1  -6 7.67682 0.87458   8
   3  -1  -6 6.32149 0.84722   5
  -3   1   6 4.37365 0.68072  17
   2  -1  -6 74.8150 4.58987   8
   2  -1  -6 76.4960 4.60641   5
   2  -1  -6 69.7995 4.50713  17
  -2   1   6 73.1690 4.51206  17
  -2   1   6 70.4060 4.46106  17
  -2   1   6 73.8228 4.57376   5
   1  -1  -6 253.135 15.4016  17
   1  -1  -6 264.036 15.4846   5
   1  -1  -6 242.242 15.3803  17
   1  -1  -6 246.979 15.4378   8
  -1   1   6 261.700 15.4011  17
  -1   1   6 266.724 15.4661   5
   0  -1  -6 246.563 14.9563   8
   0  -1  -6 236.024 14.9110  17
   0  -1  -6 240.749 14.9256  17
   0  -1  -6 261.641 15.0286   5
   0   1   6 231.559 14.8891  17
   0   1   6 268.576 14.9978   5
   0   1   6 248.459 14.9260  17
  -1  -1  -6 31.4011 2.05489   8
  -1  -1  -6 25.4192 2.13129   5
   1   1   6 33.4441 2.13656   5
  -2  -1  -6 124.301 7.23510  13
  -2  -1  -6 123.305 7.39258   6
  -2  -1  -6 124.691 7.35872   9
  -2  -1  -6 107.557 7.38690   7
  -2  -1  -6 107.793 7.30958   2
   2   1   6 116.532 7.29259   5
  -3  -1  -6 16.3784 1.54741  10
  -3  -1  -6 20.3123 1.68333   9
  -3  -1  -6 16.2588 1.81147   2
  -3  -1  -6 19.6541 2.23186   7
  -3  -1  -6 17.7657 1.65045   6
  -3  -1  -6 19.4974 1.42888  13
  -3  -1  -6 18.4858 1.56924  16
  -4  -1  -6 0.90448 0.66346   9
  -4  -1  -6 0.78365 0.92307   7
  -4  -1  -6 0.82355 0.71154   2
  -4  -1  -6 1.70125 0.65202  16
  -4  -1  -6 1.52788 0.61784   4
  -4  -1  -6 1.38524 0.51530  13
  -5  -1  -6 458.796 27.0324   2
  -5  -1  -6 448.581 27.0064   9
  -5  -1  -6 448.833 26.9843  11
  -5  -1  -6 449.668 26.9159   4
  -5  -1  -6 459.590 27.0737   7
  -5  -1  -6 415.911 26.8313  16
  -6  -1  -6 5.87978 1.22778   2
  -6  -1  -6 7.16946 1.32827   7
  -6  -1  -6 7.27115 1.09908  11
  -6  -1  -6 6.82639 0.93663  16
  -6  -1  -6 5.02882 0.90143   9
   6   1   6 6.99155 0.70494   3
 -10   2   6 67.0280 4.09952  11
  -9   2   6 26.7032 1.85445  11
  -9   2   6 26.6169 1.91231   1
  -8   2   6 1.29265 0.52815  11
  -8   2   6 1.38263 0.53164   1
  -8   2   6 0.08903 0.51672  15
  -7   2   6 1002.19 60.0555  11
  -7   2   6 987.670 60.2507  15
  -7   2   6 1018.67 60.0960   1
  -6   2   6 96.8170 6.07980  11
  -6   2   6 97.8833 6.15296   1
  -6   2   6 101.237 6.32115  15
  -6   2   6 93.8355 6.04044  13
   5  -2  -6 49.9212 3.30273   5
  -5   2   6 47.7949 3.29530   1
  -5   2   6 51.9893 3.27184  13
  -5   2   6 47.7340 3.24558  11
  -5   2   6 53.5071 3.52108  15
   4  -2  -6 783.928 47.7297   8
   4  -2  -6 815.872 47.7215   5
  -4   2   6 786.884 47.6448  11
   3  -2  -6 15.7503 1.37363   8
   3  -2  -6 15.3755 1.36755   5
   2  -2  -6 70.7088 4.10982   8
   2  -2  -6 69.0902 4.21858   5
   2  -2  -6 61.0668 3.96601  17
  -2   2   6 55.7479 4.07690   5
   1  -2  -6 10.6425 1.15585   5
   1  -2  -6 11.2708 0.92991  17
   1  -2  -6 8.69936 0.81325  17
   1  -2  -6 9.00830 1.02603   8
  -1   2   6 8.91376 0.90700  17
  -1   2   6 9.70253 0.78170  17
  -1   2   6 10.3863 1.12635   5
   0  -2  -6 224.264 13.5168   5
   0  -2  -6 218.696 13.4407   8
  -1  -2  -6 32.4757 2.26346  13
  -1  -2  -6 30.7865 2.21164  10
  -1  -2  -6 33.4084 2.32690   9
  -1  -2  -6 30.2775 2.26110   8
   1   2   6 35.2583 2.38175   5
  -2  -2  -6 112.021 7.30567  16
  -2  -2  -6 112.475 7.28309  10
  -2  -2  -6 116.310 7.50939   7
  -2  -2  -6 125.640 7.46379   9
  -2  -2  -6 125.159 7.32332  13
  -2  -2  -6 121.444 7.47712   6
  -3  -2  -6 23.8733 1.69128  13
  -3  -2  -6 22.1878 2.04790   2
  -3  -2  -6 22.0206 1.79653  16
  -3  -2  -6 23.3526 2.30934   7
  -3  -2  -6 20.3033 1.80480  10
  -3  -2  -6 23.4635 1.91733   9
  -4  -2  -6 70.0241 4.40057  13
  -4  -2  -6 62.6275 4.78661   9
  -4  -2  -6 68.0249 4.51690   4
  -4  -2  -6 75.6018 4.90863   7
  -4  -2  -6 71.7530 4.47752  16
  -5  -2  -6 45.9025 3.10455   4
  -5  -2  -6 43.0832 3.15923   9
  -5  -2  -6 50.9660 3.23712  16
  -5  -2  -6 48.7233 3.31902   2
  -5  -2  -6 45.0813 3.63985  11
  -6  -2  -6 7.62595 0.85368   9
  -6  -2  -6 5.94137 0.76920  16
   6   2   6 7.16758 0.70039   3
 -10   3   6 12.2040 0.99215   1
 -10   3   6 14.1235 0.97652  11
  -9   3   6 39.9172 2.62382  11
  -9   3   6 40.0361 2.67769   1
  -8   3   6 326.687 22.6803  15
  -8   3   6 395.205 22.5998  11
  -8   3   6 403.334 22.6471   1
  -7   3   6 79.2744 5.47029  15
  -7   3   6 78.5380 5.37113  16
  -7   3   6 87.7914 5.34448   1
  -7   3   6 89.0719 5.29648  11
  -6   3   6 688.893 40.4529  15
  -6   3   6 636.497 40.1520  11
  -6   3   6 683.180 40.2450   1
  -5   3   6 1538.02 91.9287   1
  -5   3   6 1535.31 91.8788  11
   4  -3  -6 270.996 16.5451   5
  -4   3   6 271.394 16.4088   1
   3  -3  -6 421.177 24.8766   5
   3  -3  -6 401.054 24.8312   8
  -3   3   6 412.408 24.7307  11
   2  -3  -6 1185.67 72.2414   8
   2  -3  -6 1227.17 72.2981   5
   1  -3  -6 43.3878 2.93425   5
   1  -3  -6 41.5237 2.82088   8
   1  -3  -6 39.3857 2.75811   7
  -1   3   6 40.4577 2.77228  11
   0  -3  -6 1.90485 0.62820   7
   0  -3  -6 2.77025 0.53085   9
   0  -3  -6 1.93509 0.53156  13
  -1  -3  -6 2.09030 0.46021  10
  -1  -3  -6 2.41340 0.56958   9
  -1  -3  -6 1.37439 0.53306   2
  -1  -3  -6 1.63759 0.69343   7
  -1  -3  -6 2.08896 0.55873  16
  -1  -3  -6 1.87363 0.53403  13
  -1  -3  -6 1.59399 0.67016   6
  -2  -3  -6 31.1089 2.34389   9
  -2  -3  -6 32.4104 2.24748  16
  -2  -3  -6 31.1575 2.21783  10
  -2  -3  -6 29.1834 2.58622   7
  -2  -3  -6 31.9179 2.20541  13
  -2  -3  -6 32.2369 2.42780   2
  -3  -3  -6 70.5504 4.45879  10
  -3  -3  -6 70.8483 4.78055   7
  -3  -3  -6 68.3436 4.47376  16
  -3  -3  -6 72.3957 4.45134  13
  -3  -3  -6 68.2062 4.65560   2
  -3  -3  -6 69.7032 4.59069   9
  -4  -3  -6 125.757 7.99839   7
  -4  -3  -6 128.085 7.98829   2
  -4  -3  -6 121.176 7.87326  11
  -4  -3  -6 121.991 7.94275   9
  -4  -3  -6 124.875 7.81500  16
  -4  -3  -6 142.022 8.00154   4
  -5  -3  -6 1.13363 0.54682   2
  -5  -3  -6 0.22493 0.52602   7
  -5  -3  -6 0.91800 0.47407  11
  -5  -3  -6 0.94028 0.45012  16
  -5  -3  -6 1.72561 0.58723   9
 -10   4   6 77.8889 4.90843   1
 -10   4   6 82.9934 4.89286  11
  -9   4   6 57.2254 3.70732   1
  -9   4   6 59.2394 3.67767  11
  -8   4   6 32.9466 2.34301   1
  -7   4   6 90.7931 6.20954  15
  -7   4   6 95.7824 6.03425   1
  -7   4   6 100.549 6.00258  11
   6  -4  -6 135.568 8.86769   2
  -6   4   6 158.972 9.17427  15
  -6   4   6 132.814 8.73525  16
  -6   4   6 149.535 8.90222   1
   5  -4  -6 0.34114 0.33342   2
  -5   4   6 0.75016 0.41509  16
  -5   4   6 0.77843 0.56487  11
  -5   4   6 0.50859 0.51601   1
   4  -4  -6 849.961 54.2536   2
  -4   4   6 901.177 54.3625   1
  -4   4   6 969.050 54.2964  11
   3  -4  -6 991.187 59.6920   5
  -3   4   6 996.921 59.4787  11
   2  -4  -6 84.4108 5.49892   2
   2  -4  -6 92.3318 5.71980   5
  -2   4   6 81.8874 5.32308  11
   1  -4  -6 7.00184 1.17507   7
   1  -4  -6 9.50305 0.93346  10
   1  -4  -6 7.00571 1.07032   2
   1  -4  -6 4.42061 1.09703   5
  -1   4   6 6.80121 0.87719  11
   0  -4  -6 69.1147 4.33863   2
   0  -4  -6 66.6202 4.32179   9
   0  -4  -6 65.9027 4.18898  10
   0  -4  -6 64.5521 4.35009   7
   0  -4  -6 66.4426 4.31585   6
   0  -4  -6 68.5945 4.26093  13
  -1  -4  -6 0.07849 0.42929  10
  -1  -4  -6 0.20415 0.50903  13
  -1  -4  -6 0.24848 0.52046   9
  -1  -4  -6 0.18618 0.54077  16
  -2  -4  -6 1.49935 0.53407  10
  -2  -4  -6 1.68231 0.64339   9
  -2  -4  -6 0.42971 0.76409   7
  -2  -4  -6 0.92207 0.56448  13
  -2  -4  -6 0.70472 0.52920   2
  -2  -4  -6 2.26717 0.63474  16
  -3  -4  -6 39.9314 2.65329  16
  -3  -4  -6 36.7118 2.81967   2
  -3  -4  -6 40.0671 2.59846  13
  -3  -4  -6 33.3995 2.87169   7
  -3  -4  -6 39.4481 2.73100   9
  -3  -4  -6 39.9037 2.62086  10
  -4  -4  -6 0.76547 0.82650   7
  -4  -4  -6 0.12255 0.49806  16
  -4  -4  -6 -0.2458 0.51552   9
  -5  -4  -6 1.16053 0.57724  16
  -5  -4  -6 0.59268 0.37254   2
  -5  -4  -6 1.23267 0.39282   9
  -9   5   6 213.290 12.9558   1
  -9   5   6 215.636 12.9326  11
  -8   5   6 24.1299 1.77890   1
  -8   5   6 18.8715 1.92533  15
  -8   5   6 26.3470 1.75914  11
   7  -5  -6 28.9463 2.22373   2
  -7   5   6 34.3890 2.54587  15
  -7   5   6 35.2192 2.36157   1
  -7   5   6 32.8023 2.17247  16
   6  -5  -6 135.076 9.03536   2
  -6   5   6 148.293 9.09444  11
  -6   5   6 163.388 9.45208  15
  -6   5   6 148.079 9.14153   1
   5  -5  -6 1.26389 0.37877   2
  -5   5   6 1.26406 0.47329  11
   4  -5  -6 37.3135 2.58100   2
  -4   5   6 39.3973 2.79058  11
   3  -5  -6 15.8904 1.36576   2
  -3   5   6 13.9525 1.24773  11
   2  -5  -6 6.33288 1.06323   2
   2  -5  -6 7.94527 1.19874   7
  -2   5   6 7.35752 0.91409  11
   1  -5  -6 254.758 15.7257   2
   1  -5  -6 261.089 16.0268   7
   0  -5  -6 133.195 8.58209   7
   0  -5  -6 142.493 8.53704  13
   0  -5  -6 148.212 8.59147   2
   0  -5  -6 138.251 8.44942  10
   0  -5  -6 130.746 8.55382   9
  -1  -5  -6 9.03334 1.05436  13
  -1  -5  -6 7.83379 1.09383  10
  -1  -5  -6 7.53711 1.16516  16
  -1  -5  -6 9.28522 1.01824   9
  -1  -5  -6 8.08295 1.36284   2
  -1  -5  -6 7.01518 1.00238   7
  -2  -5  -6 39.4768 2.71540  13
  -2  -5  -6 39.5620 2.79676   9
  -2  -5  -6 43.0592 2.77739  16
  -2  -5  -6 36.4523 2.94678   7
  -2  -5  -6 43.5094 2.72685  10
  -2  -5  -6 40.3771 2.90526   2
  -3  -5  -6 1.19359 0.56396  10
  -3  -5  -6 1.66276 0.60459  16
  -3  -5  -6 0.40507 0.53951   7
  -3  -5  -6 0.54067 0.51977   2
  -3  -5  -6 0.58445 0.52957   9
  -4  -5  -6 173.940 9.56682   2
  -4  -5  -6 157.883 9.45235  16
  -4  -5  -6 138.384 9.54123   9
  -9   6   6 71.0588 4.37122  11
  -9   6   6 70.5701 4.40250   1
  -8   6   6 91.5221 5.99200  11
  -8   6   6 85.7251 5.90244  15
  -8   6   6 106.178 5.91938   1
   7  -6  -6 32.7826 2.19699   2
  -7   6   6 33.7969 2.30598   1
  -7   6   6 30.4833 2.47793  15
  -7   6   6 34.7594 2.29205  11
   6  -6  -6 0.95797 0.37752   2
  -6   6   6 0.85284 0.48990   1
  -6   6   6 1.77055 0.81367  11
   5  -6  -6 151.044 9.10654   2
  -5   6   6 139.443 9.10599   1
  -5   6   6 157.002 9.12114  11
   4  -6  -6 137.261 8.19634   2
  -4   6   6 129.373 8.14558  11
   3  -6  -6 100.171 6.05420   2
  -3   6   6 93.4892 5.97486  11
   2  -6  -6 109.408 6.45700   2
   2  -6  -6 104.848 6.44748   7
   2  -6  -6 94.6146 6.28751  10
   1  -6  -6 173.417 10.1623   2
   1  -6  -6 163.104 10.1423   7
   1  -6  -6 158.782 10.0026  10
   0  -6  -6 259.315 14.8804   2
   0  -6  -6 221.812 14.6206  10
  -1  -6  -6 97.7353 5.82170   2
  -1  -6  -6 93.8826 5.67069  16
  -1  -6  -6 85.0577 5.75356   7
  -1  -6  -6 86.8674 5.70031   9
  -1  -6  -6 91.5224 5.62527  10
  -2  -6  -6 29.8721 2.22661   9
  -2  -6  -6 33.9928 2.65713  10
  -2  -6  -6 34.1008 2.44966   2
  -2  -6  -6 35.5084 2.41017  16
  -2  -6  -6 33.1448 2.47298   7
  -3  -6  -6 246.501 14.7321   2
  -3  -6  -6 240.951 14.6900  16
  -9   7   6 9.04550 0.72443  11
  -9   7   6 8.08895 0.92152   1
  -8   7   6 0.20507 0.38296  11
  -8   7   6 0.12547 0.39025  15
  -8   7   6 0.40539 0.33617   1
   7  -7  -6 3.09738 0.66086   2
  -7   7   6 2.80579 0.49181   1
  -7   7   6 2.92788 0.70246  11
   6  -7  -6 159.348 9.89113   2
  -6   7   6 169.314 9.88151  11
  -6   7   6 159.341 10.1010   1
   5  -7  -6 42.9050 2.80786   2
  -5   7   6 39.7319 2.69019  11
   4  -7  -6 107.340 6.27570   2
  -4   7   6 91.8952 6.10717  11
   2  -7  -6 5.65439 0.87143  10
   2  -7  -6 7.38598 1.19195   2
   2  -7  -6 7.65501 1.24881   7
   1  -7  -6 371.542 22.7709  10
   1  -7  -6 413.059 22.9217   2
   1  -7  -6 353.899 22.8663   7
   0  -7  -6 44.7860 2.88336  10
   0  -7  -6 38.0266 3.47401   7
   0  -7  -6 48.4380 3.12061   2
   0  -7  -6 46.2587 2.95285  16
  -1  -7  -6 6.35908 0.94580  16
  -1  -7  -6 6.37313 0.85911  10
  -2  -7  -6 103.326 6.22417   2
  -2  -7  -6 98.2399 6.12796  16
   7  -8  -6 145.223 8.35092   2
  -7   8   6 129.461 8.41493  15
  -7   8   6 135.525 8.24862  11
   6  -8  -6 8.69117 0.99528   2
  -6   8   6 8.52712 0.87944  11
  -6   8   6 9.19256 1.30831  15
   5  -8  -6 52.2981 3.42770   2
   5  -8  -6 53.4649 3.48709   7
   4  -8  -6 101.643 6.17913   2
   4  -8  -6 96.9960 6.17760   7
   3  -8  -6 29.6822 2.16638   2
   3  -8  -6 28.2040 2.15937   7
   2  -8  -6 32.9175 2.32402   2
   2  -8  -6 30.3952 2.07072  10
   1  -8  -6 10.4781 1.37507   2
   1  -8  -6 9.22499 0.92300  10
   0  -8  -6 138.314 8.83055  10
   0  -8  -6 155.458 8.88085   2
   0  -8  -6 140.560 8.76970  16
  -1  -8  -6 9.75601 0.82974  16
  -7   9   6 2.55282 0.46017  15
   6  -9  -6 75.3412 4.72846   2
   6  -9  -6 80.7399 4.74631   7
  -6   9   6 72.9235 4.80887  15
   5  -9  -6 112.755 6.92327   2
   5  -9  -6 113.513 6.93527   7
   4  -9  -6 4.57126 0.99023   7
   4  -9  -6 6.44953 0.95288   2
   3  -9  -6 27.3418 1.99719   2
   2  -9  -6 169.003 10.2763   2
   1  -9  -6 17.7568 1.41952   2
   1  -9  -6 13.1938 1.12521  16
   4 -10  -6 0.10946 0.25921   2
   0 -12   7 1.83780 0.39110   4
   0 -12   7 2.12484 0.34522  12
   1 -12   7 28.8356 1.87349  12
   2 -12   7 42.1422 2.48063  12
   2 -12   7 35.8736 2.38961  10
   3 -12   7 22.3948 1.42847  10
   3 -12   7 22.3312 1.55815  12
   4 -12   7 78.9064 4.80148  12
  -2 -11   7 255.714 15.3430  12
  -2 -11   7 268.352 15.3586   4
  -2 -11   7 241.077 15.3575  15
  -1 -11   7 61.4392 3.73059   4
  -1 -11   7 57.5871 3.62830   3
  -1 -11   7 56.2187 3.66765  15
  -1 -11   7 56.5563 3.63142  12
   0 -11   7 69.9557 4.37085  12
   0 -11   7 69.9567 4.35981   3
   1 -11   7 117.126 7.12354  12
   1 -11   7 113.586 7.00752  10
   1 -11   7 117.166 7.09238   3
   2 -11   7 13.9887 1.08246  10
   2 -11   7 14.6662 1.08438   3
   2 -11   7 15.1208 1.18808  12
   3 -11   7 372.221 22.7734  12
   3 -11   7 385.029 22.6939  10
   4 -11   7 195.384 11.1667  10
   4 -11   7 175.297 11.2161  12
   5 -11   7 13.2613 0.99015  12
   5 -11   7 14.2884 1.13443  10
  -4 -10   7 39.4520 2.50035  15
  -3 -10   7 61.7534 3.80160  12
  -3 -10   7 60.8080 3.87163  15
  -3 -10   7 69.5010 4.25932   4
  -3 -10   7 64.3789 3.82101   3
  -3 -10   7 58.0315 3.73606  13
  -3 -10   7 53.6831 3.84959   9
  -2 -10   7 1.79143 0.49795  12
  -2 -10   7 1.33534 0.45484   3
  -2 -10   7 1.70758 0.51468  15
  -2 -10   7 1.69267 0.53150   4
  -1 -10   7 373.330 22.2365  12
  -1 -10   7 372.093 22.2444   3
  -1 -10   7 367.412 22.2566   9
  -1 -10   7 363.862 22.2797  15
   0 -10   7 40.2881 2.57669  10
   0 -10   7 42.4900 2.72638   3
   0 -10   7 40.1192 2.72391  15
   0 -10   7 39.9729 2.70644  12
   1 -10   7 10.3195 1.04790  12
   1 -10   7 10.9665 1.06757   3
   1 -10   7 10.6026 0.94829  10
   2 -10   7 32.9637 2.10909  10
   2 -10   7 29.0214 2.17269  12
   2 -10   7 32.3030 2.16192   3
   3 -10   7 46.8490 3.05515   3
   3 -10   7 48.0035 3.02622  10
   3 -10   7 47.2966 3.11742  12
  -4  10  -7 35.4221 2.40761   6
   4 -10   7 34.6550 2.42854  12
   4 -10   7 39.3517 2.39780  10
  -5  10  -7 134.786 8.56454   6
   5 -10   7 135.869 8.55756  12
   5 -10   7 150.789 8.51680  10
  -6  10  -7 328.427 22.1060   6
  -6  10  -7 420.401 22.3904   1
   6 -10   7 409.538 22.1692  10
   6 -10   7 317.215 22.0871  12
  -5  -9   7 1.88302 0.35021   9
  -5  -9   7 2.86888 0.38551  13
  -4  -9   7 41.5832 2.67256   4
  -4  -9   7 36.5559 2.53603  12
  -4  -9   7 38.7968 2.59826   9
  -4  -9   7 40.3527 2.49336  13
  -4  -9   7 39.3092 2.62004  15
  -3  -9   7 55.9294 3.74621  15
  -3  -9   7 64.4540 4.36416   4
  -3  -9   7 56.5424 3.67311   3
  -3  -9   7 61.0150 3.64742  13
  -3  -9   7 54.8568 3.64204  12
  -3  -9   7 53.0545 3.71709   9
  -2  -9   7 436.797 27.1808   9
  -2  -9   7 485.372 27.1894   4
  -2  -9   7 453.138 27.1255   3
  -2  -9   7 445.925 27.0265  13
  -2  -9   7 441.516 27.1033  12
  -2  -9   7 440.413 27.1791  15
  -1  -9   7 82.4053 5.33017  15
  -1  -9   7 83.6096 5.38512   3
  -1  -9   7 92.5597 5.33367  12
  -1  -9   7 80.1274 5.19984  13
  -1  -9   7 79.4828 5.33356   9
   0  -9   7 11.4043 1.34904   9
   0  -9   7 11.2363 1.26148  15
   0  -9   7 12.3065 1.15542  12
   0  -9   7 12.3256 1.17832   3
   1  -9   7 0.27580 0.46063   3
   1  -9   7 0.69373 0.47750  12
   1  -9   7 0.57120 0.59250   9
   1  -9   7 0.57450 0.35214  10
   2  -9   7 35.0285 2.42233   3
   2  -9   7 35.0911 2.36850  10
   2  -9   7 35.3004 2.42092  12
  -3   9  -7 2.83958 0.61161   6
   3  -9   7 3.52885 0.58172   3
   3  -9   7 4.02530 0.66479  12
   3  -9   7 3.54792 0.53635  10
  -4   9  -7 42.4805 2.94965   6
   4  -9   7 42.8271 2.88171  12
   4  -9   7 44.4782 2.83525  10
   4  -9   7 42.5161 2.79802   3
  -5   9  -7 220.866 13.2182   6
   5  -9   7 220.785 13.0171  10
   5  -9   7 204.994 13.0674  12
  -6   9  -7 5.28017 0.82803   6
   6  -9   7 5.88193 0.75565  10
   6  -9   7 5.61328 0.66221  12
  -7   9  -7 55.4075 3.68135   6
   7  -9   7 63.2960 3.62764  10
  -6  -8   7 70.5708 4.51033  15
  -6  -8   7 71.6007 4.51918   9
  -6  -8   7 78.6335 4.47402  13
  -5  -8   7 258.030 15.8013  13
  -5  -8   7 279.651 15.9575   4
  -5  -8   7 259.435 15.9023   9
  -5  -8   7 254.076 15.8880  15
  -4  -8   7 199.238 12.4760   9
  -4  -8   7 199.725 12.3807   3
  -4  -8   7 201.880 12.3368  13
  -4  -8   7 203.212 12.4102  12
  -4  -8   7 218.334 12.5540   4
  -4  -8   7 201.193 12.4658  15
  -3  -8   7 31.9513 2.17079  13
  -3  -8   7 31.6166 2.22593  12
  -3  -8   7 34.1669 2.36914  15
  -3  -8   7 37.1377 2.49503   4
  -3  -8   7 30.8072 2.25493   3
  -3  -8   7 30.5988 2.27436   1
  -3  -8   7 28.0847 2.35087   9
  -2  -8   7 4.10930 0.69912   3
  -2  -8   7 3.65225 0.73363   9
  -2  -8   7 5.03902 0.96395  15
  -2  -8   7 3.29965 0.75719   1
  -2  -8   7 4.58317 0.69851  12
  -2  -8   7 5.51825 0.73094  13
  -1  -8   7 1.93075 0.44351  13
  -1  -8   7 1.95364 0.66020   9
  -1  -8   7 2.15220 0.56529  12
  -1  -8   7 1.71844 0.65276   1
  -1  -8   7 2.77612 0.61500  15
  -1  -8   7 1.70447 0.50717   3
   0  -8   7 20.6111 1.72510   9
   0  -8   7 21.1972 1.63306  12
   0  -8   7 20.6602 1.51383  10
   0  -8   7 19.6000 1.63269  15
   0  -8   7 22.5169 1.66028   3
   1  -8   7 215.338 13.2374  10
   1  -8   7 224.085 13.3588  12
   1  -8   7 229.396 13.3732   3
   1  -8   7 208.627 13.4196   9
  -2   8  -7 29.4265 2.23957   6
   2  -8   7 27.7485 2.61193   9
   2  -8   7 31.4525 2.13020  10
   2  -8   7 32.4930 2.21183  12
   2  -8   7 33.9427 2.21005   3
  -3   8  -7 340.698 20.6330   6
   3  -8   7 336.254 20.5031   3
   3  -8   7 336.538 20.4282  10
   3  -8   7 344.284 20.5353  12
  -4   8  -7 207.777 11.8403   6
   4  -8   7 166.889 11.2694   3
   4  -8   7 183.067 11.4399  12
  -5   8  -7 6.58922 1.17746   6
   5  -8   7 6.99395 0.90233  12
  -6   8  -7 300.683 18.7108   6
   6  -8   7 310.367 18.4324  12
  -7   8  -7 40.0615 2.69536   6
   7  -8   7 36.7685 2.56724  12
   7  -8   7 46.6461 2.62889  10
  -6  -7   7 166.174 9.72532  13
  -6  -7   7 157.451 9.80891   9
  -6  -7   7 158.857 9.79886  15
  -5  -7   7 2.62612 0.54502  12
  -5  -7   7 3.56657 0.67289  15
  -5  -7   7 3.58267 0.52411  13
  -5  -7   7 3.13329 0.54801   3
  -5  -7   7 2.87225 0.67714   4
  -5  -7   7 3.31832 0.68277   9
  -4  -7   7 64.5854 4.10570   4
  -4  -7   7 60.8609 3.93347  12
  -4  -7   7 63.5029 3.97899   3
  -4  -7   7 57.3105 3.97628   1
  -4  -7   7 61.7663 3.92720  13
  -4  -7   7 62.5875 4.14319   9
  -4  -7   7 61.3729 4.08201  15
  -3  -7   7 944.428 57.8347  12
  -3  -7   7 862.495 57.8396   1
  -3  -7   7 962.323 57.8623   3
  -3  -7   7 981.776 57.8115  13
  -3  -7   7 992.810 57.9017   4
  -3  -7   7 998.927 57.9573  15
  -3  -7   7 1015.70 58.0244   9
  -2  -7   7 217.926 12.7927  13
  -2  -7   7 211.264 12.8522   3
  -2  -7   7 211.846 12.8322  12
  -2  -7   7 218.995 12.9339  15
  -2  -7   7 194.931 12.8767   1
  -2  -7   7 209.371 12.9852   9
  -1  -7   7 129.294 8.35518  15
  -1  -7   7 150.051 8.38603   3
  -1  -7   7 125.130 8.38918   1
  -1  -7   7 136.444 8.30149  12
  -1  -7   7 133.416 8.23694  13
  -1  -7   7 134.260 8.44205   9
   0  -7   7 1006.71 62.2196   1
   0  -7   7 1002.71 62.1696  15
   0  -7   7 1079.32 62.1565   3
   0  -7   7 1026.97 62.0380  10
   0  -7   7 1048.46 62.2715   9
   0  -7   7 1060.94 62.1457  12
  -1   7  -7 3.53567 0.73816   6
   1  -7   7 3.76937 0.67801   3
   1  -7   7 4.22778 0.73259  10
   1  -7   7 3.80948 0.63470  12
  -2   7  -7 228.814 13.5586   6
   2  -7   7 234.078 13.4540   3
   2  -7   7 212.103 13.5618  12
   2  -7   7 206.906 13.3104  10
  -3   7  -7 21.8307 1.90017   6
  -3   7  -7 19.1976 2.18390   7
   3  -7   7 22.4373 1.66981   3
   3  -7   7 23.2735 1.71344  12
  -4   7  -7 88.3661 5.85187   4
  -4   7  -7 94.6529 5.92393   6
  -4   7  -7 85.5135 5.86745   7
   4  -7   7 93.8438 5.69830  12
   4  -7   7 88.9363 5.64908   3
  -5   7  -7 281.568 17.0076   6
  -5   7  -7 261.588 16.7667  11
  -5   7  -7 293.281 16.9976   7
   5  -7   7 258.947 16.7388   3
   5  -7   7 291.580 16.8222  12
  -6   7  -7 1.03150 0.59282  11
  -6   7  -7 0.64460 0.64704   4
  -6   7  -7 1.23044 0.64689   6
   6  -7   7 0.98824 0.47317  12
  -7   7  -7 -0.3493 0.45847   4
  -7   7  -7 -0.1234 0.39561   6
   7  -7   7 0.01457 0.32480  12
  -7  -6   7 8.82752 0.76015  13
  -7  -6   7 8.42953 0.88990  15
  -7  -6   7 9.08084 0.86401   9
  -6  -6   7 18.8038 1.49835   9
  -6  -6   7 17.8236 1.34909  13
  -6  -6   7 17.6203 1.45824  15
  -5  -6   7 9.12366 1.40396   4
  -5  -6   7 13.3596 1.12768  13
  -5  -6   7 13.1259 1.28332  15
  -5  -6   7 12.0638 1.30060   9
  -5  -6   7 12.9013 1.12573   3
  -4  -6   7 74.6930 4.61429  13
  -4  -6   7 71.9123 4.62680   3
  -4  -6   7 72.6477 4.73826   4
  -4  -6   7 62.3026 4.63259   1
  -4  -6   7 75.4386 4.75637  15
  -4  -6   7 76.9562 4.83219   9
  -4  -6   7 75.6177 4.60107  12
  -3  -6   7 3.96429 0.73403   4
  -3  -6   7 4.67494 0.71284  13
  -3  -6   7 3.53720 0.59285  12
  -3  -6   7 2.85456 0.72588   1
  -3  -6   7 4.48971 0.75554  15
  -3  -6   7 4.16170 0.78529   9
  -3  -6   7 3.99698 0.62016   3
  -2  -6   7 8.75289 0.97019   3
  -2  -6   7 9.34809 1.06197  15
  -2  -6   7 8.69277 0.93410  12
  -2  -6   7 11.3063 1.24719   1
  -2  -6   7 8.83097 1.20186   9
  -2  -6   7 7.55500 0.91955  13
  -1  -6   7 833.247 50.6353   3
  -1  -6   7 891.654 50.7385  15
  -1  -6   7 789.138 50.6621   1
  -1  -6   7 866.207 50.6341  12
  -1  -6   7 915.618 50.8010   9
  -1  -6   7 772.540 50.7445  13
   0  -6   7 113.628 6.91159   3
   0  -6   7 111.982 6.89035  12
   0  -6   7 108.409 7.01531   1
  -1   6  -7 239.997 13.2561   6
   1  -6   7 209.998 13.0110  12
   1  -6   7 210.921 13.0184   3
   1  -6   7 196.376 13.1028   1
  -2   6  -7 49.6034 3.37864   6
   2  -6   7 46.0664 3.16786   3
   2  -6   7 49.3419 3.18975  12
  -3   6  -7 17.0041 1.65007   6
  -3   6  -7 14.3039 1.61549   7
  -3   6  -7 12.3612 1.64043   4
   3  -6   7 11.6892 1.47154  12
   3  -6   7 13.9888 1.25174   3
  -4   6  -7 3.10163 0.73640   4
  -4   6  -7 3.86482 0.89951   6
  -4   6  -7 4.57620 0.94873   7
  -4   6  -7 4.13054 0.77107  11
   4  -6   7 3.23994 0.60913   3
   4  -6   7 4.43876 0.75711  12
  -5   6  -7 40.5264 2.84469  11
  -5   6  -7 40.3175 3.21076   6
  -5   6  -7 41.1615 4.08180   7
   5  -6   7 40.4168 2.64227   3
   5  -6   7 34.5687 2.86717  12
  -6   6  -7 -0.6849 0.58397   4
  -6   6  -7 0.14761 0.78355   7
  -6   6  -7 -0.4524 0.67215  11
  -6   6  -7 -0.1932 0.55933   1
  -6   6  -7 0.23963 0.63266   6
   6  -6   7 0.46256 0.50718  12
  -7   6  -7 15.6263 1.49929   4
  -7   6  -7 18.9184 1.43958  11
  -7   6  -7 16.0663 1.41954   6
   7  -6   7 16.3735 1.24156  12
  -8  -5   7 0.29422 0.24687  13
  -7  -5   7 325.053 19.2394  13
  -7  -5   7 305.239 19.2978  15
  -7  -5   7 329.986 19.3418   9
  -6  -5   7 70.8954 4.49821  15
  -6  -5   7 72.5034 4.39165  13
  -6  -5   7 58.5794 4.35736   1
  -6  -5   7 77.3678 4.58364   9
  -5  -5   7 24.9301 1.81968  13
  -5  -5   7 28.1198 2.08076   9
  -5  -5   7 25.8007 1.82630   3
  -5  -5   7 26.2589 1.96802  15
  -5  -5   7 20.6209 1.88266   1
  -4  -5   7 0.46443 0.56290   1
  -4  -5   7 0.17971 0.85238   4
  -4  -5   7 -0.3027 0.40467   3
  -4  -5   7 0.04117 0.45812  13
  -4  -5   7 0.54569 0.54350  15
  -4  -5   7 0.21995 0.59712   9
  -3  -5   7 338.332 20.2104  15
  -3  -5   7 309.956 20.1053   3
  -3  -5   7 345.329 20.2892   9
  -3  -5   7 350.154 20.1212  13
  -3  -5   7 321.559 20.0899  12
   2   5  -7 1.85601 0.41325   5
  -2  -5   7 1.80584 0.70217   9
  -2  -5   7 1.86115 0.46275   3
  -2  -5   7 1.41711 0.74845  13
  -2  -5   7 3.15289 0.57070  12
  -2  -5   7 1.86039 0.59683   1
   1   5  -7 2.59978 0.64732   8
   1   5  -7 1.80298 0.44157   5
  -1  -5   7 1.69232 0.43818   3
  -1  -5   7 1.62879 0.48789   1
   0   5  -7 647.346 36.0470   5
   0  -5   7 583.005 36.0110   3
   0  -5   7 569.586 35.9716  14
  -1   5  -7 45.1150 2.89034   6
  -1   5  -7 44.5835 2.69638   5
  -1   5  -7 42.2687 2.60040   8
   1  -5   7 33.7040 2.55354  14
   1  -5   7 37.7317 2.63993   5
   1  -5   7 38.2070 2.61765  12
   1  -5   7 37.1643 2.79467   1
   1  -5   7 38.5190 2.62862   3
  -2   5  -7 0.57714 0.49213   5
  -2   5  -7 0.65119 0.51596   4
  -2   5  -7 -0.0055 0.58686   7
  -2   5  -7 0.56856 0.52872   6
   2  -5   7 0.62467 0.49118  12
   2  -5   7 0.40556 0.47501   3
  -3   5  -7 121.469 8.49087   7
  -3   5  -7 153.222 8.63733   6
  -3   5  -7 129.513 8.43665   4
   3  -5   7 138.164 8.33172   3
  -4   5  -7 375.254 22.5553   4
  -4   5  -7 340.442 22.6279   7
  -4   5  -7 406.574 22.7698   6
  -4   5  -7 358.642 22.5312  11
   4  -5   7 380.750 22.4572   3
  -5   5  -7 2.58873 0.86599   6
  -5   5  -7 0.88183 0.85591  11
  -5   5  -7 1.05209 0.89880   7
  -5   5  -7 0.63540 0.73622   4
   5  -5   7 1.33865 0.61542   3
  -6   5  -7 53.6712 3.89395   7
  -6   5  -7 47.9546 3.33446  16
  -6   5  -7 55.4141 3.60622  11
  -6   5  -7 51.3819 3.61230   4
  -6   5  -7 50.1741 3.62010   6
   6  -5   7 55.4284 3.41601  12
   6  -5   7 52.5587 3.43966   3
  -7   5  -7 123.641 7.74446   4
  -7   5  -7 133.761 7.77314  11
  -7   5  -7 110.788 7.75942   6
  -7   5  -7 141.536 7.93519   7
   7  -5   7 121.058 7.68803  12
  -8  -4   7 94.5164 5.83637   9
  -8  -4   7 91.1992 5.83460  15
  -8  -4   7 100.375 5.81330  13
  -7  -4   7 270.204 15.6072   9
  -7  -4   7 225.935 15.4510   1
  -7  -4   7 264.812 15.4864  13
  -7  -4   7 266.085 15.5815  15
  -6  -4   7 208.602 12.3095  15
  -6  -4   7 201.229 12.1596   1
  -6  -4   7 184.397 12.1220  13
  -5  -4   7 140.020 8.81567   3
  -5  -4   7 151.378 9.04722   9
  -5  -4   7 128.243 8.81760   1
  -5  -4   7 148.930 8.97895  15
  -5  -4   7 151.532 8.85890  13
  -4  -4   7 879.312 50.1098  13
  -4  -4   7 881.302 50.2229  15
  -4  -4   7 756.048 50.0637   1
  -4  -4   7 878.609 50.2841   9
  -4  -4   7 783.844 50.0765   3
   3   4  -7 160.848 10.4303   5
  -3  -4   7 181.971 10.6878   9
  -3  -4   7 156.285 10.4816   3
  -3  -4   7 182.447 10.6098  15
  -3  -4   7 179.084 10.5033  13
   2   4  -7 0.60329 0.31024   5
   2   4  -7 1.66607 0.54265   8
  -2  -4   7 0.88254 0.51883   1
   1   4  -7 330.099 19.7934   5
   1   4  -7 326.678 19.8047   8
   0   4  -7 88.5482 5.29965   5
   0   4  -7 85.9813 5.26815   8
   0  -4   7 80.1374 5.23548  14
  -1   4  -7 1.00659 0.42866   5
  -1   4  -7 1.60973 0.41444   8
   1  -4   7 1.56565 0.66306   3
   1  -4   7 1.09136 0.38654   5
   1  -4   7 0.91384 0.34230  14
  -2   4  -7 14.1620 1.59866   6
  -2   4  -7 13.8382 1.45566   7
  -2   4  -7 11.5659 1.26206   5
   2  -4   7 9.79701 1.13082   5
   2  -4   7 12.4512 1.39150   3
  -3   4  -7 780.453 50.6205   7
  -3   4  -7 841.225 50.5512   4
   3  -4   7 905.578 50.4971   3
  -4   4  -7 11.8904 1.73713   4
  -4   4  -7 12.2334 2.11843   7
  -4   4  -7 15.4127 1.65007  11
  -4   4  -7 13.7430 1.67847   6
   4  -4   7 13.8555 1.22444   3
  -5   4  -7 44.5424 3.36666   6
  -5   4  -7 45.1352 3.65154   7
  -5   4  -7 45.4848 3.37582  11
  -5   4  -7 48.2333 3.38152   4
   5  -4   7 47.6747 3.07449   3
  -6   4  -7 267.636 15.5145  11
  -6   4  -7 263.214 15.4556   4
  -6   4  -7 242.514 15.5067  16
  -6   4  -7 265.539 15.6464   7
  -6   4  -7 241.458 15.5213   6
   6  -4   7 242.883 15.3427   3
  -7   4  -7 120.889 7.08992  11
  -7   4  -7 127.521 7.23653   7
  -7   4  -7 96.0402 7.01593   6
  -7   4  -7 119.100 7.04691   4
   7  -4   7 108.489 6.98000  12
  -8  -3   7 17.2286 1.30227  15
  -8  -3   7 18.4715 1.22482  13
  -8  -3   7 15.1098 1.35862   9
  -7  -3   7 359.189 21.2052  13
  -7  -3   7 378.333 21.3338   9
  -7  -3   7 322.738 21.1861   1
  -7  -3   7 348.605 21.3001  15
  -6  -3   7 110.724 6.97901  13
  -6  -3   7 118.991 7.16263   9
  -6  -3   7 121.317 7.14263  15
  -6  -3   7 100.697 6.96002   1
  -5  -3   7 9.15493 1.36334   9
  -5  -3   7 9.72256 1.38652  15
  -5  -3   7 8.76215 1.42935  13
   4   3  -7 182.832 11.6214   5
  -4  -3   7 211.211 11.8431  15
  -4  -3   7 169.534 11.6512   1
  -4  -3   7 202.780 11.8842   9
  -4  -3   7 183.540 11.6763   3
  -4  -3   7 203.839 11.7152  13
   3   3  -7 2.78750 0.65899   8
  -3  -3   7 1.92908 0.49533  15
  -3  -3   7 1.55681 0.38218   1
  -3  -3   7 2.22939 0.54392  13
   2   3  -7 124.996 7.74344   8
   2   3  -7 126.757 7.69351   5
   1   3  -7 1571.27 91.3718  17
   1   3  -7 1566.40 91.1701   5
   1   3  -7 1537.78 91.1696   8
  -1  -3   7 1424.03 91.0874  17
   0   3  -7 135.458 7.86203   8
   0   3  -7 134.124 7.91143   5
   0   3  -7 112.927 7.85092  17
   0  -3   7 131.098 7.94065   5
  -1   3  -7 2.57398 0.92007  17
  -1   3  -7 3.75073 0.58411  17
   1  -3   7 3.61615 0.65802   5
   1  -3   7 1.86959 0.44416  17
   1  -3   7 3.02472 0.63229  14
  -2   3  -7 592.114 37.8012   5
  -2   3  -7 672.374 37.9905   6
   2  -3   7 585.532 37.6393   5
   2  -3   7 659.782 37.6803   3
  -3   3  -7 0.85608 0.73619   6
  -3   3  -7 0.42410 0.54088   2
  -3   3  -7 1.44029 0.81893   7
  -3   3  -7 -0.7017 0.63053   9
   3  -3   7 1.18563 0.51730   3
  -4   3  -7 100.286 6.58005   4
  -4   3  -7 109.446 6.75526   6
  -4   3  -7 112.534 6.68960   9
  -4   3  -7 97.3704 6.61446   2
  -4   3  -7 98.5242 6.80276   7
   4  -3   7 104.129 6.42938   3
  -5   3  -7 273.758 16.8130   7
  -5   3  -7 241.887 16.5298  16
  -5   3  -7 275.553 16.6777  11
  -5   3  -7 271.939 16.7363   6
   5  -3   7 299.430 16.5758   3
  -6   3  -7 112.977 7.04868  16
  -6   3  -7 103.247 7.16598   6
  -6   3  -7 116.928 7.23866  11
  -6   3  -7 119.089 7.41703   7
  -6   3  -7 118.628 7.16919   4
   6  -3   7 116.100 7.04554   3
  -7   3  -7 47.2362 3.19516   7
  -7   3  -7 42.7112 3.00080  11
  -8  -2   7 249.918 14.4025  13
  -8  -2   7 218.627 14.4375   9
  -8  -2   7 246.257 14.5391  15
  -8  -2   7 241.710 14.4308   1
  -7  -2   7 2.74794 0.60228  15
  -7  -2   7 1.75633 0.54834   1
  -7  -2   7 2.34046 0.60672   9
  -7  -2   7 2.54450 0.51380  13
  -6  -2   7 173.498 12.2305  11
  -6  -2   7 197.415 12.3298   1
  -6  -2   7 222.659 12.5156  15
  -6  -2   7 210.084 12.3516  13
  -6  -2   7 210.919 12.4938   9
  -5  -2   7 62.2965 3.86739  15
  -5  -2   7 58.3205 3.71966  13
  -5  -2   7 51.5058 3.69743   1
  -5  -2   7 58.1707 3.86948   9
  -4  -2   7 237.324 13.6198  13
  -4  -2   7 202.314 13.5849   1
  -4  -2   7 244.186 13.7264  15
  -4  -2   7 210.698 13.6934   9
   3   2  -7 161.605 10.2764   8
   3   2  -7 165.692 9.94615   5
   2   2  -7 1435.78 90.4986  17
   2   2  -7 1570.11 90.5418   5
   2   2  -7 1561.70 90.5797   8
  -2  -2   7 1490.20 90.4633  17
   1   2  -7 292.394 17.9911  17
   1   2  -7 302.441 18.0234   8
  -1  -2   7 301.859 17.9562  17
   0   2  -7 430.702 27.4332  17
   0   2  -7 455.999 27.4293   8
   0   2  -7 485.939 27.4882   5
   0   2  -7 448.990 27.3994  17
   0  -2   7 458.882 27.4464   5
   0  -2   7 461.626 27.4204  17
  -1   2  -7 44.0294 2.84083  17
  -1   2  -7 46.8264 2.94707   5
  -1   2  -7 41.7906 2.87858  17
  -1   2  -7 46.4123 2.83998   8
   1  -2   7 45.9414 2.89954   5
   1  -2   7 40.7425 2.83465  17
  -2   2  -7 2.46358 1.21744   7
  -2   2  -7 1.21866 0.73540   9
   2  -2   7 1.01920 0.44377   5
   2  -2   7 1.50925 0.60899   3
  -3   2  -7 778.926 43.9419   6
  -3   2  -7 672.604 43.7914   2
  -3   2  -7 690.035 43.8740   7
  -3   2  -7 837.308 43.9377   9
  -3   2  -7 666.094 43.7270   4
  -4   2  -7 29.5587 2.39552   4
  -4   2  -7 35.4071 2.44723   9
  -4   2  -7 28.8043 2.50152   2
  -4   2  -7 27.1536 2.14965  16
  -4   2  -7 33.3220 2.52419   6
  -4   2  -7 29.3781 2.83680   7
   4  -2   7 30.5479 2.12604   3
  -5   2  -7 51.1708 4.13258  11
  -5   2  -7 46.2750 3.39394   6
  -5   2  -7 52.7516 5.22506   7
  -5   2  -7 48.2381 3.64817   2
  -5   2  -7 50.4481 3.38364   9
  -5   2  -7 42.9462 3.15697  16
  -5   2  -7 47.0046 3.39946   4
   5  -2   7 48.7224 3.14914   3
  -6   2  -7 202.861 11.8573   7
  -6   2  -7 198.696 11.5516  16
  -6   2  -7 166.040 11.6190   6
  -6   2  -7 200.255 11.7474  11
   6  -2   7 187.148 11.6223   3
  -7   2  -7 46.5292 3.06763  11
  -7   2  -7 54.4873 3.88569   7
  -7   2  -7 41.6616 2.94929   4
  -9  -1   7 8.94389 0.82758   1
  -8  -1   7 53.5807 3.35459  15
  -8  -1   7 51.3848 3.28213   1
  -8  -1   7 48.1800 3.18348  11
  -8  -1   7 50.2991 3.23317  13
  -7  -1   7 0.87173 0.56761   9
  -7  -1   7 1.12460 0.54075   1
  -7  -1   7 1.90371 0.65859  13
  -7  -1   7 0.51380 0.52427  15
  -6  -1   7 28.8596 1.95497  13
  -6  -1   7 26.0437 2.04522   9
  -6  -1   7 30.0230 2.12240  15
  -6  -1   7 25.7196 2.02547   1
  -6  -1   7 24.0551 1.85014  11
  -5  -1   7 341.406 21.2023   1
  -5  -1   7 357.444 21.3562   9
  -5  -1   7 400.758 21.4125  15
  -5  -1   7 359.895 21.2329  13
  -5  -1   7 299.978 21.1249  11
   4   1  -7 108.851 7.08582   5
  -4  -1   7 106.795 7.11255   1
  -4  -1   7 117.524 7.15940  13
  -4  -1   7 130.169 7.29930  15
   3   1  -7 115.614 7.26266   5
   3   1  -7 121.194 7.33782   8
   2   1  -7 5.81836 0.83199   5
   2   1  -7 7.59900 0.83310   8
   2   1  -7 5.52435 0.65398  17
  -2  -1   7 6.19292 0.73281   5
   1   1  -7 993.950 57.0007   5
   1   1  -7 942.599 56.9597   8
  -1  -1   7 938.040 56.9444   5
  -1  -1   7 931.616 56.8954  17
   0   1  -7 13.6835 1.02646  17
   0   1  -7 11.2419 1.00652  17
   0   1  -7 12.0868 1.05233   8
   0   1  -7 12.0794 1.17080   5
   0  -1   7 12.3896 1.09595   5
   0  -1   7 11.5494 0.96542  17
  -1   1  -7 39.6528 2.75989   5
   1  -1   7 42.1905 2.73700   5
  -2   1  -7 107.364 7.44808   7
  -2   1  -7 129.313 7.49651   6
  -2   1  -7 137.195 7.48233   9
  -2   1  -7 98.2857 7.49399   2
  -3   1  -7 1.48834 0.68809   6
  -3   1  -7 1.26529 0.86057   7
  -3   1  -7 2.32749 0.65329   2
  -3   1  -7 2.13842 0.69900   9
  -4   1  -7 141.515 8.78048   7
  -4   1  -7 138.699 8.64977   2
  -4   1  -7 134.755 8.51834   4
  -4   1  -7 125.196 8.39305  16
  -4   1  -7 142.259 8.62716   9
  -4   1  -7 140.690 8.65996   6
  -5   1  -7 283.570 17.0271  11
  -5   1  -7 291.616 16.9251   4
  -5   1  -7 256.510 16.9479   6
  -5   1  -7 266.321 16.8024  16
  -5   1  -7 287.712 17.0282   2
  -5   1  -7 295.931 17.1572   7
  -5   1  -7 278.574 17.0238   9
   5  -1   7 270.497 16.8429   3
  -6   1  -7 15.3449 1.51811   4
  -6   1  -7 18.9415 1.40042  16
  -6   1  -7 17.0942 2.29231  11
  -6   1  -7 17.6854 2.04874   7
   6  -1   7 18.2507 1.31342   3
  -7   1  -7 4.00035 0.70441  11
  -9   0   7 112.920 6.69688  11
  -9   0   7 116.834 6.76041   1
  -9   0   7 102.264 6.73985  15
  -8   0   7 7.42734 0.84820  11
  -8   0   7 7.41463 0.94324  15
  -8   0   7 5.19526 0.73919  13
  -7   0   7 101.145 6.47598  13
  -7   0   7 109.244 6.67740  15
  -7   0   7 107.233 6.54409   1
  -7   0   7 101.231 6.45817  11
  -6   0   7 206.961 13.1872   1
  -6   0   7 218.168 13.2072  13
  -6   0   7 239.207 13.3998  15
  -6   0   7 203.617 13.1480  11
  -5   0   7 68.8176 4.04603  15
  -5   0   7 58.4813 3.83088   1
  -5   0   7 59.5426 3.84098  13
  -5   0   7 58.7111 4.51423   9
  -5   0   7 52.1610 3.75113  11
   4   0  -7 1.62202 0.55095   5
  -4   0   7 2.76893 0.59517  15
  -4   0   7 1.27673 0.36554  11
  -4   0   7 1.53119 0.46640   1
   3   0  -7 120.474 7.24247   8
   3   0  -7 110.152 7.10323   5
   2   0  -7 1.16120 0.49639   8
   1   0  -7 26.7806 1.85277   8
   1   0  -7 24.8033 1.75852  17
   1   0  -7 27.7654 2.36202   5
  -1   0   7 24.4931 2.03845   5
   0   0  -7 29.1567 1.98915   5
   0   0  -7 25.7137 1.83830  17
   0   0  -7 28.6532 1.90668   8
   0   0  -7 27.6169 1.88289  17
   0   0   7 25.6669 1.80175  17
   0   0   7 28.4729 1.92869   5
   0   0   7 23.0533 1.82802  17
  -1   0  -7 10.3073 1.42208   7
  -1   0  -7 11.6139 1.25066   6
  -1   0  -7 12.4423 1.23021   9
  -1   0  -7 11.6948 1.25020   5
  -1   0  -7 9.40147 1.03321   8
   1   0   7 12.1763 1.14452   5
  -2   0  -7 430.073 28.7716   2
  -2   0  -7 524.368 28.8932   9
  -2   0  -7 457.098 28.8563   7
  -2   0  -7 499.825 28.8985   6
  -3   0  -7 25.8488 2.02814   9
  -3   0  -7 22.4016 2.41167   7
  -3   0  -7 23.5366 2.00317   6
  -3   0  -7 24.8582 2.12038   2
  -3   0  -7 24.4806 2.52627   4
  -3   0  -7 21.3764 1.85451  16
  -4   0  -7 0.78284 0.59700  16
  -4   0  -7 0.15922 0.63977   9
  -4   0  -7 -0.0264 0.82706   7
  -4   0  -7 0.23336 0.67749   6
  -4   0  -7 0.56263 0.65481   2
  -4   0  -7 1.16589 0.66827   4
  -5   0  -7 38.1572 2.81985   2
  -5   0  -7 35.5093 2.67470   9
  -5   0  -7 35.9353 2.61590   4
  -5   0  -7 36.9551 3.07587   7
  -5   0  -7 36.2646 2.48941  16
  -5   0  -7 38.9851 2.78924  11
  -6   0  -7 15.3138 1.60289   7
  -6   0  -7 13.8996 1.33493  11
  -6   0  -7 13.1111 1.07695  16
  -6   0  -7 11.8906 1.16785   9
  -6   0  -7 10.1979 1.18229   4
   6   0   7 13.2603 1.00045   3
  -9   1   7 1.01819 0.43626   1
  -9   1   7 0.98894 0.39394  11
  -8   1   7 102.855 7.18817  15
  -8   1   7 124.758 7.15465   1
  -8   1   7 117.911 7.07743  11
  -7   1   7 2.50038 0.62847   1
  -7   1   7 2.82188 0.55113  13
  -7   1   7 3.16126 0.60307  11
  -7   1   7 2.99476 0.74195  15
  -6   1   7 292.760 17.9784  11
  -6   1   7 306.623 18.0344   1
  -6   1   7 305.080 18.2145  15
  -6   1   7 286.440 18.2605  13
  -5   1   7 121.235 7.85499  11
  -5   1   7 125.211 7.89729   1
  -5   1   7 142.417 8.13886  15
  -5   1   7 124.637 7.91944  13
  -4   1   7 43.9113 2.91734   1
   3  -1  -7 209.312 12.9074   8
   3  -1  -7 214.035 12.9081   5
   2  -1  -7 192.626 11.3930   5
   2  -1  -7 179.505 11.3497   8
   1  -1  -7 7.09102 0.93051   8
   1  -1  -7 5.33563 0.99006   5
   0  -1  -7 28.7074 2.19410   8
   0  -1  -7 33.2013 2.45949   9
   0  -1  -7 32.0850 2.33615   7
   0   1   7 33.1260 2.27465   5
  -1  -1  -7 414.436 23.8160   6
  -1  -1  -7 365.874 23.7564   7
  -1  -1  -7 335.191 23.6026  10
  -1  -1  -7 424.894 23.8319   9
  -1  -1  -7 378.988 23.8170   2
   1   1   7 443.091 24.0982   5
  -2  -1  -7 63.8236 3.98885   6
  -2  -1  -7 60.0749 3.95473   2
  -2  -1  -7 64.1782 3.98766   9
  -2  -1  -7 56.3289 4.08893   7
  -2  -1  -7 49.6124 3.93295  16
  -3  -1  -7 203.083 12.5030   2
  -3  -1  -7 197.877 12.4955   6
  -3  -1  -7 202.466 12.6128   7
  -3  -1  -7 188.760 12.3112  16
  -3  -1  -7 224.056 12.5672   9
  -4  -1  -7 221.311 13.6144   4
  -4  -1  -7 226.643 13.7561   9
  -4  -1  -7 210.623 13.5485  16
  -4  -1  -7 228.816 13.8465   7
  -4  -1  -7 233.665 13.7744   2
  -5  -1  -7 48.2268 3.08878   4
  -5  -1  -7 47.3119 3.28573   2
  -5  -1  -7 43.2725 3.16623   9
  -5  -1  -7 49.8812 3.53613  11
  -5  -1  -7 44.6557 2.98949  16
  -6  -1  -7 38.8869 2.40343  11
   6   1   7 35.0291 2.32228   3
  -9   2   7 354.695 21.1502   1
  -9   2   7 348.811 21.1106  11
  -8   2   7 94.6112 6.93797  15
  -8   2   7 118.929 6.85568  11
  -8   2   7 119.466 6.91069   1
  -7   2   7 1.71339 0.52968   1
  -7   2   7 1.17746 0.63669  15
  -7   2   7 1.53278 0.50853  11
  -6   2   7 1.20498 0.76308  15
  -6   2   7 1.85241 0.54784  13
  -6   2   7 0.55640 0.54968  11
  -6   2   7 0.30982 0.51114   1
  -5   2   7 3.56693 0.91753  15
  -5   2   7 1.88671 0.59118  11
  -5   2   7 2.37799 0.52140   1
  -5   2   7 2.71314 0.70107  13
   4  -2  -7 575.864 35.1274   5
  -4   2   7 589.958 34.9693  11
   3  -2  -7 381.656 21.9085   5
  -3   2   7 339.457 21.7505  11
   2  -2  -7 1.74046 0.65804   8
   2  -2  -7 0.70430 0.55935   5
   2  -2  -7 1.28675 0.52529   7
  -2   2   7 0.28089 0.45983  11
   1  -2  -7 333.460 20.2642   5
   1  -2  -7 312.360 20.1874   8
  -1   2   7 356.012 20.2820   5
   0  -2  -7 297.153 21.1009   2
   0  -2  -7 357.612 20.9580   9
   0  -2  -7 369.248 20.9370   6
   0  -2  -7 324.078 20.8547   7
   0   2   7 378.902 20.9833   5
  -1  -2  -7 2.77440 0.48241  10
  -1  -2  -7 2.28501 0.60643   6
  -1  -2  -7 1.79535 0.59006   9
  -1  -2  -7 1.96245 0.74845   7
  -2  -2  -7 445.035 26.9331   7
  -2  -2  -7 439.107 26.7246  10
  -2  -2  -7 418.763 26.7216  16
  -2  -2  -7 472.157 26.9426   9
  -2  -2  -7 450.884 26.8739   2
  -2  -2  -7 444.223 26.8892   6
  -3  -2  -7 4.33970 1.03882   7
  -3  -2  -7 5.99972 1.09842   9
  -3  -2  -7 4.02020 0.80572   2
  -4  -2  -7 20.2503 1.77244  11
  -4  -2  -7 19.3605 1.69599   9
  -4  -2  -7 18.3651 1.49909  16
  -4  -2  -7 19.6531 1.92212   2
  -4  -2  -7 19.2055 2.08432   7
  -5  -2  -7 182.512 10.1694   2
  -5  -2  -7 155.035 10.1412   9
  -5  -2  -7 164.583 10.0419  16
  -5  -2  -7 160.167 10.1784   7
  -5  -2  -7 166.848 10.0785  11
  -9   3   7 66.7442 4.18990   1
  -9   3   7 66.6292 4.15654  11
  -8   3   7 17.1308 1.42506  11
  -8   3   7 17.6001 1.50341   1
  -7   3   7 280.793 18.6676  15
  -7   3   7 325.400 18.5231   1
  -7   3   7 309.127 18.4423  11
  -6   3   7 686.534 39.6139  11
  -6   3   7 683.373 39.8960  15
  -6   3   7 612.715 39.6098  13
  -6   3   7 658.326 39.6328   1
  -5   3   7 132.660 8.27007  15
  -5   3   7 116.539 7.64285   1
  -4   3   7 224.154 13.1005  11
  -4   3   7 207.635 13.0838   1
   3  -3  -7 219.664 15.2767   2
   3  -3  -7 283.061 15.7999   5
  -3   3   7 258.622 15.3038  11
   2  -3  -7 0.47799 0.67407   5
   2  -3  -7 0.53621 0.52017   7
  -2   3   7 -0.1066 0.53982  11
   1  -3  -7 143.191 8.33501   7
   1  -3  -7 130.000 8.27655   2
  -1   3   7 130.955 8.24074  11
   0  -3  -7 16.7394 1.52015   2
   0  -3  -7 15.5115 1.39947   6
   0  -3  -7 15.9238 1.29616  10
   0  -3  -7 14.1818 1.61395   7
   0  -3  -7 17.6323 1.43502   9
  -1  -3  -7 176.551 10.8925   6
  -1  -3  -7 180.357 10.8935   9
  -1  -3  -7 169.575 10.8911   7
  -1  -3  -7 178.061 10.7817  16
  -1  -3  -7 170.374 10.7027  10
  -1  -3  -7 184.212 10.8836   2
  -2  -3  -7 0.16977 0.61105   9
  -2  -3  -7 1.15409 0.51836  10
  -2  -3  -7 0.10141 0.53429   2
  -2  -3  -7 -0.9031 0.71378   7
  -2  -3  -7 0.92151 0.57171  16
  -3  -3  -7 16.1206 1.54390   9
  -3  -3  -7 15.1572 1.72713   2
  -3  -3  -7 18.2427 1.44416  16
  -3  -3  -7 16.9836 1.98433   7
  -4  -3  -7 30.2028 2.26554   7
  -4  -3  -7 26.8672 2.22657   9
  -4  -3  -7 29.4196 2.06554  11
  -4  -3  -7 29.4160 1.96223  16
  -5  -3  -7 54.9601 3.18738   2
  -5  -3  -7 44.2014 3.14208   9
   5   3   7 49.1287 3.07176   3
  -9   4   7 88.8261 5.36723   1
  -9   4   7 84.8989 5.33414  11
  -8   4   7 296.493 17.0347   1
  -8   4   7 306.225 17.0124  11
  -8   4   7 242.511 17.1104  15
  -7   4   7 102.684 6.25807  11
  -7   4   7 100.444 6.27545   1
  -7   4   7 98.5421 6.50920  15
  -6   4   7 2.48650 0.58191   1
  -6   4   7 2.09984 0.58863  11
  -6   4   7 2.99255 0.92035  15
  -5   4   7 637.929 39.0780   1
  -5   4   7 665.108 39.0840  11
   4  -4  -7 131.012 8.22284   2
  -4   4   7 138.152 8.25278   1
   3  -4  -7 91.5277 5.76309   2
  -3   4   7 94.1496 5.76160  11
   2  -4  -7 482.485 29.1474   2
   2  -4  -7 493.662 29.1688   7
  -2   4   7 478.800 29.1250  11
   1  -4  -7 541.663 32.7746   7
   0  -4  -7 22.5911 1.78291   2
   0  -4  -7 20.6446 1.66450   9
   0  -4  -7 20.0442 1.60915  16
   0  -4  -7 19.4821 1.66962   6
   0  -4  -7 21.4540 1.55723  10
   0  -4  -7 19.7189 1.89332   7
  -1  -4  -7 27.0110 2.14252   2
  -1  -4  -7 28.0378 1.90498  16
  -1  -4  -7 21.5728 2.25231   7
  -1  -4  -7 24.9434 1.95920   9
  -1  -4  -7 25.7084 1.86683  10
  -2  -4  -7 3.51623 0.72000   2
  -2  -4  -7 6.31243 1.00800   9
  -2  -4  -7 5.20337 0.70237  16
  -2  -4  -7 4.93537 0.87599   7
  -2  -4  -7 4.94642 0.62744  10
  -3  -4  -7 26.9385 1.99558   9
  -3  -4  -7 26.9866 2.15417   2
  -3  -4  -7 24.6231 2.13079   7
  -3  -4  -7 27.5779 1.86790  16
  -3  -4  -7 26.4015 1.91066  11
  -4  -4  -7 28.2125 2.00528  16
  -4  -4  -7 29.4172 2.08509   9
  -4  -4  -7 33.2021 2.19654   2
  -9   5   7 29.4287 1.95019   1
  -9   5   7 29.1726 1.93179  11
  -8   5   7 0.40758 0.52867  15
  -8   5   7 1.66211 0.61164  11
  -7   5   7 104.576 6.51789   1
  -7   5   7 101.054 6.74191  15
  -7   5   7 109.769 6.51910  11
   6  -5  -7 8.87553 1.07941   2
  -6   5   7 11.5576 1.88095  15
  -6   5   7 9.01943 1.21807   1
   5  -5  -7 357.773 22.6154   2
  -5   5   7 370.835 22.6364   1
  -5   5   7 400.077 22.6599  11
   4  -5  -7 286.292 17.6354   2
  -4   5   7 298.492 17.6400  11
   3  -5  -7 184.171 10.7227   7
   3  -5  -7 166.791 10.6739   2
  -3   5   7 174.597 10.6583  11
   2  -5  -7 25.0707 2.12311   7
   2  -5  -7 27.9197 2.01800   2
   1  -5  -7 151.871 9.23847   7
   1  -5  -7 160.249 9.22371   2
   1  -5  -7 148.977 9.10224  10
   1  -5  -7 136.355 9.15858   6
   0  -5  -7 17.4229 1.42423   9
   0  -5  -7 13.5070 1.69040   7
   0  -5  -7 13.4540 1.56259   2
  -1  -5  -7 1.64350 0.48493  10
  -1  -5  -7 3.23243 0.58614  16
  -1  -5  -7 2.96606 0.52017   9
  -1  -5  -7 0.20165 0.75821   7
  -2  -5  -7 -0.6708 0.51265   2
  -2  -5  -7 -0.6342 0.43711  16
  -2  -5  -7 -0.2231 0.40681   9
  -2  -5  -7 -0.3699 0.62361   7
  -3  -5  -7 0.67476 0.47919   9
  -3  -5  -7 0.61884 0.45414   2
  -9   6   7 18.1303 1.20743  11
  -9   6   7 17.1999 1.21078   1
  -8   6   7 27.9276 1.75565  11
  -8   6   7 21.0550 1.81009  15
  -8   6   7 26.3548 1.75655   1
  -7   6   7 34.0948 2.67270   1
  -7   6   7 36.0266 2.32474  11
  -7   6   7 32.2936 2.51945  15
   6  -6  -7 0.57053 0.33215   2
  -6   6   7 0.05158 0.52629  11
  -6   6   7 -0.4854 0.42507   1
  -6   6   7 0.57137 0.74631  15
   5  -6  -7 75.0373 4.83468   2
  -5   6   7 79.5704 4.84345  11
   3  -6  -7 35.1353 2.44597   2
   3  -6  -7 34.0967 2.45213   7
  -3   6   7 30.2002 2.41758  11
   2  -6  -7 603.339 36.4475   7
   1  -6  -7 72.2605 4.73482  10
   1  -6  -7 82.3561 4.94786   2
   1  -6  -7 75.9605 4.95833   7
   0  -6  -7 0.19893 0.47008  16
   0  -6  -7 0.00254 0.57839   7
   0  -6  -7 0.71294 0.36622  10
   0  -6  -7 -0.1319 0.53575   2
  -1  -6  -7 1.43294 0.45293  16
  -1  -6  -7 0.80112 0.36221  10
  -1  -6  -7 -0.0024 0.43735   2
  -1  -6  -7 0.40099 0.53806   7
  -2  -6  -7 112.755 7.20700  16
  -2  -6  -7 125.626 7.34792   2
  -8   7   7 121.137 6.62078  11
  -8   7   7 97.4855 6.67186  15
  -7   7   7 70.7700 3.99821  11
  -7   7   7 68.0958 4.20444  15
  -7   7   7 55.0488 3.99606   1
   6  -7  -7 6.87050 0.85298   2
  -6   7   7 7.63878 1.15410  15
  -6   7   7 7.91124 0.89619  11
   5  -7  -7 240.908 15.2012   2
   5  -7  -7 270.856 15.2587   7
  -5   7   7 243.483 15.1629  11
   4  -7  -7 137.850 8.58044   2
   4  -7  -7 142.261 8.61725   7
   3  -7  -7 146.975 8.90010   2
   3  -7  -7 142.980 8.92397   7
   2  -7  -7 186.641 11.7494   7
   2  -7  -7 198.870 11.7577   2
   1  -7  -7 2.09293 0.55934   2
   1  -7  -7 2.97249 0.53284  16
   1  -7  -7 2.36963 0.97794   7
   1  -7  -7 3.11419 0.44577  10
   0  -7  -7 0.78688 0.44225  16
   0  -7  -7 1.51769 0.51093  10
   0  -7  -7 0.73780 0.52803   7
  -1  -7  -7 224.955 15.4245  16
  -1  -7  -7 288.249 15.5024   2
  -7   8   7 2.59067 0.48668  15
   6  -8  -7 19.8479 1.52061   2
   6  -8  -7 25.5127 1.70799   7
  -6   8   7 21.9597 1.73365  15
   5  -8  -7 19.6447 1.54946   2
   5  -8  -7 22.3409 1.72459   7
   4  -8  -7 34.3498 2.38861   2
   4  -8  -7 35.6149 2.45450   7
   3  -8  -7 102.673 6.21134   2
   3  -8  -7 97.8328 6.21155   7
   2  -8  -7 4.99563 0.98731   7
   2  -8  -7 5.14313 1.04685   2
   1  -8  -7 3.44705 0.57972   2
   1  -8  -7 4.32138 0.66001  16
   0  -8  -7 82.7303 5.10383   2
   6  -9  -7 0.47309 0.33372   7
  -6   9   7 1.13446 0.35293  15
   5  -9  -7 5.72648 0.72921   2
   5  -9  -7 6.40601 0.84656   7
  -5   9   7 7.71590 0.80770  15
   4  -9  -7 8.14475 0.80531   2
   4  -9  -7 6.89755 0.84273   7
   3  -9  -7 18.2617 1.37229   2
   2  -9  -7 -0.3750 0.29453   2
   0 -12   8 40.6863 2.53017  12
   1 -12   8 0.18774 0.33016   4
   1 -12   8 0.74841 0.25664  12
   2 -12   8 51.4095 3.18408  12
   3 -12   8 13.2648 0.93193  12
  -2 -11   8 166.671 9.36649   3
  -2 -11   8 153.239 9.38364  15
  -2 -11   8 145.217 9.32972  12
  -1 -11   8 20.1620 1.33291   3
  -1 -11   8 17.4544 1.56330   4
  -1 -11   8 18.3484 1.30863  12
   0 -11   8 22.1312 1.50429   3
   0 -11   8 20.7089 1.49972  12
   1 -11   8 69.0604 4.44994  12
   1 -11   8 74.0275 4.44172   3
   2 -11   8 43.1464 2.70208   3
   2 -11   8 42.1305 2.74957  12
   3 -11   8 0.58549 0.34186  12
   4 -11   8 224.000 12.6785  10
   4 -11   8 198.490 12.7341  12
   5 -11   8 51.6402 3.42072  10
   5 -11   8 60.2424 3.43460  12
  -3 -10   8 40.8978 2.53364   3
  -3 -10   8 41.1167 2.57382  15
  -3 -10   8 38.5920 2.53502   9
  -3 -10   8 38.2083 2.49010  12
  -2 -10   8 33.3790 2.20712  12
  -2 -10   8 33.5765 2.24329   3
  -2 -10   8 37.4331 2.32671   4
  -2 -10   8 30.7456 2.22627   9
  -2 -10   8 33.0499 2.26189  15
  -1 -10   8 44.3712 2.78082   3
  -1 -10   8 41.5996 2.74785  12
  -1 -10   8 40.9762 2.76562   9
  -1 -10   8 41.0830 2.75239  15
  -1 -10   8 43.0353 3.10883   4
   0 -10   8 22.4023 1.56730   3
   0 -10   8 20.3169 1.54076  12
   0 -10   8 19.7869 1.51844   9
   1 -10   8 256.266 15.5167  12
   1 -10   8 256.016 15.5017   3
   2 -10   8 26.3775 1.83676  10
   2 -10   8 24.4538 1.82614  12
   2 -10   8 25.7641 1.79881   3
   3 -10   8 64.3936 4.31378   3
   3 -10   8 66.1310 4.38159  12
   3 -10   8 78.0161 4.42125  10
  -4  10  -8 113.433 7.25336   6
   4 -10   8 125.978 7.19440  10
   4 -10   8 116.149 7.26877  12
  -5  10  -8 57.9655 3.71496   6
   5 -10   8 65.5899 3.68375  10
   5 -10   8 55.3205 3.71124  12
   6 -10   8 77.9981 4.74639  12
  -5  -9   8 36.5805 2.36092   9
  -5  -9   8 38.7443 2.33260  13
  -5  -9   8 37.1971 2.37197  15
  -4  -9   8 6.14737 0.74210   9
  -4  -9   8 6.23867 0.67640   3
  -4  -9   8 6.49752 0.79187  15
  -4  -9   8 5.73085 0.61533  13
  -3  -9   8 226.632 13.5799   9
  -3  -9   8 221.366 13.3806   3
  -3  -9   8 211.295 13.3355  12
  -3  -9   8 214.208 13.2997  13
  -3  -9   8 230.125 13.4904  15
  -3  -9   8 221.639 13.3729   4
  -2  -9   8 3.10409 0.58242  15
  -2  -9   8 2.60398 0.51209  12
  -2  -9   8 2.41731 0.58512   9
  -2  -9   8 2.74469 0.58263   4
  -2  -9   8 2.81930 0.45665  13
  -2  -9   8 2.65177 0.54570   3
  -1  -9   8 114.423 7.22147  15
  -1  -9   8 114.869 7.28149   9
  -1  -9   8 114.852 7.18525  12
  -1  -9   8 121.113 7.22714   3
   0  -9   8 989.500 56.7068  12
   0  -9   8 873.400 56.6749  15
   0  -9   8 1013.25 56.7208   3
   0  -9   8 908.477 56.7451   9
   1  -9   8 38.7749 2.53516  10
   1  -9   8 40.0908 2.68800  12
   1  -9   8 36.4723 2.68972   9
   1  -9   8 41.7772 2.69917   3
   2  -9   8 1.38493 0.52077   3
   2  -9   8 1.28091 0.34853  10
   2  -9   8 1.52277 0.51542  12
  -3   9  -8 71.6680 4.61830   6
   3  -9   8 73.8932 4.48359  10
   3  -9   8 71.7074 4.58432  12
   3  -9   8 71.0264 4.55269   3
  -4   9  -8 38.1709 2.70685   6
   4  -9   8 40.7660 2.53133  10
   4  -9   8 38.3483 2.52599   3
   4  -9   8 37.4508 2.58429  12
  -5   9  -8 68.6842 4.51602   6
   5  -9   8 74.4532 4.37979  10
   5  -9   8 69.2328 4.42883  12
  -6   9  -8 237.754 14.6024   1
  -6   9  -8 234.228 14.6139   6
   6  -9   8 254.220 14.5855  12
  -5  -8   8 72.5097 4.49568  13
  -5  -8   8 74.0293 4.59097  15
  -5  -8   8 72.8879 4.59552   9
  -4  -8   8 42.9226 2.84092  13
  -4  -8   8 46.6973 2.91605   3
  -4  -8   8 46.8352 3.00120  15
  -4  -8   8 45.1038 2.94193   4
  -4  -8   8 41.5608 2.99448   9
  -4  -8   8 43.7184 2.83036  12
  -3  -8   8 29.0518 2.01555  13
  -3  -8   8 27.3818 2.18333   1
  -3  -8   8 28.7880 2.23149   9
  -3  -8   8 30.2783 2.10520   3
  -3  -8   8 29.7671 2.04682  12
  -3  -8   8 30.7377 2.19129  15
  -3  -8   8 31.5823 2.23170   4
  -2  -8   8 80.1248 4.96155   9
  -2  -8   8 73.1578 4.51617   3
  -2  -8   8 74.3555 4.45008  13
  -2  -8   8 60.3869 4.62154  12
  -2  -8   8 64.1837 4.93527  15
  -2  -8   8 69.4341 4.78735   4
  -1  -8   8 303.091 18.9266  15
  -1  -8   8 306.618 18.8060  13
  -1  -8   8 302.840 18.9731   1
  -1  -8   8 323.117 18.9271   3
  -1  -8   8 322.229 18.9050  12
  -1  -8   8 316.258 19.0291   9
   0  -8   8 331.507 19.3936   3
   0  -8   8 310.207 19.4653   9
   0  -8   8 318.575 19.3729  12
   1  -8   8 114.881 7.08347   3
   1  -8   8 108.090 7.15907   9
   1  -8   8 114.212 7.08027  12
   1  -8   8 118.148 6.95624  10
  -2   8  -8 23.1240 1.84573   6
   2  -8   8 20.3769 1.79243   9
   2  -8   8 22.8602 1.63738  10
   2  -8   8 23.0394 1.73543  12
   2  -8   8 23.6999 1.75388   3
  -3   8  -8 2.61329 0.71006   6
   3  -8   8 4.23215 0.77945  12
   3  -8   8 3.30320 0.70675   3
  -4   8  -8 7.84448 1.18961   6
   4  -8   8 6.55606 0.99208  10
   4  -8   8 6.59226 0.81708   3
   4  -8   8 6.01481 0.89857  12
  -5   8  -8 57.9446 3.87653   6
   5  -8   8 64.4599 3.69099  10
   5  -8   8 58.1523 3.71582  12
   5  -8   8 51.5656 3.60951   3
  -6   8  -8 24.0582 2.17290   1
  -6   8  -8 23.7559 1.85221   6
   6  -8   8 24.3419 1.69333  12
   6  -8   8 26.5512 1.69854  10
  -6  -7   8 -0.0655 0.38777   9
  -6  -7   8 1.24516 0.44627  15
  -6  -7   8 0.72056 0.36830  13
  -5  -7   8 159.214 10.1452  15
  -5  -7   8 170.972 10.0530  13
  -5  -7   8 145.928 10.0246   1
  -5  -7   8 169.319 10.2047   9
  -5  -7   8 183.578 10.2006   3
  -4  -7   8 280.169 17.0406   9
  -4  -7   8 258.227 16.8933   1
  -4  -7   8 280.325 16.9011   3
  -4  -7   8 286.292 16.9960  15
  -4  -7   8 288.604 16.8675  13
  -4  -7   8 281.674 16.8369  12
  -3  -7   8 31.5055 2.30987  12
  -3  -7   8 38.1950 2.60329   4
  -3  -7   8 34.8987 2.48113  15
  -3  -7   8 33.6868 2.32208  13
  -3  -7   8 33.2693 2.39050   3
  -3  -7   8 33.5153 2.55955   9
  -3  -7   8 33.1380 2.52214   1
  -2  -7   8 56.5563 4.05485   1
  -2  -7   8 61.1508 3.99720  15
  -2  -7   8 60.7879 3.94616   3
  -2  -7   8 63.7315 4.12334   9
  -2  -7   8 60.5654 3.86398  13
  -2  -7   8 61.3838 3.90079  12
  -1  -7   8 27.0930 2.09110  15
  -1  -7   8 28.7383 2.33242   1
  -1  -7   8 29.2515 2.10204   3
  -1  -7   8 30.3699 2.06407  12
  -1  -7   8 28.2221 1.98298  13
  -1  -7   8 29.5767 2.26447   9
   0  -7   8 34.6450 2.67510   1
   0  -7   8 35.7893 2.45359   3
   0  -7   8 34.4748 2.40089  12
   1  -7   8 200.987 12.4491  12
   1  -7   8 207.269 12.4677   3
  -2   7  -8 94.6983 6.04410   6
   2  -7   8 92.1273 5.76557  10
   2  -7   8 94.1030 5.88006   3
   2  -7   8 93.1532 5.86540  12
  -3   7  -8 394.007 23.2824   6
  -3   7  -8 338.647 23.2670   7
   3  -7   8 392.794 23.0954   3
   3  -7   8 404.840 23.1096  12
  -4   7  -8 101.792 6.61246   7
  -4   7  -8 101.026 6.65388   6
   4  -7   8 106.182 6.45391  12
   4  -7   8 103.312 6.41718   3
  -5   7  -8 3.41406 0.76487   4
  -5   7  -8 3.34294 0.82781   7
  -5   7  -8 3.61654 0.78449   6
  -5   7  -8 5.28320 1.00144  11
   5  -7   8 5.94718 0.83193  12
   5  -7   8 5.10072 0.76238   3
  -6   7  -8 130.225 8.45059   1
  -6   7  -8 138.225 8.42248  11
  -6   7  -8 135.149 8.56375   6
   6  -7   8 149.870 8.45438  12
  -7   7  -8 9.32203 0.84192   6
   7  -7   8 9.01526 0.71754  12
   7  -7   8 10.1850 0.75836  10
  -7  -6   8 104.873 6.52347  15
  -7  -6   8 108.408 6.53932   9
  -6  -6   8 108.974 6.69700   9
  -6  -6   8 105.415 6.59866  15
  -6  -6   8 103.155 6.48544  13
  -5  -6   8 0.57998 0.43974   3
  -5  -6   8 0.51550 0.55251  15
  -5  -6   8 0.15748 0.48653   1
  -5  -6   8 1.07161 0.58046   9
  -5  -6   8 1.09651 0.46540  13
  -4  -6   8 403.287 24.4568  13
  -4  -6   8 424.613 24.6780   9
  -4  -6   8 368.768 24.4719   1
  -4  -6   8 419.406 24.5891  15
  -4  -6   8 414.965 24.4965   3
  -3  -6   8 133.357 8.33131  15
  -3  -6   8 122.255 8.27964   1
  -3  -6   8 138.402 8.44990   9
  -3  -6   8 133.665 8.21728  12
  -3  -6   8 133.149 8.26395   3
  -3  -6   8 141.420 8.24045  13
  -2  -6   8 526.002 30.4591  13
  -2  -6   8 477.059 30.5119  15
  -2  -6   8 524.081 31.0128   9
  -2  -6   8 498.681 30.4496  12
  -1  -6   8 7.38004 1.24037   1
  -1  -6   8 7.33280 0.81075  13
  -1  -6   8 5.67128 0.90726  15
  -1  -6   8 6.29474 0.90204   3
  -1  -6   8 6.74927 0.81979  12
   0   6  -8 57.6965 3.86327   6
   0  -6   8 58.8394 3.75411  12
   0  -6   8 58.6114 3.95519   1
   0  -6   8 57.6019 3.77801   3
  -1   6  -8 511.718 29.3393   6
   1  -6   8 476.178 29.1766   3
   1  -6   8 465.505 29.2527   1
   1  -6   8 485.788 29.1674  12
   2  -6   8 330.369 19.3440   3
   2  -6   8 306.335 19.2870  12
  -3   6  -8 40.2964 3.05766  11
  -3   6  -8 40.0647 3.10055   4
  -3   6  -8 48.5873 3.30991   6
  -3   6  -8 41.8434 3.19924   7
   3  -6   8 45.7372 2.97520   3
   3  -6   8 49.7400 3.00118  12
  -4   6  -8 170.924 10.7550   4
  -4   6  -8 172.266 10.9115   7
  -4   6  -8 177.564 10.8811   6
   4  -6   8 174.160 10.6299  12
   4  -6   8 172.272 10.6156   3
  -5   6  -8 664.479 38.5577   7
  -5   6  -8 642.563 38.4095  11
  -5   6  -8 633.887 38.4129   4
  -5   6  -8 610.807 38.5600   6
   5  -6   8 644.263 38.3955  12
   5  -6   8 640.392 38.3553   3
  -6   6  -8 42.2879 2.67026  11
  -6   6  -8 37.7572 2.76206   6
  -6   6  -8 36.7217 2.69166   4
  -6   6  -8 43.0153 2.95728   7
   6  -6   8 39.5636 2.57647  12
   6  -6   8 34.7635 2.62815   3
  -7   6  -8 21.0350 1.55656   6
   7  -6   8 23.6915 1.48473  12
  -7  -5   8 7.07398 0.76318  13
  -7  -5   8 7.47101 0.90293   9
  -7  -5   8 8.19327 0.88173  15
  -6  -5   8 17.8876 1.57101   9
  -6  -5   8 17.5578 1.49567  15
  -6  -5   8 17.3428 1.38870  13
  -5  -5   8 62.4109 4.48608   1
  -5  -5   8 68.9091 4.45643  15
  -5  -5   8 67.1460 4.34310  13
  -5  -5   8 72.6040 4.60110   3
  -5  -5   8 70.5590 4.55964   9
  -4  -5   8 136.183 8.22054  13
  -4  -5   8 131.674 8.22563   3
  -4  -5   8 142.212 8.45307   9
  -4  -5   8 117.859 8.21516   1
  -4  -5   8 138.922 8.34554  15
  -3  -5   8 193.200 12.4001   1
  -3  -5   8 216.478 12.5910   9
  -3  -5   8 206.381 12.4299  15
  -3  -5   8 193.286 12.3369   3
  -3  -5   8 202.679 12.3223  13
  -2  -5   8 398.011 23.2771  15
  -2  -5   8 396.259 23.1956  12
  -2  -5   8 393.056 23.1796  13
  -2  -5   8 361.408 23.1857   3
  -2  -5   8 374.307 23.2148   1
   1   5  -8 1377.74 80.9669   6
  -1  -5   8 1327.04 80.8697   3
  -1  -5   8 1303.86 80.8856   1
  -1  -5   8 1411.31 80.8552  13
  -1  -5   8 1337.07 80.9075  15
   0   5  -8 269.962 15.1924   5
   0   5  -8 221.093 15.6907   6
   0  -5   8 243.725 15.1011  13
   0  -5   8 258.536 15.1313  12
   0  -5   8 247.549 15.1467   3
   0  -5   8 255.131 15.2265   1
  -1   5  -8 2.88069 0.62176   5
  -1   5  -8 2.25780 0.70564   6
   1  -5   8 2.02396 0.51895  12
   1  -5   8 2.15060 0.70593   1
   1  -5   8 3.14348 0.65252   3
  -2   5  -8 337.820 18.2449   6
  -2   5  -8 257.670 18.0509   7
  -2   5  -8 266.879 17.9823   4
   2  -5   8 309.418 17.9829   3
   2  -5   8 315.347 17.9840  12
  -3   5  -8 185.296 11.8304   4
  -3   5  -8 206.477 12.0809   6
  -3   5  -8 174.848 11.9432   7
   3  -5   8 198.575 11.7886  12
   3  -5   8 200.695 11.7940   3
  -4   5  -8 67.8524 4.50603   4
  -4   5  -8 67.4563 4.49102  11
  -4   5  -8 68.4862 4.66987   6
  -4   5  -8 63.2386 4.71682   7
   4  -5   8 67.3407 4.32768   3
   4  -5   8 70.9962 4.34846  12
  -5   5  -8 42.1128 3.17600   6
  -5   5  -8 42.0102 3.42891   7
  -5   5  -8 45.1603 3.11544  11
  -5   5  -8 42.1413 3.11818   4
   5  -5   8 41.8580 2.84825   3
   5  -5   8 45.3282 2.91086  12
  -6   5  -8 21.3137 1.71255  11
  -6   5  -8 19.2931 1.68994   6
  -6   5  -8 21.6728 2.53054   7
  -6   5  -8 17.7298 1.63091   4
   6  -5   8 18.1298 1.37839   3
   6  -5   8 20.0667 1.65674  12
  -7   5  -8 11.9942 1.04327   6
  -7   5  -8 15.8550 1.14348  11
   7  -5   8 13.6081 0.99964  12
  -8  -4   8 44.2929 2.51010  13
  -8  -4   8 42.3240 2.57174  15
  -8  -4   8 33.7327 2.54537   9
  -7  -4   8 209.535 12.9924  15
  -7  -4   8 187.882 12.8842   1
  -7  -4   8 221.705 12.9101  13
  -7  -4   8 235.378 13.1346   9
  -6  -4   8 180.395 10.6243   9
  -6  -4   8 174.976 10.4439  13
  -6  -4   8 158.937 10.4336   1
  -6  -4   8 170.319 10.5558  15
  -5  -4   8 330.015 19.2865  13
  -5  -4   8 329.522 19.4758   9
  -5  -4   8 294.509 19.2545   1
  -5  -4   8 333.403 19.4140  15
  -5  -4   8 307.040 19.2409   3
  -4  -4   8 9.52528 1.17112  15
  -4  -4   8 9.42004 1.75494   1
  -4  -4   8 7.48212 1.27986   9
  -4  -4   8 8.21250 1.04681  13
  -4  -4   8 9.17924 0.96274   3
  -3  -4   8 58.7386 4.02644   1
  -3  -4   8 65.1161 4.24376   9
  -3  -4   8 65.9030 4.11049  15
  -3  -4   8 63.7412 4.01131  13
  -3  -4   8 58.6461 3.99391   3
   2   4  -8 1366.71 82.1442   5
  -2  -4   8 1469.86 82.1652  13
  -2  -4   8 1332.89 82.1708   3
  -2  -4   8 1301.79 82.1498   1
  -2  -4   8 1394.93 82.2404  15
   1   4  -8 4.11087 0.77934   5
  -1  -4   8 4.93218 0.75378  13
  -1  -4   8 4.96753 0.79544   3
   0   4  -8 173.678 10.3120   6
   0   4  -8 171.543 10.1683   8
   0   4  -8 164.110 10.1912   5
   0  -4   8 150.422 10.1537  12
   0  -4   8 170.666 10.2939   3
   0  -4   8 167.825 10.6312   1
  -1   4  -8 773.560 44.5856   5
   1  -4   8 723.291 44.6641   1
   1  -4   8 737.211 44.6731   5
   1  -4   8 736.258 44.5071   3
   1  -4   8 740.399 44.4905  12
  -2   4  -8 8.60962 1.42381   7
  -2   4  -8 8.76511 1.31153   6
   2  -4   8 7.37893 0.91807   3
   2  -4   8 5.40637 1.05285   5
  -3   4  -8 11.2388 1.57165   6
  -3   4  -8 8.04501 1.71539   7
   3  -4   8 10.2961 1.07594   3
  -4   4  -8 89.8773 6.18965   7
  -4   4  -8 94.8555 6.11729   6
  -4   4  -8 92.9341 5.99279  11
  -4   4  -8 90.6799 5.90347   4
   4  -4   8 94.0025 5.80167   3
  -5   4  -8 162.481 9.98127   4
  -5   4  -8 163.024 10.2209   7
  -5   4  -8 164.853 10.0671  11
  -5   4  -8 155.678 10.1271   6
   5  -4   8 164.331 9.91114   3
  -6   4  -8 2.84247 0.63070   6
  -6   4  -8 3.63574 1.17207   7
  -6   4  -8 4.44467 0.83869  11
   6  -4   8 4.31318 0.65915  12
   6  -4   8 4.58460 0.61085   3
  -7   4  -8 90.3620 5.67496  11
  -7   4  -8 102.478 5.78683   7
   7  -4   8 85.0865 5.62909  12
  -8  -3   8 46.3740 2.99082  15
  -8  -3   8 42.2597 2.91809   9
  -8  -3   8 49.4265 2.91554  13
  -8  -3   8 47.5869 3.08542   1
  -7  -3   8 1.34878 0.47878  13
  -7  -3   8 1.23384 0.55178  15
  -7  -3   8 0.64775 0.51404   9
  -7  -3   8 1.31444 0.50052   1
  -6  -3   8 594.738 35.5781   9
  -6  -3   8 592.593 35.4301  13
  -6  -3   8 622.066 35.5869  15
  -6  -3   8 549.704 35.3990   1
  -5  -3   8 147.372 8.79186  13
  -5  -3   8 144.344 8.96430   9
  -5  -3   8 129.681 8.74588   1
  -5  -3   8 149.195 8.91884  15
  -4  -3   8 97.6324 5.75887  15
  -4  -3   8 92.4754 5.83120   9
  -4  -3   8 84.7445 5.58702   3
  -4  -3   8 81.7098 5.59648   1
  -4  -3   8 91.7466 5.63466  13
   3   3  -8 228.242 13.7607   5
  -3  -3   8 243.277 13.8186  15
  -3  -3   8 235.148 13.7196  13
  -3  -3   8 211.746 13.6915   3
  -3  -3   8 210.327 13.6841   1
   2   3  -8 104.558 6.35343   5
  -2  -3   8 102.342 6.22628  13
  -2  -3   8 101.245 6.34447   3
  -2  -3   8 92.3302 6.22962   1
   1   3  -8 289.944 16.4246   5
   1   3  -8 285.475 16.4246   8
  -1  -3   8 264.913 16.4424   1
  -1  -3   8 243.459 16.3985   3
   0   3  -8 88.5051 5.58881   6
   0   3  -8 86.6859 5.42644   8
   0   3  -8 86.2271 5.48329   5
  -1   3  -8 28.7629 2.12896   6
  -1   3  -8 24.8368 1.93502   5
  -1   3  -8 23.5340 2.09811   7
   1  -3   8 23.8509 1.92805   1
   1  -3   8 27.1981 1.83409   3
   1  -3   8 24.9320 1.87710   5
  -2   3  -8 0.95308 0.66728   6
  -2   3  -8 0.09610 0.49046   2
  -2   3  -8 0.85315 0.67353   7
   2  -3   8 0.03370 0.40482   3
  -3   3  -8 1.07479 0.66354   6
  -3   3  -8 2.14321 0.81883   7
  -4   3  -8 18.1504 1.77335   4
  -4   3  -8 17.0398 1.81321   6
  -4   3  -8 14.2934 2.28647   7
   4  -3   8 15.9039 1.40039   3
  -5   3  -8 14.0612 1.56138   6
  -5   3  -8 12.9313 2.14452   7
  -5   3  -8 12.6061 1.49853   4
  -5   3  -8 15.2200 1.76268  11
   5  -3   8 15.1662 1.25325   3
  -6   3  -8 59.3483 4.37555   6
  -6   3  -8 75.7713 4.67867   7
  -6   3  -8 68.1810 4.35969   4
  -6   3  -8 72.8212 4.50208  11
   6  -3   8 70.6483 4.29989   3
  -7   3  -8 1.91940 0.51141   7
  -7   3  -8 1.80738 0.46023  11
   7  -3   8 1.69911 0.31385  12
  -8  -2   8 33.2755 2.23228   1
  -8  -2   8 32.5136 2.26168  15
  -8  -2   8 33.3037 2.14733  13
  -7  -2   8 357.293 21.5114   9
  -7  -2   8 368.064 21.5738  15
  -7  -2   8 356.408 21.4290  13
  -7  -2   8 341.014 21.4227   1
  -6  -2   8 2.68901 0.67660   9
  -6  -2   8 2.19797 0.57089  13
  -6  -2   8 2.25910 0.66513  15
  -6  -2   8 1.78687 0.51336  11
  -6  -2   8 2.75413 0.57768   1
  -5  -2   8 277.520 17.8832   1
  -5  -2   8 298.095 18.0344  15
  -5  -2   8 328.855 18.4165   9
  -5  -2   8 280.294 17.9050  13
  -4  -2   8 183.407 11.8431   1
  -4  -2   8 202.063 12.0770   9
  -4  -2   8 164.628 11.8421  11
  -4  -2   8 203.372 11.9026  13
  -4  -2   8 221.929 12.0448  15
  -3  -2   8 0.16131 0.58393  15
  -3  -2   8 -0.0877 0.55732  13
   2   2  -8 327.546 19.8629   8
   2   2  -8 330.693 19.8354   5
  -2  -2   8 327.209 19.9555   1
   1   2  -8 1.29635 0.48124   5
   1   2  -8 1.30732 0.60038   6
   0   2  -8 174.056 10.1884   6
   0   2  -8 173.426 10.1263   5
   0   2  -8 161.422 10.0404   8
   0  -2   8 156.978 10.0298   3
   0  -2   8 157.808 10.0641   5
  -1   2  -8 47.2418 3.28856   5
  -1   2  -8 44.4584 3.96717   7
  -1   2  -8 51.6848 3.36865   6
   1  -2   8 47.9608 3.10778   3
  -2   2  -8 86.1280 5.88517   2
  -2   2  -8 100.144 6.05106   6
  -2   2  -8 90.3199 6.04329   7
   2  -2   8 93.6436 5.75898   3
  -3   2  -8 3.48745 0.69225   2
  -3   2  -8 1.98035 0.74633   9
  -3   2  -8 3.20602 0.88347   6
  -3   2  -8 2.94034 1.00779   7
   3  -2   8 2.88573 0.54782   3
  -4   2  -8 69.7665 4.92299   7
  -4   2  -8 71.4670 4.69796   9
  -4   2  -8 69.6080 4.72698   2
  -4   2  -8 66.9756 4.69627   6
   4  -2   8 72.2736 4.45611   3
  -5   2  -8 79.3788 5.23939   7
  -5   2  -8 77.5517 5.02951  11
  -5   2  -8 71.2151 4.93462   6
   5  -2   8 77.6698 4.80088   3
  -6   2  -8 21.7846 1.81285  11
  -6   2  -8 19.8033 1.53977   4
  -6   2  -8 22.3630 2.05095   7
   6  -2   8 21.7737 1.48552   3
  -9  -1   8 6.26457 0.71663   1
  -9  -1   8 5.31462 0.68910  15
  -8  -1   8 261.235 15.5668   1
  -8  -1   8 280.231 15.7767  15
  -8  -1   8 251.071 15.5006  13
  -8  -1   8 238.291 15.4533  11
  -7  -1   8 14.0594 1.24803  11
  -7  -1   8 14.6714 1.27023  13
  -7  -1   8 15.7433 1.44770  15
  -7  -1   8 16.4185 1.43220   1
  -6  -1   8 313.056 18.2873  15
  -6  -1   8 304.917 18.2339   9
  -6  -1   8 296.154 18.1292  13
  -6  -1   8 304.683 18.1180   1
  -6  -1   8 278.596 18.0278  11
  -5  -1   8 46.9403 3.29325  11
  -5  -1   8 52.0127 3.43886  13
  -5  -1   8 52.3702 3.54559   9
  -5  -1   8 55.6683 3.67825   1
  -4  -1   8 114.678 7.14250  13
  -4  -1   8 102.758 7.02224  11
  -4  -1   8 110.115 7.08864   1
  -4  -1   8 132.863 7.29465  15
   3   1  -8 51.3191 3.75145   5
  -3  -1   8 60.9802 3.53918   1
  -3  -1   8 50.2789 3.42780  11
   2   1  -8 90.2960 5.67521   5
   2   1  -8 90.1512 5.68093   8
   1   1  -8 147.085 8.47213   5
   1   1  -8 126.163 8.59885   8
   0   1  -8 134.553 8.08345   8
   0   1  -8 142.218 8.17040   5
   0   1  -8 117.549 8.11137   7
   0   1  -8 135.903 8.38300   6
   0  -1   8 128.782 8.22347   5
   0  -1   8 128.703 8.02323   3
  -1   1  -8 455.822 30.7077   2
  -1   1  -8 499.404 30.7873   7
  -1   1  -8 562.127 30.8614   6
   1  -1   8 525.488 30.6646   3
  -2   1  -8 2.16863 0.75672   6
  -2   1  -8 2.28421 0.89853   7
  -2   1  -8 2.66845 0.79309   9
  -3   1  -8 347.418 19.8778   9
  -3   1  -8 316.599 19.8394   6
  -3   1  -8 312.364 19.7639   2
  -3   1  -8 324.986 19.8859   7
  -4   1  -8 262.508 16.2859   4
  -4   1  -8 268.293 16.4767   9
  -4   1  -8 284.343 16.7302   7
  -4   1  -8 267.194 16.4156   2
  -4   1  -8 251.101 16.4170   6
   4  -1   8 279.745 16.2926   3
  -5   1  -8 4.82816 0.93238  11
  -5   1  -8 3.83551 0.96630   7
  -5   1  -8 4.78684 1.01306   4
  -5   1  -8 3.44365 0.61838   6
   5  -1   8 5.68136 0.75203   3
  -6   1  -8 194.555 11.6667  11
  -6   1  -8 203.095 11.7471   7
   6  -1   8 179.362 11.5926   3
  -9   0   8 17.4674 1.21859   1
  -9   0   8 12.5198 1.08776  15
  -8   0   8 104.140 6.77654  15
  -8   0   8 118.905 6.71163   1
  -8   0   8 101.943 6.60141  13
  -7   0   8 39.9744 2.64305  11
  -7   0   8 38.3619 2.82830  15
  -7   0   8 41.2879 2.67450  13
  -6   0   8 0.52023 0.48140  11
  -6   0   8 1.11953 0.49799  13
  -6   0   8 -0.0051 0.49613   1
  -6   0   8 0.65130 0.60433  15
  -5   0   8 287.504 16.2719   1
  -5   0   8 251.690 16.1594  11
  -5   0   8 253.552 16.2471  13
  -5   0   8 252.878 16.4248   9
  -5   0   8 293.217 16.4347  15
  -4   0   8 1.00533 0.47992   1
  -4   0   8 1.40038 0.48829  11
  -4   0   8 0.47533 0.59823  15
   3   0  -8 830.793 47.6321   5
  -3   0   8 755.989 47.5109   1
   2   0  -8 1.89300 0.93413   8
   2   0  -8 1.13198 0.52138   5
  -2   0   8 2.31407 0.51047  11
   1   0  -8 167.478 10.2617   7
   1   0  -8 184.331 10.3537   5
   1   0  -8 173.577 10.2781   8
  -1   0   8 145.433 10.2629  11
   0   0  -8 493.053 31.6511   7
   0   0  -8 526.555 31.7210   5
   0   0  -8 550.835 31.7109   6
   0   0  -8 492.003 31.6123   8
   0   0   8 568.318 31.6297   3
  -1   0  -8 0.93911 0.70568   7
  -1   0  -8 0.85000 0.66589   9
  -1   0  -8 0.71947 0.61312   6
  -1   0  -8 1.88290 0.51166   2
   1   0   8 1.05949 0.88401   5
  -2   0  -8 140.789 9.02042   6
  -2   0  -8 132.778 9.03260   7
  -2   0  -8 156.405 9.07519   9
  -2   0  -8 145.926 9.08702   2
  -3   0  -8 31.2069 2.50036   6
  -3   0  -8 33.5526 2.52562   9
  -3   0  -8 33.4527 2.87107   7
  -3   0  -8 31.7109 2.60313   2
  -4   0  -8 34.5897 2.87323   7
  -4   0  -8 32.6210 2.50366   9
  -4   0  -8 33.2673 2.66937   2
  -4   0  -8 31.6509 2.38090   6
  -5   0  -8 344.398 20.3958   2
  -5   0  -8 338.337 20.3729  11
  -5   0  -8 352.921 20.4562   7
   5   0   8 313.445 20.2722   3
  -6   0  -8 63.4276 3.73402   7
  -6   0  -8 54.3153 3.44230  11
   6   0   8 48.4874 3.37994   3
  -9   1   8 59.5552 3.80006   1
  -9   1   8 62.0915 3.77762  11
  -8   1   8 18.8203 1.52282   1
  -8   1   8 18.0697 1.44623  11
  -7   1   8 5.15740 0.97754  11
  -7   1   8 5.37431 0.79963  13
  -7   1   8 4.18088 0.80205  15
  -6   1   8 29.4140 2.10457   1
  -6   1   8 27.0352 2.00181  11
  -6   1   8 27.1446 2.20148  15
  -6   1   8 26.7903 2.01301  13
  -5   1   8 78.9367 4.66017  13
  -5   1   8 65.2744 4.82967  11
  -4   1   8 1031.09 56.6845  15
  -4   1   8 897.927 56.4353   1
  -4   1   8 899.767 56.4215  11
   3  -1  -8 141.620 8.55422   5
   3  -1  -8 123.275 8.40128   7
  -3   1   8 149.527 8.58779  15
  -3   1   8 131.728 8.34715  11
  -3   1   8 137.332 8.45012   1
   2  -1  -8 77.9263 4.91481   5
   2  -1  -8 61.7386 4.36639   7
  -2   1   8 63.0848 4.20331  11
   1  -1  -8 101.962 6.19663   5
   1  -1  -8 93.6148 6.00534   7
  -1   1   8 93.0666 5.89340   3
  -1   1   8 93.9515 5.92731  11
   0  -1  -8 128.821 7.68812   6
   0  -1  -8 123.499 7.68499   7
   0  -1  -8 128.528 7.75546   9
   0  -1  -8 111.364 7.59704   2
  -1  -1  -8 21.1966 1.81193   6
  -1  -1  -8 22.3924 1.98517   9
  -1  -1  -8 21.4792 1.85174   2
  -2  -1  -8 -0.1488 0.53554   2
  -2  -1  -8 1.56980 0.61838   6
  -2  -1  -8 0.05555 0.61967   9
  -2  -1  -8 -0.1163 0.76025   7
  -3  -1  -8 19.2226 1.66542   6
  -3  -1  -8 18.8760 1.96502   9
  -3  -1  -8 16.9670 2.08350   2
  -4  -1  -8 11.2634 1.31507   9
  -4  -1  -8 10.3811 1.79849   7
  -4  -1  -8 11.3485 1.43205  11
  -4  -1  -8 11.5146 1.56596   2
  -5  -1  -8 7.32381 1.03960  11
  -5  -1  -8 6.50300 1.12149   2
  -5  -1  -8 5.38763 1.26949   7
   5   1   8 6.57845 0.72409   3
  -9   2   8 13.4520 1.11796  11
  -9   2   8 14.9102 1.20003   1
  -8   2   8 181.387 13.0609  15
  -8   2   8 230.919 13.0007   1
  -8   2   8 229.534 12.9583  11
  -7   2   8 5.37366 1.08445  15
  -7   2   8 4.94685 0.70339  13
  -7   2   8 6.75650 0.97618  11
  -7   2   8 5.83362 1.04797   1
  -6   2   8 18.2147 1.57342   1
  -6   2   8 19.6636 1.76717  15
  -6   2   8 15.5243 1.50645  13
  -6   2   8 17.3331 1.53997  11
  -5   2   8 470.201 29.0112   1
  -5   2   8 483.741 28.9985  11
  -5   2   8 493.958 29.2637  15
  -4   2   8 39.3385 2.70406  11
  -4   2   8 42.7369 2.96697  15
  -4   2   8 38.7148 2.69209   1
   3  -2  -8 177.663 10.1138   7
  -3   2   8 145.232 10.2197   1
  -3   2   8 173.459 10.0836  11
   2  -2  -8 262.605 15.7608   7
  -2   2   8 257.486 15.7161  11
   1  -2  -8 72.4581 4.69447   2
   1  -2  -8 75.4969 4.77486   7
   0  -2  -8 0.60263 0.43896   2
   0  -2  -8 0.56619 0.58474   9
   0  -2  -8 0.27294 0.51293   6
  -1  -2  -8 9.45250 1.12465   6
  -1  -2  -8 7.95294 1.17951   9
  -1  -2  -8 7.80746 1.56161   7
  -1  -2  -8 6.83012 1.25522   2
  -2  -2  -8 2.82471 0.69804   2
  -2  -2  -8 2.95425 0.76329   9
  -2  -2  -8 2.01078 0.80970   7
  -2  -2  -8 4.16863 0.88292   6
  -3  -2  -8 73.8916 4.99163   9
  -3  -2  -8 77.4136 5.14750   7
  -3  -2  -8 79.2657 5.03400   2
  -4  -2  -8 207.370 12.6976  11
  -4  -2  -8 206.824 12.7731   7
  -4  -2  -8 223.023 12.7622   2
  -4  -2  -8 199.438 12.7618   9
   5   2   8 0.42758 0.28248   3
  -9   3   8 601.853 35.5720   1
  -9   3   8 586.257 35.5436  11
  -8   3   8 203.909 13.7641  15
  -8   3   8 234.103 13.5979  11
  -8   3   8 236.309 13.6283   1
  -7   3   8 17.0850 1.39259   1
  -7   3   8 11.8215 1.45483  15
  -7   3   8 13.8288 1.32526  11
  -6   3   8 10.8100 1.44984  15
  -6   3   8 13.6671 1.30827  11
  -6   3   8 9.28747 1.20192  13
  -6   3   8 14.4493 1.32543   1
  -5   3   8 12.5788 1.25547   1
  -5   3   8 12.4643 1.53490  15
  -5   3   8 11.2228 1.26593  11
  -4   3   8 315.959 18.8744  11
  -4   3   8 309.520 18.9107   1
   3  -3  -8 22.2912 1.85717   2
   2  -3  -8 178.812 10.8946   2
   1  -3  -8 172.135 11.2857   7
   1  -3  -8 196.813 11.6394   2
   0  -3  -8 292.876 17.0418   7
   0  -3  -8 276.561 16.9942   6
   0  -3  -8 284.198 16.9759   2
   0  -3  -8 264.938 17.0300   9
  -1  -3  -8 142.725 8.67934   2
  -1  -3  -8 141.522 8.75483   7
  -1  -3  -8 133.273 8.66295   6
  -1  -3  -8 140.640 8.71575   9
  -2  -3  -8 75.9203 5.14695   7
  -2  -3  -8 75.3158 4.87302  16
  -2  -3  -8 82.5560 5.07384   2
  -2  -3  -8 77.5750 5.05074   9
  -3  -3  -8 84.5028 5.58284   9
  -3  -3  -8 91.3903 5.60945   2
  -4  -3  -8 52.2273 3.33619   7
  -4  -3  -8 54.8071 3.39040   2
   4   3   8 49.0924 3.24558   3
  -9   4   8 93.2570 5.77387   1
  -9   4   8 90.2327 5.60369  11
  -8   4   8 124.696 8.98759  15
  -8   4   8 166.984 8.94918   1
  -7   4   8 101.629 6.15393   1
  -7   4   8 99.1864 6.14402  11
  -7   4   8 96.0359 6.36655  15
  -6   4   8 801.493 49.2149   1
  -6   4   8 837.311 49.7686  15
  -6   4   8 826.283 49.4355  11
  -5   4   8 55.3093 3.45613  11
  -5   4   8 47.3044 3.41156   1
  -5   4   8 55.9977 3.76634  15
   4  -4  -8 198.289 12.9925   2
  -4   4   8 230.272 13.0053  11
   3  -4  -8 28.2806 2.07463   7
   3  -4  -8 23.1218 1.88133   2
  -3   4   8 27.0217 1.94439  11
   2  -4  -8 2.89915 0.52314   2
   1  -4  -8 7.97610 1.07248   6
   1  -4  -8 6.87221 1.19709   2
   1  -4  -8 8.36068 1.39843   7
   0  -4  -8 49.1420 3.69161   6
   0  -4  -8 53.0731 3.71407   7
   0  -4  -8 53.1721 3.57087  10
   0  -4  -8 59.6276 3.70532   2
  -1  -4  -8 31.6960 2.38459   9
  -1  -4  -8 31.2729 2.66789   7
  -1  -4  -8 34.9695 2.49742   2
  -1  -4  -8 35.3909 2.30075  16
  -2  -4  -8 6.91463 1.59123   7
  -2  -4  -8 7.32104 0.95324  16
  -2  -4  -8 7.95818 1.31488   2
  -3  -4  -8 2.95159 0.56785   2
  -3  -4  -8 5.14356 1.11808   7
  -9   5   8 1.37978 0.31841   1
  -8   5   8 101.407 5.71789  11
  -8   5   8 79.6710 5.79906  15
  -8   5   8 97.6164 5.71108   1
  -7   5   8 89.6560 5.23911  11
  -7   5   8 78.2315 5.42424  15
  -6   5   8 1.83251 0.65551  11
  -6   5   8 1.08346 0.43084   1
  -6   5   8 1.54998 0.74796  15
   5  -5  -8 394.577 26.9460   2
  -5   5   8 493.463 27.2951  15
  -5   5   8 459.689 26.9733  11
   4  -5  -8 90.0436 5.70431   7
  -4   5   8 90.2085 5.66466  11
   3  -5  -8 55.7073 3.54307   7
   3  -5  -8 52.1346 3.49643   2
  -3   5   8 48.1823 3.37668  11
   2  -5  -8 26.1083 2.15489   7
   1  -5  -8 18.6563 1.79695   7
   1  -5  -8 18.4025 1.64871   2
   1  -5  -8 14.3297 1.40389   6
   0  -5  -8 2.90606 0.63297   2
   0  -5  -8 3.33728 0.80405   7
  -1  -5  -8 0.95070 0.50755  16
  -2  -5  -8 4.90898 1.07740   2
  -2  -5  -8 5.69119 1.24911   7
   3   5   8 10.9564 0.78278   3
  -8   6   8 41.9717 2.64679  15
  -8   6   8 39.1374 2.55107   1
  -7   6   8 10.7824 1.19697  15
  -7   6   8 10.9111 1.01283  11
  -6   6   8 555.132 32.8256  11
  -6   6   8 540.194 33.0514  15
   5  -6  -8 92.5484 6.58061   2
   5  -6  -8 113.047 6.47445   7
  -5   6   8 104.341 6.37337  11
   4  -6  -8 340.886 18.7916   7
   4  -6  -8 284.209 18.7083   2
  -4   6   8 306.889 18.7028  11
   3  -6  -8 628.738 37.2774   7
   3  -6  -8 612.837 37.2382   2
   2  -6  -8 34.7001 2.56493   7
   2  -6  -8 34.0259 2.43716   2
   1  -6  -8 99.0633 5.94069   2
   1  -6  -8 89.8471 5.95764   7
   0  -6  -8 182.860 10.5596   2
   0  -6  -8 162.150 10.5344   7
  -1  -6  -8 0.28651 0.43168   2
  -1  -6  -8 1.13066 0.45379   7
   8  -7  -8 0.09769 0.38477   7
   7  -7  -8 26.4830 1.72736   7
  -7   7   8 21.6283 1.70191  15
  -7   7   8 23.1021 1.56327  11
  -6   7   8 3.85586 0.63238  11
  -6   7   8 3.97962 0.72123  15
   5  -7  -8 86.7371 5.13231   2
  -5   7   8 79.0757 5.48434  15
   4  -7  -8 12.0658 1.19068   2
   4  -7  -8 14.4041 1.49550   7
   3  -7  -8 20.4036 1.60060   2
   2  -7  -8 214.876 13.5221   7
   2  -7  -8 231.238 13.5181   2
   1  -7  -8 214.735 13.7210   7
   1  -7  -8 239.008 13.7335   2
   0  -7  -8 0.62112 0.73965   2
   6  -8  -8 12.6895 1.13470   7
  -6   8   8 11.1939 1.01566  15
   5  -8  -8 16.2555 1.33718   7
  -5   8   8 14.4692 1.25468  15
   4  -8  -8 136.570 8.17780   2
   4  -8  -8 142.899 8.23615   7
  -4   8   8 124.972 8.28070  15
   3  -8  -8 0.33268 0.38453   2
   3  -8  -8 0.55057 0.51647   7
   2  -8  -8 98.0083 5.37878   2
  -2   8   8 76.7217 5.36720  15
  -2 -11   9 1.88579 0.29867   3
  -1 -11   9 112.166 7.01489  12
  -1 -11   9 119.577 7.05101   3
   0 -11   9 182.437 10.7473   3
   0 -11   9 179.115 10.7253   4
   0 -11   9 171.814 10.7302  12
   1 -11   9 132.897 8.17857  12
   1 -11   9 136.377 8.17030   3
   2 -11   9 57.3209 3.53826  12
   2 -11   9 55.9074 3.50129   3
   3 -11   9 17.2692 1.21341  12
   4 -11   9 20.4026 1.34856  12
  -3 -10   9 25.6630 1.76327   9
  -3 -10   9 29.7350 1.84918   3
  -3 -10   9 26.1265 1.77337  15
  -2 -10   9 150.545 8.65428   3
  -2 -10   9 135.637 8.65981   9
  -2 -10   9 144.137 8.69548  15
  -2 -10   9 138.196 8.60419  12
  -1 -10   9 94.4496 5.94106   9
  -1 -10   9 86.1920 5.92950  15
  -1 -10   9 98.1213 5.92865   4
  -1 -10   9 97.5550 5.91986  12
  -1 -10   9 105.590 6.02280   3
   0 -10   9 2.59436 0.51594  12
   0 -10   9 2.57255 0.46049   9
   0 -10   9 2.53804 0.50431   3
   1 -10   9 90.0499 5.39191   3
   1 -10   9 82.8793 5.37092  12
   2 -10   9 67.2552 3.91049  12
   2 -10   9 64.1326 3.87691   3
   2 -10   9 53.3444 3.79980  10
   3 -10   9 4.62032 0.58879   3
   3 -10   9 5.09608 0.70346  12
   4 -10   9 0.74124 0.20777  10
   4 -10   9 1.18071 0.37481  12
   5 -10   9 89.9015 5.47430  12
  -4  -9   9 0.52048 0.34086   9
  -4  -9   9 0.36553 0.26165  13
  -4  -9   9 0.40136 0.36066  15
  -4  -9   9 0.48450 0.31209   3
  -3  -9   9 4.01261 0.65500   3
  -3  -9   9 3.75538 0.71443   9
  -3  -9   9 3.53105 0.50808  13
  -3  -9   9 3.01866 0.43955  12
  -2  -9   9 13.4066 1.13258   3
  -2  -9   9 10.4144 1.13796   4
  -2  -9   9 15.0703 1.17880  12
  -2  -9   9 11.8017 0.95139  13
  -2  -9   9 12.5133 1.17565   9
  -1  -9   9 -0.0023 0.47104  15
  -1  -9   9 1.04135 0.49767   3
  -1  -9   9 0.83111 0.49098   9
  -1  -9   9 0.97634 0.42882  12
   0  -9   9 37.2345 2.71683   9
   0  -9   9 40.3540 2.67128  12
   0  -9   9 42.2439 2.71285   3
   1  -9   9 168.346 10.1415   3
   1  -9   9 168.295 10.1334  12
   1  -9   9 160.048 10.1713   9
   2  -9   9 4.55566 0.72469  12
   2  -9   9 4.87444 0.78360   3
   2  -9   9 3.10765 0.43275  10
  -3   9  -9 17.1647 1.45381   6
   3  -9   9 18.5934 1.40353   3
   3  -9   9 20.4660 1.43196  10
   3  -9   9 17.2208 1.41594  12
  -4   9  -9 42.4634 2.96576   6
   4  -9   9 46.3459 2.82347  10
   4  -9   9 50.3321 2.99507  12
   4  -9   9 41.3912 2.84214   3
  -5   9  -9 -0.4008 0.43470   6
   5  -9   9 -0.0944 0.23979  10
   5  -9   9 -0.2105 0.28888  12
  -5  -8   9 27.0394 1.71654  13
  -5  -8   9 25.5192 1.81047  15
  -5  -8   9 26.2930 1.83044   9
  -4  -8   9 -0.2500 0.50556   9
  -4  -8   9 0.09352 0.37123   3
  -4  -8   9 0.27601 0.34422  13
  -4  -8   9 -0.1918 0.46307  15
  -3  -8   9 92.5329 5.58594  15
  -3  -8   9 89.0208 5.52487  12
  -3  -8   9 86.8034 5.45480  13
  -3  -8   9 83.0666 5.56817   1
  -3  -8   9 89.3545 5.65593   9
  -3  -8   9 89.9001 5.53978   3
  -2  -8   9 83.4105 5.36932   9
  -2  -8   9 82.2098 5.25345  15
  -2  -8   9 80.7437 5.32509   1
  -2  -8   9 84.6870 5.25181   3
  -2  -8   9 85.8392 5.20074  12
  -2  -8   9 81.1351 5.13976  13
  -1  -8   9 1.37841 0.68789   9
  -1  -8   9 0.28941 0.56961   3
  -1  -8   9 -0.1334 0.38541  13
  -1  -8   9 1.03158 0.55692  12
  -1  -8   9 -0.2707 0.42991  15
   0  -8   9 580.387 35.9306   3
   0  -8   9 589.247 35.9155  12
   0  -8   9 623.535 36.1439   9
   1  -8   9 89.8575 6.12242   9
   1  -8   9 96.4471 5.91533   3
   1  -8   9 95.5824 5.89591  12
  -2   8  -9 234.842 14.2610   6
   2  -8   9 235.751 14.1842  12
   2  -8   9 214.367 14.2299   9
   2  -8   9 236.472 14.0460  10
   2  -8   9 244.962 14.2003   3
  -3   8  -9 106.511 7.05896   6
   3  -8   9 115.744 6.83349  10
   3  -8   9 109.634 6.93226   3
   3  -8   9 116.007 6.96216  12
  -4   8  -9 11.0441 1.24434   6
   4  -8   9 10.0841 1.01272  12
  -5   8  -9 273.579 16.5502   6
   5  -8   9 277.047 16.4564  12
   5  -8   9 240.706 16.3756   3
   5  -8   9 299.901 16.3827  10
  -6   8  -9 28.5371 1.94236   6
   6  -8   9 28.3508 1.85043  12
   6  -8   9 29.6303 1.82815  10
  -6  -7   9 38.2251 2.41902  13
  -6  -7   9 37.7295 2.51174   9
  -6  -7   9 39.1237 2.50311  15
  -5  -7   9 22.4877 1.75411   9
  -5  -7   9 20.0495 1.56796   1
  -5  -7   9 19.7616 1.54909  13
  -5  -7   9 20.8618 1.45358   3
  -4  -7   9 1.77818 0.64282   9
  -4  -7   9 2.13344 0.50719  13
  -4  -7   9 1.77958 0.49154   3
  -4  -7   9 1.35405 0.57998   1
  -4  -7   9 2.05290 0.60663  15
  -3  -7   9 3.57695 0.57663  12
  -3  -7   9 5.02943 0.82854   3
  -3  -7   9 4.39988 0.86150  15
  -3  -7   9 3.47251 0.77498   1
  -3  -7   9 3.58856 0.78143   9
  -3  -7   9 4.81982 0.74166  13
  -2  -7   9 6.82778 0.82893  12
  -2  -7   9 7.51436 0.85592  13
  -2  -7   9 7.03198 0.97133  15
  -2  -7   9 7.48608 1.15411   9
  -2  -7   9 6.31375 1.34730   1
  -2  -7   9 6.17254 0.95462   3
  -1  -7   9 294.156 17.8560   3
  -1  -7   9 310.392 18.0186   9
  -1  -7   9 268.538 17.8149  15
  -1  -7   9 305.202 17.9442   1
  -1  -7   9 291.472 17.7677  13
  -1  -7   9 297.212 17.8212  12
   0  -7   9 1.76367 0.75066   1
   0  -7   9 2.05794 0.58324   3
   0  -7   9 2.32778 0.54007  12
  -1   7  -9 362.402 22.2019   6
   1  -7   9 359.440 22.0812  12
   1  -7   9 375.427 22.1184   3
  -2   7  -9 44.7879 3.08137   6
   2  -7   9 41.0176 2.83099   3
   2  -7   9 40.5913 2.80316  12
   2  -7   9 40.6242 2.69157  10
  -3   7  -9 0.45958 0.67557   6
   3  -7   9 0.52795 0.47855   3
   3  -7   9 0.25941 0.48847  12
  -4   7  -9 89.3110 5.71944   7
  -4   7  -9 87.9151 5.75605   6
   4  -7   9 91.0251 5.54418   3
   4  -7   9 86.5988 5.55637  12
  -5   7  -9 60.4433 4.13334   6
   5  -7   9 66.7216 3.81836   3
   5  -7   9 55.1096 3.95210  12
  -6   7  -9 4.08963 0.75484   6
   6  -7   9 3.97062 0.56114  12
   6  -7   9 4.36029 0.57028  10
  -7  -6   9 60.9591 3.74886   9
  -7  -6   9 58.0019 3.74574  15
  -7  -6   9 62.1715 3.70062  13
  -6  -6   9 15.4356 1.28677  15
  -6  -6   9 13.3866 1.35835   1
  -6  -6   9 15.7016 1.30788   9
  -6  -6   9 15.6924 1.16328  13
  -5  -6   9 24.7731 1.72219  13
  -5  -6   9 25.2064 1.93743   9
  -5  -6   9 20.8051 1.80735   1
  -5  -6   9 25.2023 1.69399   3
  -5  -6   9 24.3253 1.83597  15
  -4  -6   9 42.9708 3.22650   1
  -4  -6   9 49.7982 3.46362   9
  -4  -6   9 50.1566 3.11093  13
  -4  -6   9 47.5540 3.19995  15
  -4  -6   9 43.1677 3.07374   3
  -3  -6   9 2.18029 0.70166   1
  -3  -6   9 1.54166 0.55540   3
  -3  -6   9 1.84201 0.57769  15
  -3  -6   9 1.75903 0.53864  13
  -3  -6   9 1.71576 0.74653   9
  -2  -6   9 28.8542 2.11856   3
  -2  -6   9 28.0812 2.33295   9
  -2  -6   9 28.4197 2.10600  15
  -2  -6   9 28.7487 2.27122   1
  -2  -6   9 28.8761 2.02353  12
  -2  -6   9 30.8682 2.07205  13
  -1  -6   9 41.9915 2.84453   3
  -1  -6   9 41.2863 2.78484  12
  -1  -6   9 41.7777 2.77386  13
  -1  -6   9 42.9643 3.04754   1
   0   6  -9 184.176 11.2003   6
   0  -6   9 167.176 10.5549   1
   0  -6   9 164.236 10.4553  13
   0  -6   9 169.817 10.4656   3
   0  -6   9 168.568 10.4250  12
  -1   6  -9 221.319 13.1845   6
   1  -6   9 209.893 12.9758  12
   1  -6   9 208.695 13.0047   3
  -2   6  -9 163.167 9.93256   6
   2  -6   9 151.609 9.67874  12
   2  -6   9 158.976 9.71447   3
   3  -6   9 7.02241 0.95687   3
   3  -6   9 7.75906 0.95103  12
  -4   6  -9 232.667 14.3134  11
  -4   6  -9 229.205 14.4306   7
  -4   6  -9 236.347 14.5081   6
   4  -6   9 239.316 14.3021  12
   4  -6   9 239.331 14.2890   3
  -5   6  -9 6.66294 1.19932   6
  -5   6  -9 7.53724 0.97505  11
  -5   6  -9 7.08404 1.28586   7
   5  -6   9 5.59207 0.76016   3
   5  -6   9 6.82263 0.85448  12
  -6   6  -9 5.74759 0.76618  11
  -6   6  -9 5.14548 0.84116   6
  -6   6  -9 4.45156 0.98097   7
   6  -6   9 4.81866 0.63777  12
  -7  -5   9 76.7444 4.76984  13
  -7  -5   9 75.7959 4.84887  15
  -7  -5   9 80.5054 4.86018   9
  -6  -5   9 352.009 20.2003   9
  -6  -5   9 336.275 20.0416  13
  -6  -5   9 324.207 20.1024   1
  -6  -5   9 318.561 20.1251  15
  -5  -5   9 91.5765 6.08007   1
  -5  -5   9 94.7210 6.13027  15
  -5  -5   9 99.8798 6.04870  13
  -5  -5   9 96.0155 6.01394   3
  -5  -5   9 102.792 6.26501   9
  -4  -5   9 441.399 27.7152   3
  -4  -5   9 435.690 27.7240   1
  -4  -5   9 484.635 27.9515   9
  -4  -5   9 475.270 27.7290  13
  -4  -5   9 465.080 27.8240  15
  -3  -5   9 366.324 21.8547  15
  -3  -5   9 341.816 21.7751   3
  -3  -5   9 374.988 21.7740  13
  -3  -5   9 350.285 21.7940   1
  -3  -5   9 369.363 21.9876   9
  -2  -5   9 359.360 23.2961  15
  -2  -5   9 388.533 23.6382   1
  -2  -5   9 409.427 23.3405  13
   1   5  -9 261.344 15.0168   6
  -1  -5   9 244.685 14.8568  13
  -1  -5   9 241.253 14.9288   1
  -1  -5   9 244.553 14.8452  12
  -1  -5   9 233.094 14.8803   3
   0   5  -9 8.50565 1.14560   6
   0  -5   9 5.89379 0.75290  12
   0  -5   9 4.96613 0.90108   1
   0  -5   9 5.35554 0.77874  13
   0  -5   9 6.48059 0.91286   3
  -1   5  -9 20.3648 2.48186   6
   1  -5   9 26.3922 2.09037  12
   1  -5   9 27.8628 1.93512   3
  -2   5  -9 63.7691 4.83085   7
  -2   5  -9 80.1531 4.97616   6
   2  -5   9 77.0360 4.66968  12
   2  -5   9 73.0317 4.67574   3
  -3   5  -9 130.364 8.64072   4
  -3   5  -9 144.149 8.91092   6
  -3   5  -9 138.583 8.70949  11
  -3   5  -9 134.546 8.84481   7
   3  -5   9 148.932 8.65428  12
   3  -5   9 145.261 8.65010   3
  -4   5  -9 89.5709 5.96086   7
  -4   5  -9 95.6352 5.78419  11
  -4   5  -9 83.0444 5.66312   4
  -4   5  -9 90.0686 5.93230   6
   4  -5   9 92.3521 5.65843  12
   4  -5   9 90.2008 5.64082   3
  -5   5  -9 390.178 22.5127   4
  -5   5  -9 339.283 22.6461   6
  -5   5  -9 406.167 22.7260   7
   5  -5   9 355.253 22.5479   3
   5  -5   9 378.912 22.5256  12
  -6   5  -9 272.339 19.1526   6
  -6   5  -9 345.510 19.2592  11
  -6   5  -9 366.529 19.2493   7
   6  -5   9 276.122 19.1017   3
   6  -5   9 329.779 19.1211  12
  -8  -4   9 47.2012 3.01799  15
  -8  -4   9 49.0716 2.96401  13
  -7  -4   9 344.807 19.5964  13
  -7  -4   9 328.976 19.6788  15
  -7  -4   9 302.440 19.5801   1
  -7  -4   9 326.460 19.6652   9
  -6  -4   9 0.43138 0.56963   9
  -6  -4   9 0.53265 0.49153  13
  -6  -4   9 1.13120 0.55438  15
  -6  -4   9 0.81835 0.51998   1
  -5  -4   9 73.4177 4.95048   1
  -5  -4   9 78.3540 5.04245  15
  -5  -4   9 79.7059 5.14566   9
  -5  -4   9 79.2926 4.94102  13
  -4  -4   9 222.438 12.9668  15
  -4  -4   9 221.153 12.8607  13
  -4  -4   9 212.027 13.0610   9
  -4  -4   9 196.587 12.8398   1
  -4  -4   9 201.894 12.8269   3
  -3  -4   9 20.0429 1.61444  15
  -3  -4   9 17.6571 1.49767   3
   2   4  -9 636.398 37.9358   6
  -2  -4   9 640.904 37.9183  15
  -2  -4   9 596.591 37.8601   3
  -2  -4   9 617.320 37.8675   1
  -2  -4   9 660.633 37.8613  13
   1   4  -9 1713.13 98.5480   6
  -1  -4   9 1750.98 98.4894  12
  -1  -4   9 1635.63 98.4067  13
  -1  -4   9 1555.56 98.4230   3
  -1  -4   9 1573.36 98.4369   1
   0   4  -9 809.023 43.6158   6
   0  -4   9 712.077 43.3787  12
   0  -4   9 683.918 43.4470   1
   0  -4   9 689.862 43.4073   3
  -1   4  -9 114.832 7.82841   7
  -1   4  -9 143.001 8.01199   6
   1  -4   9 125.159 7.70091  12
   1  -4   9 117.269 7.78844   1
   1  -4   9 126.369 7.74032   3
  -2   4  -9 479.123 32.3436   7
  -2   4  -9 571.908 32.4969   6
   2  -4   9 558.268 32.2626   3
  -3   4  -9 6.70075 1.19557   7
  -3   4  -9 8.12449 1.50322   6
   3  -4   9 9.20733 1.04790   3
  -4   4  -9 150.220 9.07066  11
  -4   4  -9 140.576 9.16826   6
  -4   4  -9 139.208 8.91729   4
  -4   4  -9 146.504 9.22980   7
   4  -4   9 150.140 8.93622   3
  -5   4  -9 -0.3214 0.76347   7
  -5   4  -9 0.12810 0.74147  11
  -5   4  -9 0.30128 0.59819   6
   5  -4   9 -0.3465 0.48923   3
   5  -4   9 -0.0304 0.45562  12
  -6   4  -9 4.71672 0.92282  11
  -6   4  -9 4.19016 0.79405   7
  -6   4  -9 4.45865 0.81758   6
   6  -4   9 5.47440 0.53817   3
   6  -4   9 4.73406 0.61338  12
  -8  -3   9 152.240 9.25027  15
  -8  -3   9 154.019 9.19027  13
  -8  -3   9 149.777 9.19714   1
  -7  -3   9 14.6088 1.16254  13
  -7  -3   9 13.5126 1.25970  15
  -7  -3   9 14.5615 1.31544   1
  -7  -3   9 13.0478 1.21522   9
  -6  -3   9 132.526 8.06419  13
  -6  -3   9 129.686 8.06729   1
  -6  -3   9 129.630 8.20376   9
  -6  -3   9 130.487 8.17606  15
  -5  -3   9 4.07228 0.73725  13
  -5  -3   9 2.38013 0.68941  15
  -5  -3   9 3.62646 0.78286   9
  -5  -3   9 3.11631 0.66844   1
   4   3  -9 80.6064 5.67475   6
  -4  -3   9 94.4711 5.67241  13
  -4  -3   9 91.8413 5.87376   9
  -4  -3   9 98.2774 5.78501  15
  -4  -3   9 86.5959 5.66216   1
  -4  -3   9 86.5630 5.61977   3
   3   3  -9 171.217 10.8495   6
  -3  -3   9 173.432 10.8120   3
  -3  -3   9 184.846 10.9157  15
  -3  -3   9 172.088 10.8913  11
  -3  -3   9 171.245 10.8081   1
  -3  -3   9 188.412 10.8405  13
   2   3  -9 271.652 16.3483   6
  -2  -3   9 274.990 16.3446  15
  -2  -3   9 278.910 16.2900  13
  -2  -3   9 260.730 16.2749   3
  -2  -3   9 256.900 16.2701   1
  -1  -3   9 3.09805 0.65489   1
  -1  -3   9 3.38663 0.60135   3
   0   3  -9 14.9417 1.53255   7
   0   3  -9 14.3285 1.68737   5
   0   3  -9 13.8370 1.47042   6
   0  -3   9 12.0752 1.11970  12
   0  -3   9 13.0818 1.20541   3
   0  -3   9 12.3923 1.42827   1
  -1   3  -9 1015.99 56.5442   6
  -1   3  -9 853.525 56.4018   7
   1  -3   9 950.865 56.3207   3
  -2   3  -9 177.775 11.7019   7
  -2   3  -9 194.449 11.7703   6
   2  -3   9 194.053 11.5262   3
  -3   3  -9 43.9190 3.50541   7
  -3   3  -9 42.2931 3.28857   6
   3  -3   9 47.8657 3.02293   3
  -4   3  -9 78.9795 5.52033   6
  -4   3  -9 87.1702 5.73312   7
  -4   3  -9 82.9092 5.49735  11
   4  -3   9 88.3385 5.31294   3
  -5   3  -9 10.8038 1.25915   6
  -5   3  -9 14.3518 1.63003  11
  -5   3  -9 11.4350 1.82172   7
   5  -3   9 11.9272 1.12571   3
  -6   3  -9 0.14830 0.66107   7
  -6   3  -9 -0.3679 0.34723   6
  -6   3  -9 0.10114 0.66184  11
  -8  -2   9 35.8287 2.50188  15
  -8  -2   9 38.8735 2.48867   1
  -8  -2   9 38.1193 2.40227  13
  -7  -2   9 19.1984 1.51943  13
  -7  -2   9 21.8751 1.66876   1
  -7  -2   9 18.9010 1.68812   9
  -7  -2   9 21.0280 1.67714  15
  -6  -2   9 51.3539 3.75095  15
  -6  -2   9 56.7388 3.70720   1
  -6  -2   9 56.0069 3.87262   9
  -6  -2   9 59.1180 3.74057  13
  -5  -2   9 602.660 36.0154   9
  -5  -2   9 604.182 35.8591  13
  -5  -2   9 538.864 35.7060  11
  -5  -2   9 651.985 35.9920  15
  -5  -2   9 584.183 35.7974   1
  -4  -2   9 0.17551 0.85246  15
  -4  -2   9 0.61380 0.38453  11
  -4  -2   9 1.88905 0.72179   9
  -4  -2   9 0.52321 0.81645  13
  -3  -2   9 63.0171 3.92949   1
  -3  -2   9 65.9011 4.02530  15
  -3  -2   9 57.4663 3.94822  13
  -3  -2   9 53.9725 3.78932  11
  -3  -2   9 62.1292 3.89432   3
  -2  -2   9 -0.3631 0.40717  11
  -2  -2   9 0.08083 0.50670  15
  -2  -2   9 0.71838 0.39357   3
  -2  -2   9 -0.4789 0.47942   1
   1   2  -9 49.1141 3.13350   6
   1   2  -9 45.5956 3.13905   5
  -1  -2   9 39.5257 2.99715   1
  -1  -2   9 45.5006 2.95126   3
   0   2  -9 33.6742 2.54600   5
   0   2  -9 33.8226 2.59041   7
   0   2  -9 37.9731 2.59093   6
   0  -2   9 31.5399 2.45496   1
   0  -2   9 34.5441 2.34481   3
  -1   2  -9 9.25010 1.34900   6
  -1   2  -9 8.78553 1.52389   7
   1  -2   9 9.11178 0.99701   3
  -2   2  -9 249.970 14.8205   6
  -2   2  -9 239.543 14.8005   7
  -2   2  -9 220.335 14.6271   2
   2  -2   9 251.306 14.5851   3
  -3   2  -9 13.9972 1.61272   2
  -3   2  -9 13.3838 1.58412   6
  -3   2  -9 11.7282 1.98987   7
   3  -2   9 13.4575 1.25150   3
  -4   2  -9 12.9792 1.53918   6
  -4   2  -9 13.1724 2.12356   7
   4  -2   9 15.7127 1.28212   3
  -5   2  -9 24.2599 2.26142   7
  -5   2  -9 23.3692 1.90045  11
  -5   2  -9 19.5788 1.66917   6
   5  -2   9 23.0357 1.61001   3
  -6   2  -9 24.8564 1.77910  11
  -6   2  -9 27.5388 1.91973   7
   6  -2   9 24.4209 1.65264  12
  -9  -1   9 84.4277 5.78358  15
  -9  -1   9 101.827 5.70302   1
  -8  -1   9 55.2380 3.71676  13
  -8  -1   9 58.5496 3.86330  15
  -8  -1   9 65.9407 3.82647   1
  -7  -1   9 13.5115 1.21345  11
  -7  -1   9 15.6325 1.28905  13
  -7  -1   9 16.8439 1.41261   1
  -7  -1   9 15.9558 1.44462  15
  -6  -1   9 219.878 13.9185  11
  -6  -1   9 220.146 14.0208  13
  -6  -1   9 241.921 14.0132   1
  -6  -1   9 221.255 14.2430   9
  -6  -1   9 248.754 14.1835  15
  -5  -1   9 641.656 42.4713  11
  -5  -1   9 760.778 42.7549  15
  -5  -1   9 724.149 42.5589   1
  -5  -1   9 717.878 42.6291  13
  -5  -1   9 702.855 42.7278   9
  -4  -1   9 256.334 14.4874  15
  -4  -1   9 244.375 14.3244   1
  -4  -1   9 226.917 14.3503  13
  -4  -1   9 214.683 14.2157  11
  -3  -1   9 63.7768 4.12872   1
  -3  -1   9 72.0127 4.28012  15
  -3  -1   9 58.1835 4.03223  11
  -2  -1   9 467.975 26.7457  15
  -2  -1   9 466.404 26.6955   3
  -2  -1   9 420.076 26.5641  11
  -2  -1   9 415.660 26.5923   1
   1   1  -9 28.3663 2.41466   7
   1   1  -9 36.6531 2.47467   6
   1   1  -9 38.0813 2.79654   5
  -1  -1   9 30.7478 2.24838   3
   0   1  -9 0.03898 0.58364   6
   0   1  -9 -0.1085 0.60094   7
   0  -1   9 -0.6127 0.40315   3
  -1   1  -9 98.6166 6.71814   7
  -1   1  -9 92.0648 6.26595   2
  -1   1  -9 103.886 6.42935   6
   1  -1   9 103.467 6.20189   3
  -2   1  -9 50.5943 3.52773   6
  -2   1  -9 49.5263 3.69089   7
  -2   1  -9 46.7787 3.42203   2
   2  -1   9 52.4243 3.27053   3
  -3   1  -9 0.32735 0.70261   6
  -3   1  -9 0.48259 0.59792   2
  -4   1  -9 7.88064 1.34440   2
  -4   1  -9 5.66347 1.08868   7
  -4   1  -9 6.13916 1.08281   6
   4  -1   9 7.91276 0.87614   3
  -5   1  -9 266.539 15.5732   7
  -5   1  -9 256.928 15.4944  11
   5  -1   9 244.360 15.4107   3
  -9   0   9 4.32206 0.56569  15
  -8   0   9 124.975 7.65381  15
  -8   0   9 129.988 7.47675  11
  -8   0   9 114.676 7.48675  13
  -7   0   9 44.9114 2.92141  11
  -7   0   9 47.9408 3.02872   1
  -7   0   9 44.8747 3.12922  15
  -7   0   9 41.6888 2.94920  13
  -6   0   9 73.4017 4.94732  15
  -6   0   9 70.5358 4.79115  13
  -6   0   9 82.2854 4.81531   1
  -6   0   9 73.8258 4.72243  11
  -5   0   9 214.627 12.4334   1
  -5   0   9 219.679 12.6321  15
  -5   0   9 203.014 12.3692  11
  -5   0   9 186.276 12.6086   9
  -5   0   9 195.849 12.4733  13
  -4   0   9 169.505 9.91137  15
  -4   0   9 155.051 9.65117   1
  -4   0   9 142.389 9.50131  11
   3   0  -9 44.0860 3.12207   7
  -3   0   9 47.0482 3.08692   1
  -3   0   9 44.5427 3.04445  11
  -3   0   9 52.6756 3.28120  15
   2   0  -9 176.417 11.3327   7
  -2   0   9 171.081 11.2886   1
  -2   0   9 188.367 11.2935  11
  -2   0   9 198.880 11.4574  15
  -2   0   9 194.478 11.3140   3
   1   0  -9 18.4731 1.64145   7
   1   0  -9 18.1212 1.59939   6
  -1   0   9 15.4437 1.34272   3
   0   0  -9 1.50611 0.76813   7
   0   0  -9 2.96327 0.68268   6
   0   0   9 1.73342 0.44900   3
  -1   0  -9 283.215 18.6341   2
  -1   0  -9 323.558 18.7881   6
  -1   0  -9 312.653 18.7652   7
   1   0   9 312.037 18.5888   3
  -2   0  -9 -0.3084 0.59915   6
  -2   0  -9 0.70831 0.54489   2
  -2   0  -9 -0.6908 0.84705   7
   2   0   9 0.71771 0.52102   3
  -3   0  -9 8.78700 1.50235   2
  -3   0  -9 5.46925 1.10248   7
  -3   0  -9 7.13354 1.16615   6
  -4   0  -9 466.359 26.4914  11
  -4   0  -9 452.714 26.5515   7
  -4   0  -9 436.188 26.5722   2
   4   0   9 401.127 26.3542   3
  -5   0  -9 9.73617 1.36537  11
   5   0   9 8.57941 0.80086   3
  -9   1   9 162.304 10.3530  15
  -9   1   9 180.167 10.3456  11
  -8   1   9 0.12751 0.50663  15
  -8   1   9 0.33291 0.72484   1
  -8   1   9 -0.0212 0.38398  11
  -7   1   9 7.52463 1.00103  11
  -7   1   9 8.52903 1.10458   1
  -7   1   9 5.19867 0.82205  13
  -7   1   9 6.26240 1.07629  15
  -6   1   9 119.451 6.89473   1
  -6   1   9 104.574 7.05473  15
  -6   1   9 104.543 6.90065  13
  -6   1   9 113.623 6.84939  11
   5  -1  -9 30.4333 2.36596   7
  -5   1   9 34.6510 2.48217  13
  -5   1   9 34.6009 2.37138  11
  -5   1   9 35.3897 2.41548   1
  -5   1   9 36.0435 2.62550  15
  -4   1   9 45.5868 3.12450  11
  -4   1   9 49.5866 3.35231  15
   3  -1  -9 307.190 19.2557   7
  -3   1   9 292.444 19.2124   1
  -3   1   9 336.969 19.4522  15
  -3   1   9 340.001 19.2757  11
   2  -1  -9 241.159 15.3191   7
  -2   1   9 265.353 15.4548  15
  -2   1   9 251.509 15.2878  11
   1  -1  -9 65.5043 4.21354   6
  -1   1   9 55.6100 3.77914   3
  -1   1   9 59.0728 3.92971  15
   0  -1  -9 447.569 28.9126   2
   0  -1  -9 502.663 28.9923   6
   0  -1  -9 480.996 28.9498   7
   0   1   9 488.064 28.8315   3
  -1  -1  -9 49.1020 3.55188   7
  -1  -1  -9 47.8301 3.38607   6
  -1  -1  -9 49.4083 3.35021   2
  -2  -1  -9 100.413 6.16719   2
  -2  -1  -9 87.5454 6.10940   6
  -2  -1  -9 102.493 6.27433   9
  -2  -1  -9 95.2852 6.85473   7
  -3  -1  -9 29.9428 2.59039   7
  -3  -1  -9 29.6731 2.38467   2
   3   1   9 32.2259 2.11298   3
  -4  -1  -9 2.49113 0.67629  11
  -4  -1  -9 2.05145 0.53717   2
  -4  -1  -9 2.00649 0.70634   7
   4   1   9 2.99218 0.48457   3
  -9   2   9 12.9233 1.11713  15
  -9   2   9 17.7922 1.08006  11
  -8   2   9 18.1610 1.40185   1
  -8   2   9 13.1865 1.36205  15
  -8   2   9 16.7319 1.27607  11
  -7   2   9 56.0124 3.28191  11
  -7   2   9 44.2008 3.20178  13
  -7   2   9 50.5095 3.48506  15
  -6   2   9 52.6339 3.72663  13
  -6   2   9 52.0241 3.89452  15
  -6   2   9 63.9445 3.91921  11
   5  -2  -9 68.5769 4.70244   7
  -5   2   9 78.7436 4.96706  15
  -5   2   9 73.4042 4.79257  13
  -5   2   9 75.5049 4.71066   1
  -5   2   9 75.9828 4.71117  11
   4  -2  -9 8.69610 1.24140   7
  -4   2   9 10.5592 1.12101  11
  -4   2   9 11.9355 1.37158  15
   3  -2  -9 171.873 10.6482   7
  -3   2   9 177.677 10.8216  15
  -3   2   9 172.659 10.6135  11
   2  -2  -9 271.001 16.3699   7
  -2   2   9 268.523 16.3194  11
   1  -2  -9 176.244 11.3333   2
   1  -2  -9 193.568 11.4447   6
   1  -2  -9 191.458 11.4265   7
  -1   2   9 182.582 11.2792   3
   0  -2  -9 70.0116 4.65456   6
   0  -2  -9 69.8319 4.61114   2
   0  -2  -9 74.4254 4.76310   7
   0   2   9 71.8276 4.49829   3
  -1  -2  -9 201.989 13.3486   6
  -1  -2  -9 231.925 13.5466   7
  -2  -2  -9 9.65208 1.44605   2
  -2  -2  -9 6.96470 1.08006   7
  -2  -2  -9 9.11032 0.99911   6
  -3  -2  -9 5.90663 0.90632   7
  -3  -2  -9 4.34529 0.66778   2
  -4  -2  -9 100.900 5.80284   2
  -4  -2  -9 88.1743 5.74251  11
  -4  -2  -9 97.1168 5.82420   7
   4   2   9 89.6550 5.75367   3
  -9   3   9 32.2990 2.01977   1
  -9   3   9 30.3174 1.98275  11
  -8   3   9 63.4127 4.57857  15
  -8   3   9 77.5312 4.49344   1
  -8   3   9 74.3560 4.46561  11
   7  -3  -9 251.423 14.9068   7
  -7   3   9 227.022 15.0498  15
  -7   3   9 250.090 14.8669  11
  -7   3   9 255.509 14.8811   1
  -6   3   9 17.4059 1.53575  13
  -6   3   9 20.0846 1.59708  11
  -6   3   9 17.8880 1.78973  15
  -6   3   9 20.1489 1.56972   1
   5  -3  -9 25.6342 2.02957   7
  -5   3   9 25.4587 2.10869   1
  -5   3   9 27.2120 2.19800  15
   4  -3  -9 76.5567 4.88656   7
  -4   3   9 80.2848 5.09713  15
  -4   3   9 73.3725 4.82475  11
   3  -3  -9 79.0789 5.00719   7
  -3   3   9 76.7297 4.92848  11
   2  -3  -9 26.3462 2.08509   7
   2  -3  -9 22.7546 1.84550   2
   1  -3  -9 17.2853 1.56397   6
   1  -3  -9 17.6851 1.80881   7
   1  -3  -9 17.7630 1.56557   2
  -1   3   9 17.1066 1.33493   3
   0  -3  -9 -0.1534 0.50620   2
   0  -3  -9 -0.2897 0.52674   6
   0   3   9 -0.2335 0.41401   3
  -1  -3  -9 0.56769 0.45077   6
  -1  -3  -9 -0.7872 0.70180   7
  -1  -3  -9 0.60408 0.56544   2
  -2  -3  -9 1.60524 0.85169   7
   2   3   9 3.51886 0.64111   3
  -3  -3  -9 -0.2479 0.41289   2
  -3  -3  -9 1.26492 0.48032  11
   3   3   9 0.01397 0.35987   3
  -9   4   9 121.336 7.23906  11
  -9   4   9 118.868 7.34862   1
   8  -4  -9 116.670 7.61219   7
  -8   4   9 135.865 7.65246   1
  -8   4   9 135.694 7.64995  11
  -8   4   9 115.004 7.74874  15
   7  -4  -9 1.80641 0.63281   7
  -7   4   9 2.75610 0.56381  11
  -7   4   9 1.54443 0.60394  15
  -7   4   9 1.93976 0.49129   1
   6  -4  -9 180.319 10.3770   7
  -6   4   9 167.637 10.3156   1
  -6   4   9 168.310 10.3392  11
  -6   4   9 163.740 10.5687  15
   5  -4  -9 9.94310 1.29149   7
  -5   4   9 8.46985 1.09323  11
  -5   4   9 8.33428 1.26649  15
  -4   4   9 51.2770 3.63000  15
  -4   4   9 46.4299 3.48187  11
   3  -4  -9 19.9251 1.69056   2
   3  -4  -9 21.3108 1.95597   7
  -3   4   9 21.7956 1.67417  11
   2  -4  -9 60.9812 3.93596   6
   2  -4  -9 56.0891 3.78827   2
   1  -4  -9 10.0795 1.60163   7
   1  -4  -9 10.2275 1.13777   6
   1  -4  -9 9.82515 1.32530   2
   0  -4  -9 101.318 7.52232   6
   0  -4  -9 130.099 7.49448   2
   0  -4  -9 126.796 7.58062   7
   0   4   9 122.995 7.34791   3
  -1  -4  -9 6.94677 1.01623   7
   1   4   9 8.59815 0.78898   3
  -2  -4  -9 42.8936 2.97739   7
  -2  -4  -9 46.9955 2.91142   2
  -2  -4  -9 42.7147 2.79768  11
   2   4   9 41.8626 2.74258   3
   8  -5  -9 29.8085 1.91804   7
  -8   5   9 32.4184 1.92530  11
  -8   5   9 27.2821 1.88288   1
  -8   5   9 28.3090 2.00791  15
   7  -5  -9 221.529 13.1588   7
  -7   5   9 210.685 13.3145  15
  -7   5   9 221.951 13.1508  11
   6  -5  -9 120.120 6.98842   7
  -6   5   9 105.022 7.12732  15
  -6   5   9 114.206 6.94212  11
   5  -5  -9 0.71681 0.55988   7
  -5   5   9 0.26622 0.54441  11
  -5   5   9 -0.1622 0.64262  15
   4  -5  -9 0.19773 0.59869   7
   4  -5  -9 1.00873 0.47793   2
  -4   5   9 0.95519 0.71438  15
  -4   5   9 -0.2182 0.54439  11
   3  -5  -9 25.0560 1.92125   2
   3  -5  -9 28.6099 2.18981   7
   2  -5  -9 99.7623 6.01274   7
   2  -5  -9 87.6332 5.88176   6
   2  -5  -9 95.9117 5.89794   2
   1  -5  -9 45.6887 3.01339   2
   1  -5  -9 42.8913 3.11915   7
   0  -5  -9 23.6130 1.81289   2
   0  -5  -9 20.8138 2.02144   7
  -1  -5  -9 58.2451 3.33831   2
  -1  -5  -9 51.4787 3.44852   7
   1   5   9 44.5245 3.14554   3
  -8   6   9 18.8847 1.37950  15
  -8   6   9 22.0602 1.46966  11
   7  -6  -9 48.4096 2.90444   7
  -7   6   9 46.7299 2.82902  11
  -7   6   9 38.9786 2.91990  15
   6  -6  -9 39.5051 2.44036   7
  -6   6   9 30.9053 2.45104  15
  -6   6   9 34.5437 2.29100  11
   5  -6  -9 157.944 9.85620   7
  -5   6   9 161.591 9.39804  11
  -5   6   9 144.853 9.68330  15
   4  -6  -9 551.761 30.7278   7
   4  -6  -9 485.431 30.6377   2
  -4   6   9 496.475 30.8300  15
   3  -6  -9 12.4845 1.17733   6
   3  -6  -9 15.9976 1.55766   7
   3  -6  -9 14.2979 1.23132   2
   2  -6  -9 41.3337 2.82418   2
   2  -6  -9 43.8895 3.06068   7
   1  -6  -9 45.3749 2.91834   2
   1  -6  -9 43.0133 3.02411   7
   0  -6  -9 0.95373 0.41310   2
   0  -6  -9 0.45363 0.49617   7
   7  -7  -9 12.3047 1.07612   7
  -7   7   9 10.3829 0.87943  15
   6  -7  -9 68.8127 4.15983   7
  -6   7   9 57.0808 4.03587  15
   5  -7  -9 31.9028 2.18879   6
  -5   7   9 36.1203 2.34065  15
   4  -7  -9 58.5368 3.46063   7
  -4   7   9 47.4363 3.42504  15
   3  -7  -9 469.837 25.8354   7
   3  -7  -9 420.488 25.7628   2
  -3   7   9 399.490 25.8566  15
   2  -7  -9 255.394 14.2457   2
   2  -7  -9 248.661 14.3090   7
  -2   7   9 205.934 14.2761  15
   1  -7  -9 38.3139 2.51883   2
  -1 -11  10 0.77147 0.25422   3
   0 -11  10 43.0337 2.72325  12
   0 -11  10 44.8595 2.74593   3
   1 -11  10 202.138 12.1947  12
   1 -11  10 203.027 12.1896   3
   2 -11  10 72.4081 4.35930  12
   2 -11  10 69.9169 4.37105   3
   3 -11  10 2.55122 0.35849  12
  -3 -10  10 54.4919 3.19922   3
  -3 -10  10 49.3866 3.22366   9
  -2 -10  10 20.1920 1.34332   9
  -2 -10  10 17.0110 1.28370  12
  -2 -10  10 20.6238 1.35328   3
  -1 -10  10 30.5476 1.96877   3
  -1 -10  10 29.0558 1.95606   9
  -1 -10  10 28.4521 1.89927  12
   0 -10  10 145.759 9.39150   9
   0 -10  10 158.728 9.39670  12
   0 -10  10 160.431 9.43291   3
   1 -10  10 132.275 8.01349   3
   1 -10  10 130.243 7.99735  12
   2 -10  10 0.12841 0.32480   3
   2 -10  10 0.31331 0.32875  12
   3 -10  10 59.7246 3.63141  12
   3 -10  10 56.5871 3.58222   3
   4 -10  10 13.2999 0.95283  12
  -4  -9  10 75.7222 4.76073   9
  -4  -9  10 80.0842 4.70645   3
  -4  -9  10 74.7839 4.68386  13
  -4  -9  10 78.1695 4.73434  15
  -3  -9  10 6.76715 0.72250   3
  -3  -9  10 6.96280 0.73668  15
  -3  -9  10 6.50916 0.59398  13
  -3  -9  10 7.64285 0.81259   9
  -2  -9  10 42.2945 2.82017   9
  -2  -9  10 42.5459 2.73375  15
  -2  -9  10 41.5138 2.66557  12
  -1  -9  10 56.3534 3.57963  12
  -1  -9  10 53.7002 3.69340   9
  -1  -9  10 54.6685 3.53364   3
   0  -9  10 14.4680 1.24983   3
   0  -9  10 14.6943 1.41269   9
   0  -9  10 15.2011 1.18373  12
   1  -9  10 141.661 8.25312   3
   1  -9  10 134.585 8.21913  12
   1  -9  10 126.398 8.26084   9
   2  -9  10 120.331 7.22886   3
   2  -9  10 114.035 7.19366  12
  -3   9 -10 1.78854 0.51344   6
   3  -9  10 1.51026 0.39095  12
   3  -9  10 1.95214 0.41007   3
  -4   9 -10 9.30829 0.86170   6
   4  -9  10 9.94675 0.81267  12
   4  -9  10 8.60010 0.73141   3
  -5   9 -10 11.8231 1.07170   6
   5  -9  10 16.1265 0.98174  12
  -5  -8  10 52.5128 3.47902   9
  -5  -8  10 55.7443 3.34000  13
  -5  -8  10 54.8510 3.40088  15
  -4  -8  10 22.6495 1.58464  13
  -4  -8  10 23.8292 1.63753   3
  -4  -8  10 24.7449 1.76740   9
  -4  -8  10 24.3711 1.69452  15
  -3  -8  10 77.7949 4.91867   1
  -3  -8  10 83.7283 4.95839  15
  -3  -8  10 74.7110 4.93310   9
  -3  -8  10 73.5380 4.81314   3
  -3  -8  10 74.7192 4.74939  13
  -2  -8  10 -0.0548 0.56294   1
  -2  -8  10 0.17787 0.35977  13
  -2  -8  10 -0.0991 0.39165  15
  -2  -8  10 0.04289 0.53093   9
  -2  -8  10 0.61744 0.36617  12
  -2  -8  10 0.20784 0.46631   3
  -1  -8  10 -0.2065 0.55104   9
  -1  -8  10 -0.6265 0.56923   1
  -1  -8  10 -0.1347 0.47244   3
   0  -8  10 137.499 8.67270   9
   0  -8  10 143.312 8.53563  12
   0  -8  10 136.078 8.57164   3
  -1   8 -10 15.1625 1.31093   6
   1  -8  10 12.1537 1.34869   9
   1  -8  10 13.6418 1.16192  12
   1  -8  10 13.6627 1.23458   3
  -2   8 -10 13.3687 1.24261   6
   2  -8  10 13.0785 1.20063   3
   2  -8  10 13.0068 1.14755  12
   2  -8  10 12.9684 1.24590   9
  -3   8 -10 86.5484 6.16062   6
   3  -8  10 101.867 5.78656  10
   3  -8  10 100.028 5.92250   3
   3  -8  10 101.026 5.92618  12
   3  -8  10 86.3645 5.91459   9
  -4   8 -10 85.5502 5.53564   6
   4  -8  10 88.3219 5.44660  12
   4  -8  10 86.5637 5.40978   3
   4  -8  10 91.6390 5.40799  10
  -5   8 -10 0.31474 0.36988   6
   5  -8  10 0.19261 0.30378  12
  -6  -7  10 114.292 6.91319  15
  -6  -7  10 110.970 6.92023   9
  -6  -7  10 115.234 6.85918  13
  -5  -7  10 42.3315 2.82931  15
  -5  -7  10 44.0549 2.75076  13
  -5  -7  10 45.9722 2.91074   9
  -5  -7  10 39.9055 2.82311   1
  -5  -7  10 44.6492 2.78584   3
  -4  -7  10 31.9193 2.38367   9
  -4  -7  10 34.2846 2.29747  15
  -4  -7  10 32.9654 2.18063  13
  -4  -7  10 32.2908 2.23682   3
  -4  -7  10 32.3538 2.36852   1
  -3  -7  10 0.84072 0.64500   1
  -3  -7  10 0.44426 0.43037  13
  -3  -7  10 0.67696 0.59857   9
  -3  -7  10 1.10847 0.48689   3
  -3  -7  10 0.36391 0.49178  15
  -2  -7  10 48.5714 3.21372   1
  -2  -7  10 42.4887 2.98063  15
  -2  -7  10 45.5849 2.91779  12
  -2  -7  10 45.0780 2.93172  13
  -2  -7  10 43.4517 3.02320   3
  -2  -7  10 45.3358 3.19795   9
  -1  -7  10 52.3048 3.66826   1
  -1  -7  10 51.2646 3.45396   3
  -1  -7  10 53.9810 3.67703   9
  -1  -7  10 46.5007 3.32654  13
  -1  -7  10 57.5439 3.50402  12
   0   7 -10 21.7082 1.79532   6
   0  -7  10 21.8795 1.71985   3
   0  -7  10 22.7161 1.65897  12
   0  -7  10 21.2449 1.98531   1
  -1   7 -10 256.553 16.3235   6
   1  -7  10 278.355 16.2621  12
  -2   7 -10 23.9726 2.01138   6
   2  -7  10 23.4637 1.74446  12
   2  -7  10 22.8776 1.77660   3
  -3   7 -10 110.654 7.21610   6
   3  -7  10 114.085 7.05240  12
   3  -7  10 117.789 7.07239   3
   4  -7  10 31.2413 2.12314   3
   4  -7  10 29.9541 2.03173  10
   4  -7  10 33.6276 2.19941  12
  -5   7 -10 153.829 9.93250   6
   5  -7  10 155.739 9.79786   3
   5  -7  10 170.106 9.76775  10
   5  -7  10 170.592 9.85598  12
  -6  -6  10 174.926 10.8277   9
  -6  -6  10 175.187 10.7267  13
  -6  -6  10 183.043 10.8667   1
  -6  -6  10 177.118 10.7959  15
  -5  -6  10 6.21879 1.05551   1
  -5  -6  10 6.91133 0.99014   9
  -5  -6  10 7.12058 0.70478   3
  -5  -6  10 7.07447 0.79987  13
  -5  -6  10 7.34987 0.91246  15
  -4  -6  10 2.25054 0.59170  15
  -4  -6  10 1.30663 0.62988   9
  -4  -6  10 1.33307 0.65183   1
  -4  -6  10 1.21662 0.51870  13
  -4  -6  10 1.90378 0.51867   3
  -3  -6  10 0.24603 0.69739   9
  -3  -6  10 0.25859 0.90457   1
  -3  -6  10 1.13737 0.54870  13
  -3  -6  10 0.50657 0.53012  15
  -3  -6  10 0.00216 0.63019   3
  -2  -6  10 156.574 9.55939   9
  -2  -6  10 150.452 9.35258   3
  -2  -6  10 145.289 9.33025  15
  -2  -6  10 154.022 9.30292  13
  -2  -6  10 152.594 9.41361   1
   1   6 -10 492.444 29.9643   6
  -1  -6  10 517.239 29.8674  12
  -1  -6  10 463.893 29.8962   3
  -1  -6  10 521.157 29.9924   1
  -1  -6  10 488.295 29.8418  13
   0   6 -10 29.4042 2.19192   6
   0  -6  10 27.3742 1.94397  12
   0  -6  10 27.2028 2.26710   1
   0  -6  10 26.9947 1.94903  13
   0  -6  10 26.6089 2.02206   3
  -1   6 -10 59.2632 4.01995   6
   1  -6  10 59.5517 3.81173   3
   1  -6  10 55.8165 3.73906  12
  -2   6 -10 325.050 21.5222   6
   2  -6  10 361.349 21.3489   3
   2  -6  10 365.757 21.3837  12
  -3   6 -10 27.6111 2.29251   7
  -3   6 -10 28.8791 2.14904  11
  -3   6 -10 26.4889 2.33928   6
   3  -6  10 27.9506 1.99540  12
   3  -6  10 29.0052 2.03493   3
  -4   6 -10 80.3052 4.97633  11
  -4   6 -10 81.3445 5.10671   7
  -4   6 -10 74.7502 5.14204   6
   4  -6  10 83.0787 4.97441   3
   4  -6  10 76.3533 4.94421  12
  -5   6 -10 82.6622 5.02896  11
  -5   6 -10 76.5187 5.13649   6
   5  -6  10 83.6536 5.02508  12
   5  -6  10 82.4902 5.06064   3
  -7  -5  10 78.1011 4.85054  15
  -7  -5  10 74.2947 4.85414   1
  -7  -5  10 77.4522 4.82824   9
  -7  -5  10 83.3362 4.81393  13
  -6  -5  10 7.79982 1.04197   1
  -6  -5  10 6.94961 0.96320   9
  -6  -5  10 6.09294 0.97704  13
  -5  -5  10 29.7554 2.28301   3
  -5  -5  10 34.0733 2.46191   9
  -5  -5  10 31.9500 2.34883   1
  -5  -5  10 33.9273 2.23983  13
  -5  -5  10 31.5688 2.29712  15
  -4  -5  10 49.6045 3.73089  13
  -4  -5  10 57.5551 3.58569   3
  -4  -5  10 49.0462 4.06266   9
  -4  -5  10 62.6071 3.80151  15
  -3  -5  10 100.572 6.38474   1
  -3  -5  10 101.531 6.36738  15
  -3  -5  10 96.0050 6.30700   3
  -3  -5  10 100.803 6.54176   9
  -3  -5  10 105.170 6.30567  13
   2   5 -10 237.857 14.1105   6
  -2  -5  10 234.145 14.0098  13
  -2  -5  10 226.156 14.0403  15
  -2  -5  10 225.668 14.0646   1
  -2  -5  10 228.759 14.0412   3
   1   5 -10 199.642 11.5233   6
  -1  -5  10 172.871 11.3760   3
  -1  -5  10 182.016 11.3142  12
  -1  -5  10 191.351 11.3562  13
  -1  -5  10 184.545 11.4494   1
   0   5 -10 118.950 7.13601   6
   0  -5  10 109.302 6.88338  13
   0  -5  10 111.146 6.88778  12
   0  -5  10 107.787 6.94199   3
   0  -5  10 110.385 7.03561   1
  -1   5 -10 574.693 33.8255   6
   1  -5  10 555.953 33.6438   3
   1  -5  10 547.232 33.5922  12
  -2   5 -10 335.219 20.6234   6
   2  -5  10 343.463 20.4143   3
   2  -5  10 333.651 20.3752  12
  -3   5 -10 18.5403 1.65377  11
  -3   5 -10 15.9627 1.79152   6
  -3   5 -10 17.5172 2.00842   7
   3  -5  10 17.4595 1.42274  12
   3  -5  10 16.6707 1.45644   3
  -4   5 -10 44.3087 3.16879   7
  -4   5 -10 34.1446 3.45013  11
  -4   5 -10 38.4234 2.92367   6
   4  -5  10 42.5543 2.69108   3
   4  -5  10 40.3600 2.66636  12
  -5   5 -10 3.49654 0.64991  11
  -5   5 -10 3.16974 0.67607   7
  -5   5 -10 2.63789 0.59661   6
   5  -5  10 3.51695 0.47966   3
   5  -5  10 3.11093 0.48245  12
  -7  -4  10 106.778 6.77736   9
  -7  -4  10 111.116 6.70215  13
  -7  -4  10 115.537 6.73535   1
  -7  -4  10 105.211 6.76559  15
  -6  -4  10 346.037 20.5728  13
  -6  -4  10 348.388 20.6711  15
  -6  -4  10 337.584 20.6954   9
  -6  -4  10 333.070 20.5734   1
  -5  -4  10 313.977 19.1524  15
  -5  -4  10 316.302 19.2477   9
  -5  -4  10 308.637 19.0602   1
  -5  -4  10 321.885 19.0713  13
  -4  -4  10 56.1896 3.56043  13
  -4  -4  10 52.5408 3.61047   1
  -4  -4  10 52.2687 3.51706   3
  -4  -4  10 54.4699 3.79440   9
  -4  -4  10 55.2485 3.64857  15
   3   4 -10 279.291 17.6372   6
  -3  -4  10 280.531 17.5973   3
  -3  -4  10 285.338 17.6180   1
  -3  -4  10 302.204 17.8545   9
  -3  -4  10 299.213 17.6754  15
  -3  -4  10 296.702 17.6137  13
   2   4 -10 325.175 19.5359   6
  -2  -4  10 335.224 19.4471  13
  -2  -4  10 318.383 19.4725   1
  -2  -4  10 315.572 19.4546   3
  -2  -4  10 312.910 19.4714  15
   1   4 -10 17.3741 1.64557   6
  -1  -4  10 18.3159 1.46119  13
  -1  -4  10 16.7341 1.43669   3
  -1  -4  10 16.5474 1.65286   1
   0   4 -10 29.8887 2.28061   6
   0  -4  10 27.8356 1.96507  13
   0  -4  10 27.4421 1.92631  12
   0  -4  10 27.2688 2.02034   3
   0  -4  10 25.7395 2.19732   1
  -1   4 -10 8.20189 1.40954   7
  -1   4 -10 8.89432 1.39257   6
   1  -4  10 8.69557 0.90973  12
   1  -4  10 8.13650 1.01982   3
  -2   4 -10 13.9355 1.87393   7
  -2   4 -10 14.0404 1.69987   6
   2  -4  10 13.7806 1.32404   3
   2  -4  10 15.2505 1.25616  12
  -3   4 -10 67.7558 4.79973   6
  -3   4 -10 71.0936 4.90902   7
   3  -4  10 74.4834 4.55128  12
   3  -4  10 73.0339 4.57762   3
  -4   4 -10 4.18016 0.92297   7
  -4   4 -10 6.32946 0.94595  11
  -4   4 -10 5.04605 0.87390   6
   4  -4  10 5.84984 0.81942   3
   4  -4  10 5.80144 0.78023  12
  -5   4 -10 88.1925 6.34090   6
  -5   4 -10 106.854 6.34700  11
  -5   4 -10 112.160 6.47611   7
   5  -4  10 103.826 6.26475   3
   5  -4  10 101.151 6.26609  12
  -8  -3  10 36.1530 2.32009  13
  -8  -3  10 38.7575 2.38240   1
  -8  -3  10 36.6982 2.39637  15
  -7  -3  10 194.357 11.4410  15
  -7  -3  10 183.075 11.3257  13
  -7  -3  10 177.640 11.3495   9
  -7  -3  10 192.610 11.3535   1
  -6  -3  10 48.1459 3.15834  13
  -6  -3  10 47.7658 3.24913  15
  -6  -3  10 48.0687 3.21107   1
  -6  -3  10 47.3494 3.25628   9
  -5  -3  10 217.228 13.9422  13
  -5  -3  10 224.383 14.0761  15
  -5  -3  10 245.367 14.0128   1
   4   3 -10 77.1222 5.06482   6
  -4  -3  10 75.6984 5.00376   3
  -4  -3  10 79.4200 5.27995   9
  -4  -3  10 80.0711 5.08341   1
  -4  -3  10 82.7395 5.15787  15
  -4  -3  10 81.2082 5.07640  13
   3   3 -10 122.606 7.65286   6
  -3  -3  10 122.652 7.66751  15
  -3  -3  10 119.159 7.61498   1
  -3  -3  10 124.166 7.61923  13
  -3  -3  10 123.933 7.59073   3
   2   3 -10 366.421 20.3252   6
  -2  -3  10 297.292 20.4147   3
  -2  -3  10 342.839 20.1938  13
  -2  -3  10 325.586 20.2224  15
  -2  -3  10 335.881 20.2062   1
   1   3 -10 78.7672 5.03072   6
  -1  -3  10 72.7287 4.84133   3
   0   3 -10 772.470 42.8475   6
   0   3 -10 647.109 42.8239   7
   0  -3  10 709.830 42.7935   1
   0  -3  10 712.969 42.6400   3
  -1   3 -10 3.43612 0.83138   7
  -1   3 -10 3.71692 0.87309   6
   1  -3  10 4.52538 0.75212   3
   1  -3  10 4.24176 0.69502  12
  -2   3 -10 22.9848 2.08164   6
  -2   3 -10 21.0433 2.26423   7
   2  -3  10 23.1232 1.74299   3
  -3   3 -10 330.802 20.2112   7
  -3   3 -10 322.696 20.2294   6
   3  -3  10 341.502 20.0417   3
  -4   3 -10 71.0455 4.57381  11
  -4   3 -10 64.9622 4.57118   6
  -4   3 -10 73.8955 4.76184   7
   4  -3  10 70.3940 4.41835   3
  -5   3 -10 0.05754 0.46314   6
  -5   3 -10 -0.2009 0.63011   7
  -5   3 -10 0.21604 0.57808  11
   5  -3  10 0.11365 0.36037  12
   5  -3  10 -0.2633 0.32478   3
  -8  -2  10 81.3369 4.81867   1
  -8  -2  10 76.0097 4.84589  15
  -8  -2  10 76.3095 4.75442  13
  -7  -2  10 13.7309 1.24696  13
  -7  -2  10 13.0846 1.23946  15
  -7  -2  10 13.0433 1.27040   1
  -6  -2  10 60.7731 4.23798   9
  -6  -2  10 67.0363 4.29981  15
  -6  -2  10 63.2290 4.18499  13
  -6  -2  10 68.6507 4.21882   1
  -5  -2  10 1.44087 0.52748  11
  -5  -2  10 1.48314 0.62004  15
  -5  -2  10 1.44441 0.64488   9
  -5  -2  10 1.25448 0.57086   1
  -5  -2  10 1.71071 0.63965  13
  -4  -2  10 0.39160 0.67910   9
  -4  -2  10 -0.6933 0.53042  15
  -4  -2  10 0.15371 0.44611  11
  -4  -2  10 -0.2872 0.54443  13
  -4  -2  10 -0.5166 0.52146   1
   3   2 -10 76.8337 4.73728   6
  -3  -2  10 73.5147 4.67484   1
  -3  -2  10 70.8255 4.68950  13
  -3  -2  10 73.3132 4.74136  15
  -3  -2  10 69.5093 4.55405  11
   2   2 -10 2.69526 0.73844   6
  -2  -2  10 2.23724 0.57598  15
  -2  -2  10 3.02598 0.57173   3
   1   2 -10 9.86480 1.31865   6
   1   2 -10 10.5773 1.44248   7
  -1  -2  10 11.0447 1.50740   3
  -1  -2  10 9.75849 1.28557   1
   0   2 -10 197.398 11.7788   6
   0   2 -10 173.992 11.6730   7
   0  -2  10 198.633 11.5979   3
  -1   2 -10 349.891 21.8947   7
  -1   2 -10 365.269 21.9643   6
   1  -2  10 366.003 21.7532   3
  -2   2 -10 219.079 13.7560   7
  -2   2 -10 214.892 13.6936   6
   2  -2  10 232.387 13.5190   3
  -3   2 -10 32.4367 2.74174   7
  -3   2 -10 28.4039 2.42345   6
   3  -2  10 32.2503 2.19143   3
  -4   2 -10 77.1056 4.92318   6
  -5   2 -10 43.1983 2.80154  11
  -5   2 -10 40.9500 3.07271   7
   5  -2  10 34.2387 2.39572  12
   5  -2  10 35.5772 2.41604   3
  -8  -1  10 0.72266 0.42649   1
  -8  -1  10 0.91416 0.30958  13
  -8  -1  10 0.79316 0.42055  15
  -7  -1  10 -0.2738 0.32988  11
  -7  -1  10 -0.4245 0.46917  15
  -7  -1  10 -0.2074 0.38620  13
  -7  -1  10 0.76050 0.50679   1
  -6  -1  10 40.2798 2.82145  11
  -6  -1  10 42.4776 2.95527  13
  -6  -1  10 47.2124 2.98676   1
  -6  -1  10 45.5701 3.08124  15
  -5  -1  10 107.912 6.84362   9
  -5  -1  10 114.193 6.86120  15
  -5  -1  10 107.581 6.76238  13
  -5  -1  10 96.8712 6.58797  11
  -5  -1  10 111.051 6.70102   1
  -4  -1  10 126.725 7.99308  13
  -4  -1  10 137.793 8.11202  15
  -4  -1  10 117.117 7.84865  11
  -4  -1  10 132.264 7.94367   1
  -3  -1  10 556.595 35.1700  11
  -3  -1  10 624.878 35.3829  15
  -3  -1  10 578.373 35.2179   1
   2   1 -10 2.89276 0.73026   6
  -2  -1  10 2.82240 0.62048   3
  -2  -1  10 3.21283 0.65867  15
   1   1 -10 0.02477 0.59488   7
   1   1 -10 -0.5660 0.58206   6
  -1  -1  10 0.18629 0.47678   3
   0   1 -10 341.670 21.1972   7
   0   1 -10 353.772 21.2551   6
   0  -1  10 352.813 21.0816   3
  -1   1 -10 9.24348 1.36568   6
  -1   1 -10 8.59906 1.69245   7
   1  -1  10 9.73941 1.03840   3
  -2   1 -10 76.3809 5.21253   6
  -2   1 -10 83.0658 5.42054   7
  -2   1 -10 77.7535 5.13198   2
   2  -1  10 82.0271 5.04154   3
  -3   1 -10 275.677 16.0451   7
  -3   1 -10 233.680 15.9294   6
  -3   1 -10 275.773 15.9493   2
   3  -1  10 262.606 15.8444   3
  -4   1 -10 -0.1825 0.67022  11
  -4   1 -10 -0.0299 0.42866   6
  -4   1 -10 -0.8409 0.73897   7
   4  -1  10 -0.1273 0.46185   3
  -5   1 -10 0.12100 0.42020  11
  -5   1 -10 -0.4057 0.44770   7
   5  -1  10 -0.1004 0.28467  12
   5  -1  10 0.36718 0.25141   3
  -8   0  10 0.04598 0.39492  15
  -8   0  10 0.62073 0.31369  11
  -8   0  10 0.64532 0.44320   1
  -7   0  10 19.6269 1.48890  13
  -7   0  10 20.1488 1.50729  11
  -7   0  10 20.2931 1.58699   1
  -7   0  10 18.6788 1.63697  15
  -6   0  10 41.9958 2.80517  11
  -6   0  10 42.6409 3.03338  15
  -6   0  10 46.4497 2.90309   1
  -6   0  10 40.0980 2.89888  13
  -5   0  10 43.7434 3.01949  11
  -5   0  10 47.5515 3.09916   1
  -5   0  10 48.2933 3.28462  15
  -5   0  10 45.5665 3.16032  13
   4   0 -10 854.600 54.3141   7
  -4   0  10 975.492 54.5388  15
  -4   0  10 877.056 54.2922  11
  -4   0  10 921.665 54.3346   1
   3   0 -10 12.0395 1.34785   7
  -3   0  10 11.3224 1.28673   1
  -3   0  10 14.6332 1.37569  15
  -3   0  10 13.7934 1.29282  11
   2   0 -10 104.981 6.90683   7
  -2   0  10 111.320 6.95342  15
  -2   0  10 115.216 6.83780   3
   1   0 -10 482.612 28.3079   6
   1   0 -10 450.847 28.2327   7
  -1   0  10 471.609 28.1598   3
   0   0 -10 40.7494 2.94563   6
   0   0 -10 39.2318 3.06842   7
   0   0  10 42.0408 2.72727   3
  -1   0 -10 20.2654 1.91405   6
  -1   0 -10 24.1717 2.09571   2
  -1   0 -10 20.0166 2.15264   7
   1   0  10 22.6645 1.65953   3
  -2   0 -10 14.1576 1.53311   6
  -2   0 -10 15.7838 1.55993   2
  -2   0 -10 16.3385 2.06152   7
   2   0  10 17.1732 1.32496   3
  -3   0 -10 -0.1552 0.43424   6
  -3   0 -10 0.89112 0.48044   2
  -3   0 -10 -0.4665 0.73969   7
   3   0  10 0.75482 0.46179   3
  -4   0 -10 5.88018 1.01525  11
  -4   0 -10 5.73397 1.30262   7
   4   0  10 5.50749 0.66832   3
  -8   1  10 137.543 8.43085  11
  -8   1  10 126.511 8.56443  15
  -8   1  10 154.581 8.50748   1
  -7   1  10 42.1198 3.00037  13
  -7   1  10 48.4740 2.99190  11
  -7   1  10 44.9025 3.18185  15
  -7   1  10 49.9383 3.05852   1
  -6   1  10 0.25413 0.51607  11
  -6   1  10 -0.1337 0.61544  15
  -6   1  10 0.54249 0.47458   1
  -6   1  10 0.79932 0.55935  13
  -5   1  10 144.975 9.28971  13
  -5   1  10 160.262 9.28356   1
  -5   1  10 151.926 9.42637  15
  -5   1  10 144.225 9.17189  11
   4  -1 -10 20.0831 1.79027   7
  -4   1  10 22.2870 1.69537  11
  -4   1  10 22.3832 1.88003  15
  -4   1  10 20.8252 1.70925   1
   3  -1 -10 368.351 22.2741   7
  -3   1  10 379.322 22.2426  11
  -3   1  10 351.522 22.2192   1
  -3   1  10 377.343 22.4170  15
   2  -1 -10 1.39935 0.65002   7
  -2   1  10 2.35661 0.61696  15
   1  -1 -10 75.5245 4.93494   7
   1  -1 -10 77.8197 4.91644   6
  -1   1  10 72.3256 4.72026   3
   0  -1 -10 60.4803 4.20324   7
   0  -1 -10 61.4893 4.09839   6
   0   1  10 62.2442 3.91612   3
  -1  -1 -10 16.4359 1.60160   6
  -1  -1 -10 14.3242 1.94866   7
  -1  -1 -10 16.7456 1.60828   2
   1   1  10 18.6632 1.35919   3
  -2  -1 -10 19.6497 2.20960   7
  -2  -1 -10 25.2610 2.06622   2
  -2  -1 -10 17.9070 1.76175   6
   2   1  10 24.5932 1.60870   3
  -3  -1 -10 4.40302 0.88217   7
  -3  -1 -10 6.07913 1.04114   2
   3   1  10 7.37198 0.74126   3
  -4  -1 -10 30.7143 2.02830   7
  -4  -1 -10 28.8259 1.90674  11
   4   1  10 26.4722 1.82794   3
  -8   2  10 22.9578 1.53137   1
  -8   2  10 20.8517 1.45942  11
  -8   2  10 19.3723 1.56614  15
  -7   2  10 46.2129 3.12698  15
  -7   2  10 49.3211 2.94729  11
  -7   2  10 41.1792 2.89370  13
   6  -2 -10 209.236 12.7799   7
  -6   2  10 221.153 12.8038   1
  -6   2  10 207.478 12.8519  13
  -6   2  10 208.151 12.9898  15
  -6   2  10 209.848 12.7815  11
   5  -2 -10 63.5275 4.03247   7
  -5   2  10 59.8386 4.06403  13
  -5   2  10 68.5152 4.03012  11
  -5   2  10 61.6365 4.20405  15
  -5   2  10 57.8886 3.95768   1
   4  -2 -10 153.383 9.39341   7
  -4   2  10 150.498 9.53638  15
  -4   2  10 154.272 9.34812  11
   3  -2 -10 159.030 9.56505   7
  -3   2  10 150.512 9.65629  15
  -3   2  10 155.924 9.50428  11
   2  -2 -10 104.427 6.51397   7
   2  -2 -10 103.243 6.51578   6
  -2   2  10 101.442 6.51637  15
   1  -2 -10 30.9953 2.48840   7
   1  -2 -10 30.1454 2.29244   6
   1  -2 -10 27.5088 2.53235   2
  -1   2  10 31.2657 2.09450   3
   0  -2 -10 156.955 10.1683   6
   0  -2 -10 165.447 10.0929   2
   0  -2 -10 172.250 10.2456   7
   0   2  10 164.609 10.0268   3
  -1  -2 -10 140.963 8.45321   7
  -1  -2 -10 140.380 8.30909   2
  -1  -2 -10 119.707 8.29229   6
   1   2  10 137.629 8.22016   3
   2   2  10 -0.0278 0.38860   3
  -3  -2 -10 101.054 6.28652   7
  -3  -2 -10 92.8073 5.75110   2
  -3  -2 -10 92.3320 5.76837  11
   3   2  10 89.6545 5.77077   3
  -8   3  10 -0.5351 0.34952  11
  -8   3  10 0.18889 0.36310  15
   7  -3 -10 88.8789 5.58978   7
  -7   3  10 94.5117 5.75633  11
  -7   3  10 87.5739 5.88693  15
  -7   3  10 92.4721 5.58657   1
   6  -3 -10 240.867 13.9948   7
  -6   3  10 232.764 13.9738  11
  -6   3  10 215.422 14.1604  15
  -6   3  10 210.372 14.1064  13
  -6   3  10 255.682 14.0579   1
   5  -3 -10 9.66979 1.29343   7
  -5   3  10 8.01363 0.98480   1
  -5   3  10 8.78956 1.20448  15
  -5   3  10 9.08174 1.10054  11
  -5   3  10 10.5459 1.09685  13
   4  -3 -10 53.3930 3.49143   7
  -4   3  10 49.4857 3.54226  15
  -4   3  10 52.1760 3.39580  11
   3  -3 -10 76.7387 4.76834   7
  -3   3  10 69.4634 4.78002  15
   2  -3 -10 4.22134 0.73263   6
  -2   3  10 4.69810 0.91523  15
   1  -3 -10 250.367 14.8111   2
   1  -3 -10 228.994 14.8648   6
   1  -3 -10 253.602 14.9163   7
   0  -3 -10 15.1704 1.88861   7
   0  -3 -10 16.5469 1.51951   6
   0  -3 -10 20.7500 1.80104   2
   0   3  10 18.3468 1.43862   3
  -1  -3 -10 14.3776 1.40593   2
   1   3  10 16.1737 1.15503   3
  -2  -3 -10 88.9340 5.60026   7
  -2  -3 -10 89.2492 5.52410   2
  -8   4  10 2.05695 0.39861  15
  -8   4  10 2.80387 0.60413   1
  -8   4  10 2.59252 0.41814  11
   7  -4 -10 51.9596 3.48831   7
  -7   4  10 53.8207 4.53667   1
  -7   4  10 59.8047 3.45320  11
  -7   4  10 52.8224 3.57689  15
   6  -4 -10 17.1135 1.62330   7
  -6   4  10 14.4619 1.44823  15
  -6   4  10 15.9250 1.32331  11
   5  -4 -10 11.3848 1.33077   7
  -5   4  10 11.4623 1.12329  13
  -5   4  10 12.4555 1.17516  11
  -5   4  10 10.4139 1.24910  15
   4  -4 -10 43.7762 2.94042   7
  -4   4  10 41.8173 2.82089  11
  -4   4  10 41.4347 2.96346  15
   3  -4 -10 39.8129 2.79758   7
  -3   4  10 37.4314 2.72226  15
   2  -4 -10 138.302 9.02050   6
   2  -4 -10 160.601 9.10936   7
   2  -4 -10 149.200 9.07798   2
  -2   4  10 138.954 9.05893  15
   1  -4 -10 64.8074 4.17356   7
   1  -4 -10 56.0127 3.98245   6
   1  -4 -10 67.3420 4.01487   2
   0  -4 -10 35.2847 2.34581   2
   0  -4 -10 32.8459 2.56613   7
  -1  -4 -10 0.26032 0.36718   2
  -1  -4 -10 -0.0422 0.60842   7
   1   4  10 0.47398 0.28107   3
   7  -5 -10 12.1859 1.00733   7
  -7   5  10 10.2305 1.01361  15
  -7   5  10 12.0576 0.95548  11
   6  -5 -10 99.9950 5.90480   7
  -6   5  10 86.3554 5.97338  15
  -6   5  10 99.9558 5.86017  11
   5  -5 -10 -0.4927 0.54778   7
  -5   5  10 -0.2982 0.44605  11
  -5   5  10 0.33547 0.36521  13
  -5   5  10 -0.2683 0.51072  15
   4  -5 -10 1.69011 0.68857   7
  -4   5  10 2.42493 0.75406  15
   3  -5 -10 298.791 19.5107   6
   3  -5 -10 363.885 19.5852   7
  -3   5  10 308.369 19.5720  15
   2  -5 -10 16.5965 1.77440   7
   2  -5 -10 20.0943 1.74917   2
   2  -5 -10 14.2901 1.28160   6
  -2   5  10 16.6016 1.31100  15
   1  -5 -10 54.3479 3.62504   2
   1  -5 -10 52.9341 3.58056   7
   0  -5 -10 37.9397 2.46045   2
   6  -6 -10 42.4681 2.65808   7
  -6   6  10 31.9980 2.55258  15
   5  -6 -10 0.61444 0.49186   7
   5  -6 -10 0.59074 0.45054   6
  -5   6  10 0.90709 0.46673  15
   4  -6 -10 39.2405 2.54112   6
  -4   6  10 39.7894 2.63376  15
   3  -6 -10 2.98553 0.61923   7
  -3   6  10 2.21171 0.52473  15
   2  -6 -10 65.8243 4.23824   7
   1  -6 -10 50.2853 3.20284   7
   4  -7 -10 191.709 11.6010   7
  -2 -10  11 81.2555 4.95461   3
  -1 -10  11 108.448 6.33253   3
  -1 -10  11 99.2719 6.33978   9
   0 -10  11 22.6502 1.47000   3
   0 -10  11 19.9798 1.39589  12
   1 -10  11 138.485 8.62677  12
   1 -10  11 146.236 8.63318   3
   2 -10  11 6.15099 0.56490  12
   2 -10  11 5.55704 0.55992   3
   3 -10  11 43.7479 2.70728  12
  -3  -9  11 7.82553 0.87713   9
  -3  -9  11 6.41248 0.74250   3
  -2  -9  11 35.5658 2.27893   3
  -2  -9  11 33.9926 2.32942   9
  -1  -9  11 12.8873 1.06791   3
  -1  -9  11 13.5122 1.10708   9
  -1  -9  11 11.0338 0.92977  12
   0  -9  11 100.374 6.27587   9
   0  -9  11 103.171 6.25342   3
   0  -9  11 99.9410 6.18037  12
   1  -9  11 0.44897 0.31014  12
   1  -9  11 -0.0683 0.34319   9
   1  -9  11 0.31413 0.37154   3
   2  -9  11 9.21798 0.83252  12
   2  -9  11 9.74989 0.86399   3
   3  -9  11 105.316 6.52410  12
   3  -9  11 109.023 6.53823   3
   4  -9  11 12.5669 0.88562  12
  -4  -8  11 23.5507 1.68161   9
  -4  -8  11 24.2153 1.53564  13
  -4  -8  11 23.2762 1.55443   3
  -4  -8  11 23.5671 1.59485  15
  -3  -8  11 73.8088 4.59748   9
  -3  -8  11 72.3887 4.40824  13
  -3  -8  11 72.6182 4.56810   1
  -3  -8  11 68.9377 4.45245  15
  -3  -8  11 71.6280 4.47757   3
  -2  -8  11 86.1320 5.51590  13
  -2  -8  11 92.8919 5.71632   1
  -2  -8  11 90.9995 5.62706   3
  -2  -8  11 91.7879 5.74551   9
  -1  -8  11 115.051 7.42975  12
  -1  -8  11 125.544 7.63948   9
  -1  -8  11 125.928 7.54044   3
   0  -8  11 9.17951 1.08282   9
   0  -8  11 8.94850 0.83368  12
   0  -8  11 9.10550 0.99437   3
  -1   8 -11 25.1265 1.82382   6
   1  -8  11 25.5262 1.80628   3
   1  -8  11 24.4775 1.74771  12
   1  -8  11 24.7360 2.07362   9
  -2   8 -11 111.481 6.78265   6
   2  -8  11 104.183 6.75871   9
   2  -8  11 112.367 6.71995  12
  -3   8 -11 74.9615 4.90231   6
   3  -8  11 80.0935 4.83134   3
   3  -8  11 79.1049 4.82914  12
  -4   8 -11 92.7706 5.84524   6
   4  -8  11 95.9025 5.84386  12
   4  -8  11 96.3018 5.77023   3
  -5  -7  11 0.53506 0.28648  13
  -5  -7  11 0.21671 0.33142  15
  -5  -7  11 -0.0779 0.46588   1
  -5  -7  11 0.83434 0.50320   9
  -4  -7  11 0.38750 0.32760   3
  -4  -7  11 0.44775 0.47492   9
  -4  -7  11 -0.5408 0.48769   1
  -4  -7  11 0.28699 0.32344  13
  -4  -7  11 0.04022 0.36629  15
  -3  -7  11 142.386 8.25289   1
  -3  -7  11 129.421 8.30638   9
  -3  -7  11 129.223 8.18381  15
  -3  -7  11 131.859 8.10546  13
  -3  -7  11 131.917 8.15962   3
  -2  -7  11 132.008 7.77957   1
  -2  -7  11 122.282 7.82021   9
  -2  -7  11 121.961 7.58728  13
  -2  -7  11 125.892 7.68678   3
  -2  -7  11 119.372 7.69738  15
  -1  -7  11 23.7720 2.02475   1
  -1  -7  11 25.3241 1.78727   3
  -1  -7  11 23.2222 1.61457  13
  -1  -7  11 23.8474 1.62365  12
  -1  -7  11 21.3543 1.93489   9
   0   7 -11 204.592 12.0109   6
   0  -7  11 192.522 11.8770  12
   0  -7  11 190.217 11.9431   3
  -1   7 -11 79.6880 5.06221   6
   1  -7  11 81.2085 4.97416   3
   1  -7  11 74.6962 4.89395  12
  -2   7 -11 6.29764 1.02801   6
   2  -7  11 5.81873 0.85144   3
   2  -7  11 6.13781 0.76943  12
  -3   7 -11 31.8244 2.38989   6
   3  -7  11 35.6283 2.27370   3
   3  -7  11 33.1954 2.23052  12
  -4   7 -11 50.5508 3.49101   6
   4  -7  11 55.3055 3.38475  12
   4  -7  11 56.0157 3.40670   3
  -6  -6  11 52.9440 3.29674  13
  -6  -6  11 54.5036 3.32889   1
  -6  -6  11 51.4822 3.35972   9
  -5  -6  11 51.4039 3.34617  15
  -5  -6  11 52.4681 3.38798   1
  -5  -6  11 51.3533 3.28264  13
  -5  -6  11 52.8225 3.44039   9
  -4  -6  11 8.09546 0.90539  15
  -4  -6  11 7.80771 0.95475   3
  -4  -6  11 7.78627 1.18291   1
  -4  -6  11 8.07012 0.85780  13
  -4  -6  11 9.47089 1.11967   9
  -3  -6  11 20.8311 1.82464   1
  -3  -6  11 21.2021 1.56067  13
  -3  -6  11 20.4872 1.82665   9
  -3  -6  11 20.1845 1.58628   3
  -3  -6  11 20.7747 1.55274  15
  -2  -6  11 30.0459 2.27229   1
  -2  -6  11 28.3856 2.26714   9
  -2  -6  11 27.7078 2.01959   3
  -2  -6  11 29.3547 1.96408  13
  -2  -6  11 23.6866 1.89976  15
   1   6 -11 151.456 9.21266   6
  -1  -6  11 147.703 9.05968  13
  -1  -6  11 146.152 9.14195   3
   0   6 -11 104.986 6.55875   6
   0  -6  11 99.9702 6.33619  12
   0  -6  11 103.396 6.43038   3
   0  -6  11 102.438 6.51659   1
  -1   6 -11 22.8239 1.96910   6
   1  -6  11 22.5609 1.64267  12
   1  -6  11 22.2011 1.73389   3
  -2   6 -11 -0.1993 0.55058   6
   2  -6  11 -0.3206 0.48960   3
   2  -6  11 -0.4766 0.38192  12
  -3   6 -11 67.9974 4.57421   7
  -3   6 -11 65.4615 4.57882   6
   3  -6  11 77.6831 4.53485  12
   3  -6  11 69.0015 4.40823   3
  -4   6 -11 2.28740 0.57599   6
  -4   6 -11 1.74912 0.50923   7
   4  -6  11 2.97099 0.48218   3
   4  -6  11 3.02602 0.43363  12
  -5   6 -11 10.1785 0.85559   6
   5  -6  11 9.70181 0.73870  12
  -7  -5  11 123.699 7.31852  13
  -7  -5  11 118.931 7.35440  15
  -6  -5  11 202.287 12.2329  13
  -6  -5  11 200.604 12.2871  15
  -6  -5  11 205.067 12.2636   1
  -6  -5  11 202.272 12.3248   9
  -5  -5  11 0.44231 0.45200  15
  -5  -5  11 0.72127 0.53241   1
  -5  -5  11 -0.3148 0.50405   9
  -5  -5  11 0.33726 0.43193  13
  -4  -5  11 83.7871 5.25973   1
  -4  -5  11 81.5918 5.13904   3
  -4  -5  11 78.0693 5.19650  15
  -4  -5  11 85.8609 5.18424  13
  -3  -5  11 39.1417 2.73959  15
  -3  -5  11 41.8729 2.74826  13
  -3  -5  11 41.0456 2.88045   1
  -3  -5  11 41.2268 2.75402   3
   2   5 -11 21.6332 1.84537   6
  -2  -5  11 21.3197 1.64123   3
  -2  -5  11 20.4377 1.82041   1
  -2  -5  11 17.8715 1.50609  15
  -2  -5  11 21.1802 1.62154  13
   1   5 -11 225.557 13.8701   6
  -1  -5  11 219.922 13.7036  13
  -1  -5  11 232.472 13.8237   1
  -1  -5  11 225.203 13.7584   3
   0   5 -11 225.031 13.0388   6
   0  -5  11 188.849 12.7903   3
   0  -5  11 207.279 12.7970  12
   0  -5  11 209.293 12.8043  13
   0  -5  11 220.429 13.1302   1
  -1   5 -11 22.7710 1.97724   6
   1  -5  11 21.8843 1.71076   3
   1  -5  11 21.1943 1.58207  12
  -2   5 -11 506.454 30.2866   7
  -2   5 -11 495.844 30.4130   6
   2  -5  11 514.118 30.2385   3
   2  -5  11 493.732 30.1801  12
  -3   5 -11 154.606 10.1291   6
  -3   5 -11 164.119 9.97072  11
  -3   5 -11 168.548 10.0594   7
   3  -5  11 167.606 9.97435   3
   3  -5  11 161.447 9.93512  12
  -4   5 -11 82.0705 5.83592   6
  -4   5 -11 100.939 5.86920   7
  -4   5 -11 100.626 6.06820  11
   4  -5  11 94.2500 5.73082   3
   4  -5  11 88.2125 5.70456  12
  -5   5 -11 11.7951 0.97741   6
   5  -5  11 13.4778 0.88996  12
  -7  -4  11 175.539 10.4237   1
  -7  -4  11 163.752 10.3710  15
  -7  -4  11 174.138 10.3431  13
  -6  -4  11 27.5123 2.04463  15
  -6  -4  11 24.8922 2.05758   9
  -6  -4  11 31.2565 2.10597  13
  -6  -4  11 34.1903 2.38417   1
  -5  -4  11 160.989 10.2332  15
  -5  -4  11 172.974 10.1963  13
  -5  -4  11 161.602 10.3321   9
  -5  -4  11 170.735 10.2150   1
  -4  -4  11 141.422 8.65721   1
  -4  -4  11 137.918 8.61197  13
  -4  -4  11 137.315 8.66574  15
  -4  -4  11 139.770 8.56129   3
  -4  -4  11 142.890 8.83168   9
   3   4 -11 213.856 13.4340   6
  -3  -4  11 208.437 13.2925  15
  -3  -4  11 207.314 13.2667   9
  -3  -4  11 206.425 13.0445  13
  -3  -4  11 241.160 13.2627   3
  -3  -4  11 209.214 13.0882   1
   2   4 -11 -0.1605 0.57562   6
  -2  -4  11 0.11723 0.58966   1
  -2  -4  11 0.19637 0.47594   3
  -2  -4  11 -0.4151 0.43403  15
  -2  -4  11 0.31604 0.55263  13
   1   4 -11 1.68671 0.73386   6
  -1  -4  11 3.41494 0.68497  13
  -1  -4  11 2.50178 0.76172   1
  -1  -4  11 2.54205 0.56898   3
   0   4 -11 29.5958 2.28887   6
   0  -4  11 26.7335 1.88142  12
   0  -4  11 26.2891 1.90787  13
   0  -4  11 26.8184 1.97342   3
   0  -4  11 24.8059 2.10786   1
  -1   4 -11 356.720 22.5808   7
  -1   4 -11 413.496 23.0129   6
   1  -4  11 359.413 22.4365  13
   1  -4  11 365.021 22.6233   3
   1  -4  11 372.432 22.4550  12
  -2   4 -11 49.5735 3.59289   7
  -2   4 -11 47.5891 3.56616   6
   2  -4  11 52.7284 3.34266   3
   2  -4  11 52.8329 3.28017  12
  -3   4 -11 174.205 11.9818  11
  -3   4 -11 174.717 11.7048   6
   3  -4  11 213.489 11.6092  12
   3  -4  11 197.480 11.5719   3
  -4   4 -11 1.32683 0.58002  11
  -4   4 -11 1.86485 0.63428   7
  -4   4 -11 1.58156 0.54471   6
   4  -4  11 2.33660 0.44543  12
   4  -4  11 1.58716 0.44329   3
  -5   4 -11 2.63614 0.47103   6
   5  -4  11 3.31196 0.39389   3
   5  -4  11 3.19874 0.43929  12
  -7  -3  11 9.53873 0.86356  13
  -7  -3  11 10.5643 1.07175   1
  -7  -3  11 9.63014 0.92024  15
  -6  -3  11 132.011 8.03166  13
  -6  -3  11 129.647 8.09894  15
  -6  -3  11 127.802 8.08840   9
  -6  -3  11 133.539 8.04427   1
  -5  -3  11 100.675 6.55863  15
  -5  -3  11 108.512 6.53561   1
  -5  -3  11 104.694 6.65601   9
  -5  -3  11 103.207 6.50702  13
   4   3 -11 99.2866 6.74723   6
  -4  -3  11 105.806 6.81497  15
  -4  -3  11 120.034 7.16899   9
   3   3 -11 44.1262 3.12316   6
  -3  -3  11 46.5951 3.13792   1
  -3  -3  11 44.0420 3.06041  15
  -3  -3  11 47.5024 3.07876  13
  -3  -3  11 43.6774 2.97281   3
   2   3 -11 39.1125 2.66241   6
  -2  -3  11 35.6066 2.58506   1
  -2  -3  11 35.7668 2.50576  13
  -2  -3  11 36.8798 2.45925   3
  -2  -3  11 30.2372 2.46359  15
   1   3 -11 136.555 8.43756   6
  -1  -3  11 132.958 8.25630   3
  -1  -3  11 131.759 8.30955   1
   0   3 -11 27.5334 2.32951   6
   0   3 -11 29.4139 2.35872   7
   0  -3  11 28.1015 2.05031   3
  -1   3 -11 53.2771 3.99063   6
  -1   3 -11 52.9205 3.77219   7
   1  -3  11 55.3773 3.44830  12
  -2   3 -11 53.3943 3.77255   7
   2  -3  11 53.5034 3.46058   3
   2  -3  11 52.1457 3.37627  12
  -3   3 -11 53.0794 3.93630   6
  -3   3 -11 64.4020 4.75697   7
   3  -3  11 61.3821 3.80387   3
   3  -3  11 59.9504 3.74273  12
  -4   3 -11 52.1061 3.39445  11
  -4   3 -11 54.5619 3.53995   7
   4  -3  11 51.4342 3.29481   3
   4  -3  11 51.1178 3.26369  12
  -8  -2  11 0.17818 0.28614  15
  -8  -2  11 -0.4396 0.30260   1
  -7  -2  11 42.1793 2.75828  13
  -7  -2  11 46.5633 2.84102   1
  -7  -2  11 40.0480 2.83372  15
  -6  -2  11 12.2941 1.24355   1
  -6  -2  11 9.65170 1.05808  13
  -6  -2  11 10.5955 1.00677   9
  -6  -2  11 9.31174 1.08690  15
   5   2 -11 108.793 6.91059   6
  -5  -2  11 110.602 6.93415  13
  -5  -2  11 106.575 6.98864  15
  -5  -2  11 123.343 6.94907   1
  -5  -2  11 116.749 7.06440   9
  -5  -2  11 101.503 6.77509  11
  -4  -2  11 472.468 26.6106   9
  -4  -2  11 423.251 26.2672  15
  -4  -2  11 363.467 26.0916  13
  -4  -2  11 474.419 26.2376   1
   3   2 -11 85.3984 5.34359   6
  -3  -2  11 84.4253 5.28242   1
  -3  -2  11 77.9609 5.26868  15
  -3  -2  11 82.5573 5.19075   3
  -3  -2  11 83.7860 5.27921  13
   2   2 -11 245.871 16.7450   7
   2   2 -11 282.946 16.5611   6
  -2  -2  11 289.546 16.4263   3
  -2  -2  11 259.957 16.4626  15
  -2  -2  11 276.131 16.4273   1
   1   2 -11 213.978 12.6349   6
   1   2 -11 187.441 12.5142   7
  -1  -2  11 204.887 12.4707   1
  -1  -2  11 212.229 12.4652   3
   0   2 -11 161.507 9.70884   6
   0   2 -11 147.464 9.63285   7
   0  -2  11 155.099 9.48279   3
  -1   2 -11 2.80050 0.84616   7
  -1   2 -11 2.41830 0.78344   6
   1  -2  11 2.24911 0.48997  12
   1  -2  11 3.57103 0.63764   3
  -2   2 -11 20.2920 2.11224   7
  -2   2 -11 19.9021 1.84661   6
   2  -2  11 23.5761 1.64710   3
   2  -2  11 21.1223 1.51154  12
  -3   2 -11 0.20246 0.95904   7
  -3   2 -11 0.57053 0.54591   6
   3  -2  11 1.11130 0.36986  12
  -4   2 -11 25.7065 1.79003  11
  -4   2 -11 25.3542 1.97199   7
   4  -2  11 22.4632 1.55833  12
   4  -2  11 22.7212 1.60838   3
  -8  -1  11 194.159 13.0826  15
  -8  -1  11 238.844 13.1299   1
  -7  -1  11 16.9106 1.32118   1
  -7  -1  11 14.5850 1.16869  13
  -7  -1  11 13.9179 1.26944  15
  -7  -1  11 14.4779 1.06456  11
   6   1 -11 31.1415 2.40108   6
  -6  -1  11 30.0277 2.35586  15
  -6  -1  11 32.7062 2.29697  13
  -6  -1  11 37.2818 2.36762   1
  -6  -1  11 34.0685 2.24427  11
  -5  -1  11 104.182 6.51235  13
  -5  -1  11 112.836 6.47796   1
  -5  -1  11 104.145 6.56622  15
  -5  -1  11 98.7361 6.52572   9
  -5  -1  11 97.9400 6.36285  11
  -4  -1  11 0.54522 0.73593  15
  -4  -1  11 0.35593 0.66465  13
  -4  -1  11 0.99033 0.90579   9
   3   1 -11 398.099 22.8687   6
   3   1 -11 364.338 22.8335   7
  -3  -1  11 381.663 22.7442   1
  -3  -1  11 364.980 22.8212  15
   2   1 -11 214.959 12.2012   6
   2   1 -11 187.993 12.0834   7
  -2  -1  11 190.994 12.0228   1
  -2  -1  11 187.343 12.0672  15
  -2  -1  11 207.487 12.0331   3
   1   1 -11 55.1792 3.83499   7
   1   1 -11 57.8687 3.83034   6
  -1  -1  11 54.9317 3.60462   3
   0   1 -11 305.294 16.3819   6
   0  -1  11 226.426 16.1864   3
  -1   1 -11 439.229 25.5874   7
  -1   1 -11 398.156 25.5687   6
   1  -1  11 429.405 25.4252   3
  -2   1 -11 176.481 10.2179   7
  -2   1 -11 146.756 10.1179   6
   2  -1  11 174.598 10.0252   3
   2  -1  11 159.224 9.93680  12
  -3   1 -11 17.4942 1.77728   7
  -3   1 -11 15.3727 1.39080   6
   3  -1  11 17.2023 1.21645  12
   3  -1  11 17.5091 1.28857   3
  -4   1 -11 217.895 12.2139   7
  -4   1 -11 201.207 12.1597  11
   4  -1  11 185.457 12.1150   3
  -8   0  11 9.98326 1.21856   1
  -8   0  11 8.40367 0.93044  15
   7   0 -11 0.79013 0.40516   6
  -7   0  11 1.75531 0.40329  11
  -7   0  11 1.23126 0.49007  15
  -7   0  11 1.26544 0.46415   1
  -7   0  11 1.82786 0.42776  13
  -6   0  11 115.396 7.53858  13
  -6   0  11 133.302 7.54686   1
  -6   0  11 123.100 7.46221  11
  -6   0  11 116.818 7.63245  15
  -5   0  11 23.0978 1.75002   1
  -5   0  11 21.1429 1.64225  11
  -5   0  11 21.7214 1.73967  13
  -5   0  11 20.7867 1.78784  15
   4   0 -11 114.087 7.43621   7
  -4   0  11 119.538 7.44280   1
  -4   0  11 118.263 7.55577   9
  -4   0  11 130.353 7.70134  15
   3   0 -11 2.31994 0.69142   6
  -3   0  11 2.74146 0.74590  15
   2   0 -11 99.2516 6.08864   6
   2   0 -11 94.9568 6.06259   7
  -2   0  11 91.0704 6.33862  15
   1   0 -11 2.70279 0.75850   6
  -1   0  11 2.94745 0.59112   3
   0   0 -11 209.792 13.4148   6
   0   0 -11 222.472 13.4124   7
   0   0  11 222.916 13.2541   3
  -1   0 -11 51.5292 3.53241   7
  -1   0 -11 43.5032 3.30401   6
   1   0  11 50.1343 3.15068   3
  -2   0 -11 -1.3344 1.14293   7
  -2   0 -11 -0.0656 0.49789   6
   2   0  11 -0.0183 0.44744  12
   2   0  11 0.47091 0.58197   3
  -3   0 -11 182.940 11.0144  11
  -3   0 -11 189.355 11.0750   7
   3   0  11 171.523 10.9423   3
  -8   1  11 0.54211 0.36589   1
  -8   1  11 0.85889 0.44762  15
  -8   1  11 0.93674 0.30511  11
  -7   1  11 63.7919 3.79432  11
  -7   1  11 69.2374 3.86754   1
  -7   1  11 54.9477 3.78575  13
  -7   1  11 55.1388 3.91206  15
  -6   1  11 46.8831 3.44417  15
  -6   1  11 50.8115 3.35933  13
  -6   1  11 53.1305 3.32235  11
  -6   1  11 55.9194 3.36716   1
   5  -1 -11 59.7957 3.77555   7
  -5   1  11 59.6172 3.75645  11
  -5   1  11 58.6232 3.92375  15
  -5   1  11 56.4386 3.82452  13
  -5   1  11 58.6395 3.76399   1
   4  -1 -11 18.5325 1.65596   7
  -4   1  11 19.9177 1.56888  11
  -4   1  11 18.1305 1.54490   1
  -4   1  11 18.8513 1.62697  15
   3  -1 -11 164.709 9.92481   7
   3  -1 -11 167.371 10.0010   6
  -3   1  11 151.629 9.94826  15
   2  -1 -11 -0.1178 0.65532   7
   2  -1 -11 0.27000 0.60807   6
  -2   1  11 -0.5206 0.46260  15
   1  -1 -11 174.361 11.2196   6
   1  -1 -11 189.185 11.2333   7
  -1   1  11 182.987 11.0569   3
   0  -1 -11 79.8012 5.18552   7
   0  -1 -11 74.5322 5.08043   6
   0   1  11 82.2371 4.92229   3
  -1  -1 -11 2.31371 0.68136   2
  -1  -1 -11 -0.5103 0.71401   7
  -1  -1 -11 0.06852 0.60856   6
   1   1  11 0.82663 0.53774   3
  -2  -1 -11 2.67387 0.45560   6
  -2  -1 -11 1.91524 0.68728   7
   2   1  11 3.68494 0.49393   3
  -3  -1 -11 4.12672 0.71756  11
  -3  -1 -11 3.55259 0.58225   7
   3   1  11 4.66157 0.50635   3
  -8   2  11 5.80361 0.65048   1
  -8   2  11 5.87488 0.57973  11
  -8   2  11 4.96553 0.62046  15
  -7   2  11 180.136 10.4593   1
  -7   2  11 159.362 10.5635  15
  -7   2  11 178.889 10.4468  11
   6  -2 -11 28.6869 1.95913   7
  -6   2  11 24.4072 1.90333  13
  -6   2  11 26.7742 2.07449  15
  -6   2  11 29.2109 1.95209  11
  -6   2  11 29.2190 1.93297   1
   5  -2 -11 52.2038 3.41656   7
  -5   2  11 54.9175 3.39056  11
  -5   2  11 52.7219 3.41882  13
  -5   2  11 49.0770 3.48680  15
   4  -2 -11 113.736 6.98206   7
  -4   2  11 112.959 6.93152  11
  -4   2  11 110.083 7.06687  15
   3  -2 -11 234.369 14.1793   6
   3  -2 -11 240.628 14.1440   7
  -3   2  11 221.727 14.1642  15
   2  -2 -11 64.9465 4.04350   7
   2  -2 -11 57.8790 3.96460   6
  -2   2  11 57.4022 3.86688  15
   1  -2 -11 21.6776 1.97297   7
   1  -2 -11 20.6643 1.69927   6
  -1   2  11 18.6729 1.40887   3
   0  -2 -11 110.028 6.63648   7
   0  -2 -11 98.9074 6.59502   6
   0   2  11 104.468 6.38821   3
  -1  -2 -11 23.3768 1.70420   2
  -1  -2 -11 19.1366 1.63844   6
  -1  -2 -11 23.8525 2.06317   7
   1   2  11 25.1412 1.57310   3
   2   2  11 23.6006 1.54618   3
   8  -3 -11 15.3297 1.09790   6
  -8   3  11 15.5539 1.08748  15
  -7   3  11 26.1512 1.77292   1
  -7   3  11 30.1766 1.82798  11
  -7   3  11 25.0975 1.89244  15
   6  -3 -11 134.960 7.96197   7
  -6   3  11 129.087 8.08762  15
  -6   3  11 146.747 7.97507  11
  -6   3  11 116.995 7.93129  13
  -6   3  11 125.416 8.00934   1
   5  -3 -11 197.514 11.2591   7
  -5   3  11 187.369 10.9643  11
  -5   3  11 177.469 11.0271  13
  -5   3  11 160.181 11.0654  15
   4  -3 -11 50.7815 3.23141   7
  -4   3  11 45.3854 3.23355  15
   3  -3 -11 27.2281 2.10532   7
   3  -3 -11 25.9289 1.99079   6
  -3   3  11 25.4917 2.03729  15
   2  -3 -11 86.7729 5.07127   7
   2  -3 -11 75.8220 4.98624   6
  -2   3  11 73.0958 4.91155  15
   1  -3 -11 15.0542 1.35438   6
   1  -3 -11 16.1112 1.77929   7
   0  -3 -11 34.9160 2.23961   6
   0   3  11 33.1087 2.25590   3
  -1  -3 -11 4.15632 0.76332   7
  -7   4  11 32.5704 2.31880  15
  -7   4  11 38.2381 2.25984  11
   6  -4 -11 1.72239 0.67391   7
  -6   4  11 2.44146 0.51334  15
  -6   4  11 1.92626 0.45966  11
  -5   4  11 0.11852 0.33602  13
   4  -4 -11 67.2505 4.01684   7
   4  -4 -11 60.2410 3.97156   6
  -4   4  11 58.7500 3.98659  15
   3  -4 -11 1.08762 0.47790   6
   3  -4 -11 0.77235 0.59033   7
  -3   4  11 1.33337 0.46003  15
   2  -4 -11 27.0899 1.98894   7
   2  -4 -11 21.4414 1.71831   6
   1  -4 -11 88.4519 5.57056   7
   0  -4 -11 20.3606 1.74381   7
   6  -5 -11 0.43801 0.33166   6
  -6   5  11 0.50557 0.31636  15
   5  -5 -11 2.48164 0.58261   7
   4  -5 -11 3.70866 0.62592   7
   4  -5 -11 4.59966 0.75020   6
  -4   5  11 5.66510 0.55054  13
  -4   5  11 3.91644 0.65763  15
   3  -5 -11 12.0015 0.97593   6
   3  -5 -11 15.0392 1.31148   7
  -3   5  11 10.6547 1.02732  15
   2  -5 -11 36.5581 2.65735   7
   1  -5 -11 83.0391 5.12901   7
   0 -10  12 36.7750 2.30222   3
   1 -10  12 5.02436 0.47239   3
  -3  -9  12 24.3616 1.56157   3
  -3  -9  12 24.8536 1.61305   9
  -2  -9  12 30.4692 2.07833   9
  -2  -9  12 33.3557 2.04960   3
  -1  -9  12 65.2620 4.05962   3
  -1  -9  12 65.5553 4.10982   9
   0  -9  12 3.07069 0.45462  12
   0  -9  12 3.14997 0.51896   9
   0  -9  12 2.50680 0.44309   3
   1  -9  12 53.7544 3.42554  12
   1  -9  12 63.9035 3.51221   3
   1  -9  12 50.3500 3.53448   9
   2  -9  12 3.63802 0.47406   3
   2  -9  12 3.17038 0.39404  12
  -4  -8  12 1.01425 0.30070   9
  -3  -8  12 89.9456 5.41625   9
  -3  -8  12 83.7969 5.27795  13
  -2  -8  12 0.29441 0.48341   9
  -2  -8  12 0.36416 0.34395   3
  -1  -8  12 30.3005 2.18060   9
  -1  -8  12 31.3014 2.08457   3
   0  -8  12 420.054 27.0715  12
   0  -8  12 483.706 27.1208   3
   0  -8  12 449.992 27.1732   9
   1  -8  12 2.64033 0.47774   3
   1  -8  12 2.02950 0.48564   9
   1  -8  12 2.51354 0.36967  12
  -2   8 -12 0.38953 0.33297   6
   2  -8  12 0.77681 0.38794  12
   2  -8  12 0.53570 0.29609   9
   2  -8  12 0.95883 0.35465   3
  -3   8 -12 57.6824 3.80894   6
   3  -8  12 59.9472 3.69523  12
   3  -8  12 63.2340 3.71689   3
  -5  -7  12 5.47966 0.60405   9
  -5  -7  12 5.13580 0.54493  15
  -5  -7  12 6.33062 0.49498  13
  -4  -7  12 32.3816 2.18074   3
  -4  -7  12 38.3557 2.38938   1
  -4  -7  12 35.1423 2.35353   9
  -4  -7  12 31.4455 2.20953  15
  -4  -7  12 36.8191 2.21659  13
  -3  -7  12 86.0597 5.55556   3
  -3  -7  12 88.3967 5.51849  13
  -3  -7  12 89.6927 5.70680   9
  -3  -7  12 97.1095 5.68161   1
  -2  -7  12 0.65801 0.30577  13
  -2  -7  12 0.44721 0.58274   1
  -2  -7  12 0.38002 0.49481   9
  -1  -7  12 325.213 19.5935   9
  -1  -7  12 320.222 19.4725   3
   0   7 -12 14.3928 1.24491   6
   0  -7  12 15.4058 1.41774   9
   0  -7  12 14.1800 1.19748   3
   0  -7  12 13.4368 1.01573  12
  -1   7 -12 8.38105 0.93372   6
   1  -7  12 8.71376 0.92229   3
   1  -7  12 6.49781 0.69319  12
  -2   7 -12 129.671 7.93078   6
   2  -7  12 130.753 7.85433   3
   2  -7  12 125.276 7.80189  12
  -3   7 -12 79.9013 5.23853   6
   3  -7  12 88.7028 5.12915   3
   3  -7  12 81.7015 5.09437  12
  -5  -6  12 0.53966 0.38997   9
  -5  -6  12 1.05114 0.39587  15
  -5  -6  12 0.46162 0.45867   1
  -5  -6  12 1.08693 0.34059  13
  -4  -6  12 22.6877 1.50537  13
  -4  -6  12 22.1641 1.69422   9
  -4  -6  12 22.5009 1.76958   1
  -4  -6  12 19.7966 1.44402   3
  -4  -6  12 20.1263 1.50388  15
  -3  -6  12 5.96744 1.17950   1
  -3  -6  12 4.84350 0.69880  15
  -3  -6  12 6.31681 1.00482   9
  -3  -6  12 8.27627 0.87058  13
  -3  -6  12 7.62203 0.83083   3
  -2  -6  12 120.036 7.44944   3
  -2  -6  12 123.967 7.40485  13
  -2  -6  12 125.389 7.54705   1
  -2  -6  12 113.943 7.60028   9
   1   6 -12 -0.2430 0.59596   6
  -1  -6  12 -0.5195 0.57076   1
  -1  -6  12 0.55546 0.43061   3
   0   6 -12 157.401 9.66038   6
   0  -6  12 151.889 9.45216  12
   0  -6  12 159.178 9.56129   3
  -1   6 -12 230.351 13.9988   6
   1  -6  12 241.664 13.9022   3
   1  -6  12 215.108 13.7994  12
  -2   6 -12 61.5516 4.19590   6
   2  -6  12 59.4978 3.98128  12
   2  -6  12 72.3889 4.13298   3
  -3   6 -12 18.1315 1.50705   6
   3  -6  12 18.1889 1.38217  12
   3  -6  12 19.7193 1.36266   3
  -4   6 -12 24.6476 1.69432   6
   4  -6  12 27.6232 1.64175   3
   4  -6  12 23.3179 1.58359  12
  -6  -5  12 68.7305 4.36364  15
  -6  -5  12 78.9057 4.68854   1
  -6  -5  12 72.0387 4.35771  13
  -6  -5  12 63.3988 4.36120   9
  -5  -5  12 18.8245 1.47392   9
  -5  -5  12 18.0877 1.32431  13
  -5  -5  12 17.1279 1.34670  15
  -5  -5  12 18.6495 1.51859   1
  -4  -5  12 31.6673 2.23965   1
  -4  -5  12 34.2707 2.10262  13
  -4  -5  12 28.6457 2.05905  15
  -4  -5  12 30.0788 2.25954   9
  -4  -5  12 27.5209 1.96836   3
  -3  -5  12 33.6186 2.36161   1
  -3  -5  12 27.9805 2.21823  15
  -3  -5  12 30.9011 2.37185   9
  -3  -5  12 33.1971 2.15198  13
  -3  -5  12 31.3698 2.13599   3
   2   5 -12 15.4544 1.40507   6
  -2  -5  12 15.8363 1.27081  13
  -2  -5  12 15.8001 1.29168   3
  -2  -5  12 16.2761 1.62868   1
   1   5 -12 105.267 6.69696   6
  -1  -5  12 103.547 6.57988   3
  -1  -5  12 106.094 6.52618  13
  -1  -5  12 108.912 6.66646   1
   0   5 -12 26.0465 2.12713   6
   0  -5  12 28.7160 1.96377   3
   0  -5  12 26.2977 1.87108  13
  -1   5 -12 13.8924 1.48105   6
   1  -5  12 14.2552 1.19590   3
   1  -5  12 12.6658 1.02282  12
  -2   5 -12 42.6355 3.14689   6
  -2   5 -12 43.2713 2.94306  11
   2  -5  12 42.4062 2.78234  12
   2  -5  12 47.4316 2.90847   3
  -3   5 -12 33.0590 2.36712   6
  -3   5 -12 32.6479 2.27029  11
  -3   5 -12 34.3153 2.41788   7
   3  -5  12 31.9688 2.24243  12
   3  -5  12 37.6654 2.24563   3
  -4   5 -12 3.53948 0.56842   6
   4  -5  12 2.29093 0.37884  12
   4  -5  12 3.79394 0.43558   3
  -7  -4  12 116.209 7.33346  15
  -7  -4  12 125.617 7.35352   1
  -6  -4  12 37.3654 2.32894  13
  -6  -4  12 33.0603 2.35477   9
  -6  -4  12 35.9754 2.35819  15
  -6  -4  12 37.2649 2.41280   1
  -5  -4  12 77.9669 4.68542  13
  -5  -4  12 70.4088 4.66448  15
  -5  -4  12 74.6037 4.76370   9
  -4  -4  12 211.721 12.8217   9
  -4  -4  12 209.107 12.6525  13
  -4  -4  12 219.033 12.6901   1
  -4  -4  12 193.089 12.6526  15
   3   4 -12 117.877 7.22189   6
  -3  -4  12 115.240 7.09806   3
  -3  -4  12 117.154 7.18951   1
  -3  -4  12 117.245 7.13999  13
  -3  -4  12 108.992 7.11597  15
  -3  -4  12 115.671 7.34367   9
   2   4 -12 4.14935 0.78346   6
  -2  -4  12 3.95697 0.65537   3
  -2  -4  12 4.81055 0.73798  13
  -2  -4  12 3.81660 0.80009   1
   1   4 -12 19.4787 1.79456   6
  -1  -4  12 20.4163 1.55519   3
  -1  -4  12 19.2268 1.76007   1
  -1  -4  12 20.4255 1.53451  13
   0   4 -12 72.1861 4.71072   6
   0  -4  12 72.6032 4.51812   3
   0  -4  12 68.3116 4.42667  13
  -1   4 -12 19.2339 1.69402   6
   1  -4  12 15.6526 1.23044  12
   1  -4  12 18.8858 1.42782   3
  -2   4 -12 28.3713 2.10856   7
  -2   4 -12 24.6593 2.10596   6
   2  -4  12 29.6713 1.92773   3
   2  -4  12 25.7557 1.78085  12
  -3   4 -12 190.959 12.7398   6
  -3   4 -12 219.614 12.8458  11
  -3   4 -12 242.468 13.0059   7
   3  -4  12 211.257 12.6517   3
   3  -4  12 183.863 12.5860  12
  -4   4 -12 0.30285 0.29482   6
   4  -4  12 0.61603 0.25868   3
  -7  -3  12 14.6645 1.11812   1
  -7  -3  12 13.4140 1.02360  15
  -7  -3  12 12.7283 0.96642  13
  -6  -3  12 41.5164 2.77652  15
  -6  -3  12 38.8464 2.76909   9
  -6  -3  12 47.3036 2.82531   1
  -6  -3  12 41.6347 2.73913  13
  -5  -3  12 119.022 7.64391  15
  -5  -3  12 115.876 7.58995  13
  -5  -3  12 127.945 7.78226   9
  -5  -3  12 131.190 7.63816   1
   4   3 -12 187.754 11.6350   6
  -4  -3  12 184.650 11.6077  13
  -4  -3  12 190.246 11.7521   9
  -4  -3  12 182.313 11.6221  15
  -4  -3  12 206.907 11.6444   1
   3   3 -12 13.8741 1.38179   6
  -3  -3  12 13.9650 1.09968   3
  -3  -3  12 13.7808 1.42608   1
  -3  -3  12 12.0874 1.15977  15
  -3  -3  12 13.4131 1.25129  13
   2   3 -12 21.1673 1.83319   6
  -2  -3  12 21.0919 1.83600   1
  -2  -3  12 22.3257 1.66608  13
  -2  -3  12 19.7716 1.58073   3
   1   3 -12 2.94478 0.74970   6
  -1  -3  12 3.28794 0.58466   3
  -1  -3  12 3.05817 0.61995   1
  -1  -3  12 5.31608 0.74539  13
   0   3 -12 70.7084 4.50072   7
   0   3 -12 71.2959 4.62915   6
   0  -3  12 65.9259 4.33183  13
   0  -3  12 67.7623 4.37565   3
  -1   3 -12 75.4116 5.10535   6
  -1   3 -12 75.6793 5.58505   7
   1  -3  12 83.6353 4.94842   3
   1  -3  12 78.8818 4.85843  13
  -2   3 -12 27.4059 2.57933   6
  -2   3 -12 35.6788 2.46985   7
   2  -3  12 33.8042 2.29057   3
   2  -3  12 30.8196 2.05558  12
  -3   3 -12 86.1576 4.94939  11
  -3   3 -12 69.3458 4.93184   6
   3  -3  12 80.9898 4.87057   3
  -7  -2  12 -0.3463 0.29348  13
  -7  -2  12 -0.3491 0.30800  15
  -7  -2  12 -0.4158 0.38016   1
  -6  -2  12 34.6120 2.33223  13
  -6  -2  12 32.4525 2.36422  15
  -6  -2  12 37.5240 2.40428   1
   5   2 -12 65.5804 4.27624   6
  -5  -2  12 68.5624 4.29397  13
  -5  -2  12 74.1451 4.34004   1
  -5  -2  12 65.8342 4.34049   9
  -5  -2  12 62.9479 4.30678  15
   4   2 -12 1.57301 0.54358   6
  -4  -2  12 0.64499 0.59053  13
  -4  -2  12 0.33227 0.50080  15
  -4  -2  12 0.69309 0.59765   1
   3   2 -12 38.0689 2.66974   6
  -3  -2  12 36.3236 2.56010  13
  -3  -2  12 38.3611 2.60531   1
  -3  -2  12 34.5027 2.96128  15
   2   2 -12 20.0393 1.80774   6
  -2  -2  12 21.5945 1.56097   3
  -2  -2  12 21.6434 1.69606  13
  -2  -2  12 20.4490 1.72974   1
   1   2 -12 48.9208 3.39598   6
   1   2 -12 49.2122 3.31088   7
  -1  -2  12 46.9358 3.15121   3
   0   2 -12 67.9117 4.53867   7
   0   2 -12 67.3309 4.58401   6
   0  -2  12 71.2870 4.36884   3
  -1   2 -12 109.047 6.71543   7
  -1   2 -12 95.6520 6.57908   6
   1  -2  12 107.902 6.44008   3
  -2   2 -12 54.4925 3.86104   6
  -2   2 -12 62.6546 3.93400   7
   2  -2  12 60.0914 3.72730   3
  -3   2 -12 111.133 6.50100   7
  -3   2 -12 97.0981 6.52020  11
   3  -2  12 99.6406 6.26757   3
  -7  -1  12 54.3487 3.12951   1
  -7  -1  12 47.3868 3.06805  13
  -7  -1  12 45.0602 3.12488  15
   6   1 -12 37.4521 2.56549   6
  -6  -1  12 38.4743 2.59534  13
  -6  -1  12 38.5468 2.65392  15
  -6  -1  12 43.6233 2.65481   1
   5   1 -12 5.34451 0.84492   6
  -5  -1  12 4.42148 0.69673   9
  -5  -1  12 4.69294 0.81754  15
  -5  -1  12 5.21360 1.00133   1
  -5  -1  12 4.65633 0.68829  13
   4   1 -12 241.903 14.4634   6
  -4  -1  12 252.928 14.3853   1
  -4  -1  12 218.755 14.4142  15
  -4  -1  12 233.714 14.4706   9
  -4  -1  12 238.755 14.4182  13
   3   1 -12 76.9796 5.05731   6
   3   1 -12 84.9300 5.38117   7
  -3  -1  12 81.5652 4.94268   1
  -3  -1  12 78.0012 4.99178  13
  -3  -1  12 70.9555 4.93213  15
   2   1 -12 13.8952 1.42761   7
   2   1 -12 12.5514 1.41124   6
  -2  -1  12 12.6580 1.05741   3
   1   1 -12 548.001 34.3685   6
   1   1 -12 585.705 34.3030   7
  -1  -1  12 576.586 34.2096   3
   0   1 -12 151.825 9.86964   6
   0   1 -12 170.460 9.86695   7
   0  -1  12 154.830 9.68237   3
  -1   1 -12 57.2826 3.95582   6
   1  -1  12 61.3725 3.79372   3
  -2   1 -12 7.01436 0.94334   6
  -2   1 -12 7.47351 1.34920   7
   2  -1  12 8.70200 0.80424   3
  -3   1 -12 26.5546 1.83757   7
  -3   1 -12 24.5771 1.73870  11
   3  -1  12 24.0174 1.62355   3
  -7   0  12 137.757 8.21285  13
  -7   0  12 133.761 8.28576  15
   6   0 -12 27.3931 1.96402   6
  -6   0  12 31.5623 2.01909   1
  -6   0  12 28.5598 1.96200  13
  -6   0  12 26.9098 2.01539  15
  -6   0  12 28.9136 1.90422  11
   5   0 -12 123.354 7.71850   6
  -5   0  12 118.157 7.72566  15
  -5   0  12 129.422 7.88669   1
  -5   0  12 128.671 7.71295  13
   4   0 -12 40.5677 2.80629   7
   4   0 -12 40.6278 2.66886   6
  -4   0  12 36.4271 2.59578  15
  -4   0  12 36.9976 2.86382   1
  -4   0  12 41.4879 2.63341  13
  -4   0  12 32.8023 2.52382   9
   3   0 -12 90.5274 5.62273   7
   3   0 -12 91.1326 5.70338   6
  -3   0  12 86.6163 5.59838  15
   2   0 -12 93.7109 5.72959   7
   2   0 -12 85.8524 5.72714   6
   1   0 -12 102.583 6.25785   7
   1   0 -12 100.045 6.27809   6
  -1   0  12 93.2896 6.16516   3
   0   0 -12 127.358 7.30364   7
   0   0 -12 107.222 7.22713   6
   0   0  12 112.256 7.06837   3
  -1   0 -12 111.623 7.83792   6
  -1   0 -12 141.282 7.94742   7
   1   0  12 129.144 7.75299   3
   2   0  12 308.489 18.5204   3
   7  -1 -12 63.0633 4.00511   6
  -7   1  12 65.6143 4.07132  15
  -7   1  12 66.1102 4.00218  13
   6  -1 -12 130.090 8.08647   6
  -6   1  12 126.721 8.11075  15
  -6   1  12 139.308 8.01966  11
  -6   1  12 139.558 8.03790   1
  -6   1  12 124.405 8.04085  13
   5  -1 -12 152.654 9.46147   6
  -5   1  12 161.787 9.37406   1
  -5   1  12 151.156 9.50857  15
  -5   1  12 149.707 9.46853  13
   4  -1 -12 16.0364 1.44091   7
   4  -1 -12 16.7625 1.45100   6
  -4   1  12 16.6081 1.37525  13
  -4   1  12 15.4157 1.46852  15
   3  -1 -12 112.610 6.97310   6
   3  -1 -12 116.884 6.93952   7
  -3   1  12 104.575 6.87288  15
   2  -1 -12 0.35952 0.56955   6
   2  -1 -12 -0.7545 0.60831   7
   1  -1 -12 84.9790 4.96227   7
   1  -1 -12 73.4308 4.79467   6
  -1   1  12 66.1492 4.59265   3
   0  -1 -12 -0.6516 0.61287   7
   0  -1 -12 -0.1811 0.48995   6
  -1  -1 -12 37.0568 2.55895   7
   1   1  12 34.0252 2.24055   3
  -2  -1 -12 13.7717 1.31053   7
  -2  -1 -12 14.5324 1.15589  11
   7  -2 -12 7.71309 0.69161   6
  -7   2  12 7.51483 0.71292  15
   6  -2 -12 23.7036 1.68161   6
  -6   2  12 24.0082 1.69552  15
  -6   2  12 23.0109 1.65670  13
   5  -2 -12 0.64220 0.48682   7
   5  -2 -12 1.04244 0.48127   6
  -5   2  12 0.37555 0.42382  13
  -5   2  12 0.07730 0.42379  15
   4  -2 -12 11.0397 1.15209   6
   4  -2 -12 9.44541 1.14685   7
  -4   2  12 8.69687 1.14986  13
  -4   2  12 8.41313 0.94832  15
   3  -2 -12 82.6557 5.15704   6
   3  -2 -12 87.6793 5.24357   7
  -3   2  12 73.6916 5.04194  15
   2  -2 -12 55.1993 3.59472   7
   2  -2 -12 50.6456 3.47892   6
   1  -2 -12 61.2265 4.22257   6
   1  -2 -12 71.1328 4.31241   7
   0  -2 -12 0.03026 0.34515   6
   0  -2 -12 -0.6534 0.58529   7
  -7   3  12 0.39775 0.24611  15
   6  -3 -12 7.33459 0.76828   6
  -6   3  12 7.02116 0.82560  15
   5  -3 -12 55.9461 3.66665   6
   5  -3 -12 67.3462 4.03353   7
  -5   3  12 55.5770 3.61403  13
  -5   3  12 53.2486 3.65491  15
   4  -3 -12 29.1610 2.09956   6
   4  -3 -12 32.8945 2.15820   7
  -4   3  12 28.4340 2.10202  15
  -4   3  12 30.9928 2.03854  13
   3  -3 -12 52.2732 3.24299   7
   3  -3 -12 45.2797 3.16643   6
   2  -3 -12 367.107 24.8665   6
   2  -3 -12 460.603 24.9171   7
   1  -3 -12 0.69211 0.38487   6
   1  -3 -12 1.32036 0.54014   7
   0  -3 -12 32.1073 2.20516   7
   6  -4 -12 33.4189 2.03784   6
  -6   4  12 29.6876 2.02944  15
   5  -4 -12 1.81087 0.38727   7
   5  -4 -12 1.90158 0.38594   6
  -5   4  12 1.59095 0.32411  15
   4  -4 -12 2.01216 0.40823   6
   4  -4 -12 1.55726 0.55854   7
  -4   4  12 1.98828 0.39297  15
   2  -4 -12 4.12759 0.88891   7
  -1  -9  13 6.53115 0.56423   3
   0  -9  13 99.8061 6.04730   3
  -3  -8  13 6.82656 0.63635   9
  -2  -8  13 87.3970 5.47825   9
  -2  -8  13 90.0849 5.40369   3
  -1  -8  13 52.7009 2.90127   3
  -1  -8  13 37.8419 2.94097   9
   0  -8  13 3.19141 0.57038   9
   0  -8  13 4.21455 0.54775   3
   1  -8  13 29.2364 1.68587   3
   1  -8  13 21.7167 1.69414   9
   2  -8  13 166.316 10.0195   3
  -4  -7  13 10.4973 0.85087   9
  -4  -7  13 10.3410 0.81337  13
  -3  -7  13 53.6890 3.29280  13
  -3  -7  13 56.0001 3.43617   9
  -3  -7  13 50.9035 3.28833   3
  -2  -7  13 20.2047 1.51154   9
  -2  -7  13 18.7511 1.35210   3
  -1  -7  13 15.9276 1.32980   9
  -1  -7  13 16.3223 1.20960   3
   0  -7  13 163.679 9.96512   9
   0  -7  13 162.085 9.88287   3
  -1   7 -13 227.943 15.2623   6
   1  -7  13 263.277 15.2753   3
   1  -7  13 269.742 15.3649   9
  -2   7 -13 25.7050 1.75458   6
   2  -7  13 25.3780 1.75072   9
   2  -7  13 27.3552 1.70902   3
  -5  -6  13 14.9672 1.02497  13
  -5  -6  13 16.3902 1.17844   1
  -5  -6  13 15.0437 1.09357   9
  -4  -6  13 138.472 8.98649   9
  -4  -6  13 155.556 8.96878   1
  -3  -6  13 55.2146 3.94185   3
  -3  -6  13 71.5009 4.05897   1
  -3  -6  13 65.1070 3.90181  13
  -3  -6  13 60.2407 4.04949   9
  -2  -6  13 30.9714 2.16917   1
  -2  -6  13 28.7287 1.98425   3
  -2  -6  13 30.0618 2.17040   9
  -2  -6  13 29.7335 1.92712  13
   1   6 -13 14.3049 1.30390   6
  -1  -6  13 15.2129 1.39079   9
  -1  -6  13 14.4948 1.15955   3
   0   6 -13 31.4980 2.17565   6
   0  -6  13 30.8985 2.09509   3
  -1   6 -13 19.8586 1.56303   6
   1  -6  13 21.0568 1.46402   3
  -2   6 -13 157.890 10.1327   6
   2  -6  13 175.348 10.0787   3
  -5  -5  13 24.8172 1.77729  15
  -5  -5  13 30.7863 1.80953  13
  -5  -5  13 27.3711 1.85082   9
  -4  -5  13 56.4496 3.31191   1
  -4  -5  13 42.4686 3.11404  15
  -4  -5  13 53.1259 3.17096  13
  -4  -5  13 49.3084 3.28564   9
  -3  -5  13 14.3770 1.31363   9
  -3  -5  13 15.0618 1.13292  13
  -3  -5  13 14.6330 1.40109   1
  -3  -5  13 13.5062 1.05735   3
   2   5 -13 37.3720 2.60151   6
  -2  -5  13 36.6892 2.51371   3
  -2  -5  13 41.7849 2.73454   1
  -2  -5  13 39.0977 2.49815  13
  -2  -5  13 38.2924 2.73795   9
   1   5 -13 47.9947 3.24905   6
  -1  -5  13 48.2053 3.07453  13
  -1  -5  13 50.5458 3.18637   3
   0   5 -13 23.2704 1.86893   6
   0  -5  13 25.0255 1.72115   3
  -1   5 -13 125.430 8.22085   6
   1  -5  13 141.286 8.14714   3
  -2   5 -13 27.6937 2.08064   6
   2  -5  13 31.4079 1.96615   3
  -6  -4  13 9.26230 0.74880  15
  -6  -4  13 9.48935 0.72426  13
  -5  -4  13 33.0221 2.41185   9
  -5  -4  13 32.2185 2.27562  15
  -5  -4  13 36.4622 2.29325  13
  -5  -4  13 39.6482 2.39943   1
  -4  -4  13 0.38064 0.40739   9
  -4  -4  13 0.19415 0.38866  13
  -4  -4  13 0.52624 0.53706   1
  -4  -4  13 0.34270 0.40422  15
   3   4 -13 4.88252 0.74220   6
  -3  -4  13 3.76781 0.72940  13
  -3  -4  13 3.45856 0.82297   9
   2   4 -13 3.79157 0.74868   6
  -2  -4  13 4.89970 0.74092  13
  -2  -4  13 3.85484 0.50052   3
  -2  -4  13 3.05394 0.77555   1
   1   4 -13 63.5574 4.09297   6
  -1  -4  13 57.1538 3.98061   3
  -1  -4  13 65.2559 3.89343  13
   0   4 -13 38.1412 2.76703   6
   0  -4  13 37.8922 2.46177  13
   0  -4  13 39.1157 2.54055   3
  -1   4 -13 13.7759 1.39103   6
   1  -4  13 16.2198 1.19376   3
  -2   4 -13 48.6853 3.37398   6
   2  -4  13 55.7232 3.28735   3
  -6  -3  13 -0.5296 0.72626   1
  -6  -3  13 0.10048 0.25768  15
  -5  -3  13 18.1565 1.39498  15
  -5  -3  13 18.4878 1.55207   9
  -5  -3  13 22.8432 1.56375   1
  -5  -3  13 19.6138 1.42661  13
   4   3 -13 8.01088 0.82465   6
  -4  -3  13 5.17063 0.69650  15
  -4  -3  13 7.45459 0.87110   9
  -4  -3  13 6.27428 1.04480   1
  -4  -3  13 5.83534 0.86988  13
   3   3 -13 48.4206 3.29219   6
  -3  -3  13 46.0772 3.11047  13
  -3  -3  13 47.8135 3.28875   9
  -3  -3  13 49.5077 3.27271   1
   2   3 -13 2.67295 0.65240   6
  -2  -3  13 3.77346 0.57730   3
  -2  -3  13 2.90159 0.54166   1
  -2  -3  13 4.77027 0.71936  13
   1   3 -13 18.4216 1.65651   6
  -1  -3  13 20.2107 1.43098   3
  -1  -3  13 19.2401 1.51301  13
   0  -3  13 12.4705 0.97739  13
   0  -3  13 13.0016 1.07122   3
  -1   3 -13 33.3751 2.18807   7
  -1   3 -13 28.5619 2.19764   6
   1  -3  13 28.2782 1.99941   3
  -2   3 -13 14.4478 1.13919  11
  -2   3 -13 13.3785 1.29143   6
   2  -3  13 14.1287 1.10287   3
  -6  -2  13 -0.3241 0.26535  15
  -6  -2  13 -0.1552 0.28557  13
  -6  -2  13 -0.2167 0.52308   1
   5   2 -13 36.7235 2.44595   6
  -5  -2  13 37.6938 2.39544  13
  -5  -2  13 42.0506 2.45844   1
  -5  -2  13 30.7435 2.33020   9
  -5  -2  13 35.0027 2.38135  15
   4   2 -13 150.575 9.30180   6
  -4  -2  13 138.858 9.21766  15
  -4  -2  13 162.916 9.31737  13
  -4  -2  13 162.425 9.25053   1
  -4  -2  13 143.820 9.28687   9
   3   2 -13 4.52374 0.87779   6
  -3  -2  13 5.82217 0.79673  13
  -3  -2  13 3.53710 0.58373   1
  -3  -2  13 6.25764 1.02144   9
   2   2 -13 54.7776 3.56857   6
  -2  -2  13 50.6270 3.31680   3
  -2  -2  13 54.2196 3.42109  13
   1   2 -13 17.5372 1.63289   6
   1   2 -13 19.2682 1.67855   7
  -1  -2  13 18.4905 1.34425   3
  -1  -2  13 19.5325 1.54894  13
   0   2 -13 35.3182 2.49766   7
   0   2 -13 35.1164 2.53167   6
   0  -2  13 35.8006 2.32035  13
   0  -2  13 36.8894 2.33650   3
  -1   2 -13 108.399 7.07371   6
   1  -2  13 119.939 6.96648   3
  -2   2 -13 71.8651 4.31802   7
  -2   2 -13 56.7812 4.09743   6
  -2   2 -13 70.7982 4.09946  11
   2  -2  13 64.8715 4.04707   3
  -6  -1  13 82.1211 4.61313   1
  -6  -1  13 70.4544 4.59282  13
  -6  -1  13 70.7893 4.62336  15
   5   1 -13 241.771 15.1008   6
  -5  -1  13 259.153 15.0870  13
  -5  -1  13 272.641 15.0599   1
  -5  -1  13 225.875 15.0690  15
   4   1 -13 0.61198 0.46536   6
  -4  -1  13 1.31902 0.43879   9
  -4  -1  13 0.46517 0.62042  13
  -4  -1  13 -0.1419 0.41971   1
   3   1 -13 18.2363 1.53348   6
  -3  -1  13 17.3541 1.41849   9
  -3  -1  13 18.3886 1.42101  13
   2   1 -13 33.6382 2.52292   6
   2   1 -13 36.5312 2.53187   7
  -2  -1  13 36.9655 2.43097  13
   1   1 -13 18.0229 1.54506   7
   1   1 -13 16.7093 1.68671   6
  -1  -1  13 17.3549 1.24156   3
   0   1 -13 15.1490 1.42561   6
   0   1 -13 17.6867 1.53672   7
   0  -1  13 16.5452 1.18267   3
  -1   1 -13 30.1668 2.21475   6
  -1   1 -13 36.4903 2.26688   7
   1  -1  13 30.0316 2.11175  13
   1  -1  13 31.5481 2.05177   3
   6   0 -13 95.7169 6.04511   6
  -6   0  13 104.823 6.03995  13
  -6   0  13 103.393 6.15022   1
  -6   0  13 92.3774 6.05002  15
   5   0 -13 0.76408 0.42933   6
  -5   0  13 0.35678 0.33481  15
  -5   0  13 0.55213 0.38942  13
  -5   0  13 0.68724 0.35682   1
   4   0 -13 80.3261 4.90747   6
  -4   0  13 71.5965 4.84683  15
  -4   0  13 80.9060 4.84414  13
   3   0 -13 38.1749 2.56727   6
  -3   0  13 33.7172 2.46424   9
  -3   0  13 38.9642 2.49717  13
   2   0 -13 105.029 6.86635   6
   2   0 -13 115.338 6.81909   7
   1   0 -13 19.9152 1.72691   6
   1   0 -13 25.0527 1.83669   7
   0   0 -13 57.4867 3.38163   7
   0   0 -13 47.2124 3.19963   6
   0   0  13 44.4986 3.06309   3
   6  -1 -13 -0.0608 0.27216   6
  -6   1  13 0.08583 0.25517  15
  -6   1  13 0.12433 0.23699  13
   5  -1 -13 132.342 7.82559   6
  -5   1  13 131.824 7.77137  13
  -5   1  13 119.288 7.76130  15
   4  -1 -13 27.0236 2.01940   6
   4  -1 -13 31.0089 2.08027   7
  -4   1  13 28.4103 1.94732  13
   3  -1 -13 1.09134 0.63861   7
   3  -1 -13 0.40291 0.45378   6
  -3   1  13 -0.2987 0.43428  13
   2  -1 -13 96.4158 6.46179   6
   2  -1 -13 112.055 6.46447   7
   1  -1 -13 1.63575 0.72271   7
   1  -1 -13 1.51616 0.46117   6
   6  -2 -13 98.8948 5.41015   6
  -6   2  13 78.1149 5.39204  15
   5  -2 -13 39.7320 2.55009   6
  -5   2  13 40.0007 2.39638  13
  -5   2  13 34.6561 2.40677  15
   4  -2 -13 12.3822 1.08932   7
   4  -2 -13 9.88455 0.97900   6
  -4   2  13 10.5730 0.91454  13
   3  -2 -13 35.9997 2.23121   7
   3  -2 -13 30.9707 2.21291   6
  -3   2  13 31.7912 2.14757  13
   2  -2 -13 -0.0211 0.43621   7
   2  -2 -13 0.22277 0.40715   6
   1  -2 -13 140.958 8.56431   7
   4  -3 -13 20.5361 1.37932   6
  -4   3  13 19.2411 1.33496  13
   3  -3 -13 42.7070 2.77835   6
  -3   3  13 44.3676 2.70509  13
  -2  -7  14 3.93319 0.51865   9
  -1  -7  14 43.5688 2.76036   3
  -1  -7  14 45.8290 2.84244   9
   0  -7  14 0.65385 0.24440   3
   0  -7  14 0.41286 0.27832   9
  -3  -6  14 32.6326 2.14421   9
  -2  -6  14 39.4892 2.71795   3
  -2  -6  14 48.3076 2.87129   9
  -1  -6  14 17.2942 1.21993   3
  -1  -6  14 18.6974 1.35977   9
   0  -6  14 -0.5404 0.24620   3
   0  -6  14 0.06153 0.31844   9
   1  -6  14 107.052 6.78772   9
   1  -6  14 115.940 6.74569   3
  -4  -5  14 273.603 14.4024   1
  -4  -5  14 228.270 14.3450  13
  -4  -5  14 215.442 14.3991   9
  -3  -5  14 60.9867 3.61881  13
  -3  -5  14 56.6767 3.73367   9
  -2  -5  14 3.07583 0.39746  13
  -2  -5  14 2.81122 0.40334   3
  -2  -5  14 2.87004 0.50281   9
   1   5 -14 13.4851 1.09251   6
  -1  -5  14 13.7508 1.01535   3
  -1  -5  14 14.3516 1.20637   9
   0   5 -14 6.50068 0.76041   6
   0  -5  14 6.85422 0.62414   3
  -1   5 -14 9.46577 0.84460   6
   1  -5  14 9.73067 0.74020   3
  -5  -4  14 1.77757 0.27572  13
  -5  -4  14 1.43788 0.35879   1
  -4  -4  14 2.01191 0.42631   1
  -4  -4  14 2.93935 0.48722   9
  -4  -4  14 2.23213 0.40222  13
   3   4 -14 0.97160 0.42263   6
  -3  -4  14 1.06653 0.39065   9
  -3  -4  14 0.42096 0.30341  13
   2   4 -14 79.0455 5.17990   6
  -2  -4  14 87.6078 5.19743   9
  -2  -4  14 89.3213 5.15264  13
  -2  -4  14 74.8784 5.01728   3
   1   4 -14 50.1018 3.23521   6
  -1  -4  14 49.4687 3.07146  13
  -1  -4  14 50.0316 3.09764   3
   0   4 -14 8.58115 0.99438   6
   0  -4  14 7.83430 0.71126   3
  -1   4 -14 102.660 6.46394   6
   1  -4  14 108.523 6.39164   3
  -5  -3  14 48.3603 3.21203  13
  -5  -3  14 55.6659 3.24739   1
  -4  -3  14 11.0174 0.82953  13
  -4  -3  14 9.28763 0.90647   1
  -4  -3  14 9.57982 0.80742   9
   3   3 -14 1.76171 0.51872   6
  -3  -3  14 2.33824 0.43065   9
  -3  -3  14 3.03445 0.42186  13
   2   3 -14 -0.1956 0.41029   6
  -2  -3  14 -0.0084 0.31575  13
  -2  -3  14 0.22531 0.42663   9
   1   3 -14 13.4656 1.21579   6
  -1  -3  14 14.4613 0.98300  13
  -1  -3  14 13.2882 0.95628   3
   0   3 -14 156.317 9.54441   6
   0  -3  14 156.281 9.41746   3
  -1   3 -14 0.77248 0.34025   6
   1  -3  14 1.03307 0.27008   3
  -5  -2  14 52.2727 3.24362  13
   4   2 -14 1.46459 0.40796   6
  -4  -2  14 1.70087 0.38941  13
   3   2 -14 1.57634 0.47633   6
  -3  -2  14 2.48431 0.43115  13
  -3  -2  14 1.84156 0.37779   9
   2   2 -14 2.92877 0.56365   6
  -2  -2  14 4.15669 0.57864  13
  -2  -2  14 4.53190 0.77897   9
   1   2 -14 45.4994 3.09563   6
  -1  -2  14 49.5819 2.96993  13
   0   2 -14 0.51346 0.40462   6
   5   1 -14 115.846 7.57287   6
  -5  -1  14 132.850 7.52834  13
   4   1 -14 75.3271 4.84427   6
  -4  -1  14 80.4410 4.78873  13
   3   1 -14 87.6229 5.60470   6
  -3  -1  14 92.8575 5.53919  13
   2   1 -14 26.4271 1.94070   6
  -2  -1  14 26.2140 1.81924   9
  -2  -1  14 30.5074 1.83310  13
   1   1 -14 13.9844 1.28054   6
  -1  -1  14 15.6974 1.05353  13
   0   1 -14 11.1518 0.91342   6
   5   0 -14 68.6053 4.20859   6
  -5   0  14 67.1462 4.14113  13
   4   0 -14 58.4917 3.75447   6
  -4   0  14 61.2992 3.70192  13
   3   0 -14 19.5103 1.59992   6
  -3   0  14 20.9288 1.46641  13
   2   0 -14 65.7943 4.23421   6
  -2   0  14 69.4702 4.15763  13
   1   0 -14 3.86911 0.59165   6
  -1   0  14 5.09050 0.51380  13
   4  -1 -14 31.7342 2.05333   6
  -4   1  14 31.4582 1.99238  13
   3  -1 -14 82.2201 5.16044   6
  -3   1  14 85.7625 5.11034  13
   0   0   0    0.00    0.00   0

 _exptl_absorpt_process_details 'SADABS 2014/4'
 _exptl_absorpt_correction_type   multiscan
 _exptl_absorpt_correction_T_max  0.9288
 _exptl_absorpt_correction_T_min  0.7485
 _exptl_special_details
)
 The following wavelength and cell were deduced by SADABS from the
 direction cosines etc. They are given here for emergency use only:
 CELL 1.54180    8.239   10.330   11.943  105.083  102.844  105.213
)

;
_shelx_hkl_checksum   42455

