data_x17079 
 
_audit_creation_method            'SHELXL-2016/6' 
# CIF edited on-the-fly by script CIFFIX (S. Parkin, 2000-2016). 
# CIFFIX: http://xray.uky.edu/people/parkin/programs/ciffix 
_audit_update_record              ? 
 
_shelx_SHELXL_version_number      '2016/6' 
 
_publ_section_exptl_refinement 
; 
H atoms were found in difference Fourier maps, but subsequently included 
in the refinement using riding models, with constrained distances set to 
0.95 \%A (C~sp2~H), 0.98 \%A (RCH~3~) and 1.00 \%A (R~3~CH).  U~iso~(H) 
parameters were set to values of either 1.2U~eq~ or 1.5U~eq~ (RCH~3~ only) 
of the attached atom. 
 
To ensure satisfactory refinement for disordered groups in the structure, 
a combination of constraints and restraints were employed. The constraints 
(SHELXL commands EXYZ and EADP) were used to fix overlapping fragments. 
Restraints were used to ensure the integrity of ill-defined or disordered 
groups (SHELXL commands SAME, FLAT, and RIGU). 
; 
 
_publ_section_references 
; 
Bruker-AXS (2006). 
  <i>APEX2</i> Bruker-AXS Inc., Madison, WI, USA. 
 
Hope, H. (1994). 
  <i>Prog. Inorg. Chem.</i> <b>41</b>, 1--19. 
 
Krause, L., Herbst-Irmer, R., Sheldrick, G.M. & Stalke, D. (2015). 
  <i>J. Appl. Cryst.</i> <b>48</b>, 3--10. 
 
Parkin, S. & Hope, H. (1998). 
  <i>J. Appl. Cryst.</i> <b>31</b>, 945--953. 
 
Parkin, S. (2000). 
  <i>Acta Cryst.</i> A<b>56</b>, 157--162. 
 
Parkin, S. (2013). 
  <i>CIFFIX</i>, http://xray.uky.edu/people/parkin/programs/ciffix 
 
Sheldrick, G.M. (2008). 
  <i>Acta Cryst.</i> A<b>64</b>, 112--122. 
 
Sheldrick, G.M. (2015a). 
  <i>Acta Cryst.</i> A<b>71</b>, 3--8. 
 
Sheldrick, G.M. (2015b). 
  <i>Acta Cryst.</i> C<b>71</b>, 3--8. 
 
Spek, A.L. (2009). 
  <i>Acta Cryst.</i> D<b>65</b>, 148--155. 
; 
 
_publ_section_acknowledgements 
; 
The X8 Proteum diffractometer was funded by the NSF (MRI CHE0319176, 70%), 
and by the University of Kentucky (cost share, 30%). 
; 
 
_chemical_name_systematic         ? 
_chemical_name_common             ? 
_chemical_melting_point           ? 
_chemical_formula_moiety          'C48 H54 S4 Si2' 
_chemical_formula_sum             'C48 H54 S4 Si2' 
_chemical_formula_weight          815.33 
 
loop_ 
 _atom_type_symbol 
 _atom_type_description 
 _atom_type_scat_dispersion_real 
 _atom_type_scat_dispersion_imag 
 _atom_type_scat_source 
 'C'  'C'   0.0181   0.0091 
 'International Tables Vol C Tables 4.2.6.8 and 6.1.1.4' 
 'H'  'H'   0.0000   0.0000 
 'International Tables Vol C Tables 4.2.6.8 and 6.1.1.4' 
 'Si'  'Si'   0.2541   0.3302 
 'International Tables Vol C Tables 4.2.6.8 and 6.1.1.4' 
 'S'  'S'   0.3331   0.5567 
 'International Tables Vol C Tables 4.2.6.8 and 6.1.1.4' 
 
_space_group_crystal_system       triclinic 
_space_group_IT_number            2 
_space_group_name_H-M_alt         'P -1' 
_space_group_name_Hall            '-P 1' 
 
_shelx_space_group_comment 
; 
The symmetry employed for this shelxl refinement is uniquely defined 
by the following loop, which should always be used as a source of 
symmetry information in preference to the above space-group names. 
They are only intended as comments. 
; 
 
loop_ 
 _space_group_symop_operation_xyz 
 'x, y, z' 
 '-x, -y, -z' 
 
_cell_length_a                    7.9881(2) 
_cell_length_b                    11.5993(3) 
_cell_length_c                    13.0399(3) 
_cell_angle_alpha                 91.329(1) 
_cell_angle_beta                  106.459(1) 
_cell_angle_gamma                 106.815(1) 
_cell_volume                      1101.88(5) 
_cell_formula_units_Z             1 
_cell_measurement_temperature     90.0(2) 
_cell_measurement_reflns_used     8424 
_cell_measurement_theta_min       3.56 
_cell_measurement_theta_max       69.31 
 
_exptl_crystal_description        block 
_exptl_crystal_colour             yellow 
_exptl_crystal_density_meas       ? 
_exptl_crystal_density_method     ? 
_exptl_crystal_density_diffrn     1.229 
_exptl_crystal_F_000              434 
_exptl_transmission_factor_min    ? 
_exptl_transmission_factor_max    ? 
_exptl_crystal_size_max           0.200 
_exptl_crystal_size_mid           0.120 
_exptl_crystal_size_min           0.060 
_exptl_absorpt_coefficient_mu     2.738 
_shelx_estimated_absorpt_T_min    0.610 
_shelx_estimated_absorpt_T_max    0.853 
_exptl_absorpt_correction_type    multi-scan 
_exptl_absorpt_correction_T_min   0.637 
_exptl_absorpt_correction_T_max   0.889 
_exptl_absorpt_process_details    '<i>SADABS</i> (Krause et al., 2015)' 
_exptl_absorpt_special_details 
; 
In addition to absorption, multi-scan techniques also correct other slowly 
varying changes in scale factor over reciprocal space, such as those caused 
by x-ray beam inhomogeneity, goniometer imperfection, crystal decomposition, 
crystal longer than the x-ray beam cross section, absorption by the crystal 
mount etc.  These account, by and large, for much of the difference between 
estimated values of Tmin and Tmax and the _exptl_absorpt_correction_ values. 
; 
 
_exptl_special_details 
; 
The crystal was mounted using polyisobutene oil on the tip of a fine glass 
fibre, which was fastened in a copper mounting pin with electrical solder. 
It was placed directly into the cold gas stream of a liquid-nitrogen based 
cryostat (Hope, 1994; Parkin & Hope, 1998). 
 
Diffraction data were collected with the crystal at 90K, which is standard 
practice in this laboratory for the majority of flash-cooled crystals. 
; 
 
_diffrn_ambient_temperature       90.0(2) 
_diffrn_radiation_wavelength      1.54178 
_diffrn_radiation_type            CuK\a 
_diffrn_source                    'fine-focus rotating anode' 
_diffrn_measurement_device_type   'Bruker X8 Proteum diffractometer' 
_diffrn_measurement_method        '\f and \w scans' 
_diffrn_detector_area_resol_mean  5.6 
_diffrn_reflns_number             17415 
_diffrn_reflns_av_unetI/netI      0.0521 
_diffrn_reflns_av_R_equivalents   0.0645 
_diffrn_reflns_limit_h_min        -5 
_diffrn_reflns_limit_h_max        9 
_diffrn_reflns_limit_k_min        -14 
_diffrn_reflns_limit_k_max        9 
_diffrn_reflns_limit_l_min        -15 
_diffrn_reflns_limit_l_max        15 
_diffrn_reflns_theta_min          3.558 
_diffrn_reflns_theta_max          69.708 
_diffrn_reflns_theta_full         67.679 
_diffrn_measured_fraction_theta_max                0.973 
_diffrn_measured_fraction_theta_full               0.993 
_diffrn_reflns_Laue_measured_fraction_max          0.973 
_diffrn_reflns_Laue_measured_fraction_full         0.993 
_diffrn_reflns_point_group_measured_fraction_max   0.973 
_diffrn_reflns_point_group_measured_fraction_full  0.993 
 
_reflns_number_total              4039 
_reflns_number_gt                 3423 
_reflns_threshold_expression      'I > 2\s(I)' 
_reflns_Friedel_coverage          0.000 
_reflns_Friedel_fraction_max      . 
_reflns_Friedel_fraction_full     . 
_reflns_special_details 
; 
Reflections were merged by SHELXL according to the crystal 
class for the calculation of statistics and refinement. 
 
_reflns_Friedel_fraction is defined as the number of unique 
Friedel pairs measured divided by the number that would be 
possible theoretically, ignoring centric projections and 
systematic absences. 
; 
 
_computing_data_collection        '<i>APEX2</i> (Bruker-AXS, 2006)' 
_computing_cell_refinement        '<i>APEX2</i> (Bruker-AXS, 2006)' 
_computing_data_reduction         '<i>APEX2</i> (Bruker-AXS, 2006)' 
_computing_structure_solution     '<i>SHELXT</i> (Sheldrick, 2015a)' 
_computing_structure_refinement   '<i>SHELXL-2016/6</i> (Sheldrick, 2015b)' 
_computing_molecular_graphics     '<i>XP in SHELXTL</i> (Sheldrick, 2008)' 
_computing_publication_material 
'<i>SHELX</i> (Sheldrick, 2008) and <i>CIFFIX</i> (Parkin, 2013)' 
 
_refine_special_details 
; 
Refinement progress was checked using <i>Platon</i> (Spek, 2009) and by 
an <i>R</i>-tensor (Parkin, 2000). The final model was further checked 
with the IUCr utility <i>checkCIF</i>. 
; 
_refine_ls_structure_factor_coef  Fsqd 
_refine_ls_matrix_type            full 
_refine_ls_weighting_scheme       calc 
_refine_ls_weighting_details 
'w=1/[\s^2^(Fo^2^)+(0.0918P)^2^+0.1333P] where P=(Fo^2^+2Fc^2^)/3' 
_atom_sites_solution_primary      direct 
_atom_sites_solution_secondary    difmap 
_atom_sites_solution_hydrogens    difmap 
_refine_ls_hydrogen_treatment     constr 
_refine_ls_extinction_method      none 
_refine_ls_extinction_coef        . 
_refine_ls_number_reflns          4039 
_refine_ls_number_parameters      288 
_refine_ls_number_restraints      243 
_refine_ls_R_factor_all           0.0598 
_refine_ls_R_factor_gt            0.0523 
_refine_ls_wR_factor_ref          0.1518 
_refine_ls_wR_factor_gt           0.1476 
_refine_ls_goodness_of_fit_ref    1.131 
_refine_ls_restrained_S_all       1.111 
_refine_ls_shift/su_max           0.000 
_refine_ls_shift/su_mean          0.000 
 
loop_ 
 _atom_site_label 
 _atom_site_type_symbol 
 _atom_site_fract_x 
 _atom_site_fract_y 
 _atom_site_fract_z 
 _atom_site_U_iso_or_equiv 
 _atom_site_adp_type 
 _atom_site_occupancy 
 _atom_site_site_symmetry_order 
 _atom_site_calc_flag 
 _atom_site_refinement_flags_posn 
 _atom_site_refinement_flags_adp 
 _atom_site_refinement_flags_occupancy 
 _atom_site_disorder_assembly 
 _atom_site_disorder_group 
Si1 Si 0.02409(9) 0.24054(5) 0.88544(5) 0.0200(2) Uani 1 1 d . . . . . 
C1 C 0.0175(3) 0.43776(19) 0.59503(18) 0.0195(5) Uani 1 1 d . . . . . 
C2 C 0.1727(3) 0.5107(2) 0.56969(18) 0.0197(5) Uani 0.851(2) 1 d D . P A 1 
S3 S 0.39699(10) 0.53390(7) 0.64676(6) 0.0188(2) Uani 0.851(2) 1 d D . P A 1 
C4 C 0.4747(4) 0.6296(17) 0.5552(11) 0.0190(9) Uani 0.851(2) 1 d D . P A 1 
C5 C 0.3328(7) 0.6382(5) 0.4733(4) 0.0218(9) Uani 0.851(2) 1 d D . P A 1 
H5 H 0.350730 0.685852 0.416781 0.026 Uiso 0.851(2) 1 calc R U P A 1 
C6 C 0.1541(3) 0.57151(19) 0.47659(17) 0.0192(5) Uani 0.851(2) 1 d D . P A 1 
C2' C 0.1727(3) 0.5107(2) 0.56969(18) 0.0197(5) Uani 0.149(2) 1 d D . P A 2 
C3' C 0.3702(14) 0.5487(19) 0.6169(13) 0.0188(2) Uani 0.149(2) 1 d D . P A 2 
H3' H 0.424712 0.524718 0.684214 0.023 Uiso 0.149(2) 1 calc R U P A 2 
C4' C 0.4752(14) 0.619(11) 0.563(6) 0.0190(9) Uani 0.149(2) 1 d D . P A 2 
S5' S 0.3391(11) 0.6567(8) 0.4429(6) 0.0218(9) Uani 0.149(2) 1 d D . P A 2 
C6' C 0.1541(3) 0.57151(19) 0.47659(17) 0.0192(5) Uani 0.149(2) 1 d D . P A 2 
C7 C 0.6686(4) 0.6853(3) 0.5749(3) 0.0203(5) Uani 0.8558(18) 1 d D . P A 1 
S8 S 0.73946(9) 0.78992(6) 0.48904(6) 0.0212(2) Uani 0.8558(18) 1 d D . P A 1 
C9 C 0.9694(5) 0.8127(2) 0.5594(2) 0.0204(6) Uani 0.8558(18) 1 d D . P A 1 
C10 C 1.1213(6) 0.8906(3) 0.5368(4) 0.0234(7) Uani 0.8558(18) 1 d D . P A 1 
H10 H 1.106448 0.937956 0.478340 0.028 Uiso 0.8558(18) 1 calc R U P A 1 
C11 C 1.2926(6) 0.8963(5) 0.6019(4) 0.0271(8) Uani 0.8558(18) 1 d D . P A 1 
H11 H 1.397835 0.949037 0.588461 0.033 Uiso 0.8558(18) 1 calc R U P A 1 
C12 C 1.3155(6) 0.8258(5) 0.6880(5) 0.0260(7) Uani 0.8558(18) 1 d D . P A 1 
H12 H 1.435496 0.830853 0.731537 0.031 Uiso 0.8558(18) 1 calc R U P A 1 
C13 C 1.1648(4) 0.7493(4) 0.7096(4) 0.0245(6) Uani 0.8558(18) 1 d D . P A 1 
H13 H 1.180736 0.701642 0.767723 0.029 Uiso 0.8558(18) 1 calc R U P A 1 
C14 C 0.9884(4) 0.7423(3) 0.6455(3) 0.0213(6) Uani 0.8558(18) 1 d D . P A 1 
C15 C 0.8135(5) 0.6705(3) 0.6516(3) 0.0222(6) Uani 0.8558(18) 1 d D . P A 1 
H15 H 0.800063 0.616924 0.704800 0.027 Uiso 0.8558(18) 1 calc R U P A 1 
C7' C 0.6739(17) 0.6816(13) 0.5854(11) 0.0203(5) Uani 0.1442(18) 1 d D . P A 2 
S8' S 0.8256(8) 0.6440(5) 0.6951(4) 0.0222(6) Uani 0.1442(18) 1 d D . P A 2 
C9' C 1.0153(15) 0.7344(12) 0.6629(13) 0.0213(6) Uani 0.1442(18) 1 d D . P A 2 
C10' C 1.1987(19) 0.751(2) 0.718(2) 0.0245(6) Uani 0.1442(18) 1 d D . P A 2 
H10' H 1.232676 0.712199 0.780700 0.029 Uiso 0.1442(18) 1 calc R U P A 2 
C11' C 1.329(3) 0.827(3) 0.680(3) 0.0260(7) Uani 0.1442(18) 1 d D . P A 2 
H11' H 1.455124 0.839756 0.716276 0.031 Uiso 0.1442(18) 1 calc R U P A 2 
C12' C 1.278(3) 0.884(3) 0.588(3) 0.0271(8) Uani 0.1442(18) 1 d D . P A 2 
H12' H 1.371073 0.936251 0.562804 0.033 Uiso 0.1442(18) 1 calc R U P A 2 
C13' C 1.096(3) 0.867(2) 0.533(2) 0.0234(7) Uani 0.1442(18) 1 d D . P A 2 
H13' H 1.062863 0.906172 0.470915 0.028 Uiso 0.1442(18) 1 calc R U P A 2 
C14' C 0.961(2) 0.7907(13) 0.5708(13) 0.0204(6) Uani 0.1442(18) 1 d D . P A 2 
C15' C 0.766(2) 0.7583(12) 0.5289(10) 0.0212(2) Uani 0.1442(18) 1 d D . P A 2 
H15' H 0.705218 0.788229 0.466558 0.025 Uiso 0.1442(18) 1 calc R U P A 2 
C16 C 0.0315(3) 0.3778(2) 0.68966(18) 0.0216(5) Uani 1 1 d . . . . . 
C17 C 0.0340(3) 0.3268(2) 0.76942(19) 0.0231(5) Uani 1 1 d . . . . . 
C18 C -0.1761(3) 0.2560(2) 0.92879(19) 0.0270(6) Uani 1 1 d . . . . . 
H18 H -0.129263 0.333736 0.977451 0.032 Uiso 1 1 calc R U . . . 
C19 C -0.3366(4) 0.2666(2) 0.8361(2) 0.0326(6) Uani 1 1 d . . . . . 
H19A H -0.391235 0.190646 0.787744 0.049 Uiso 1 1 calc R U . . . 
H19B H -0.292091 0.333282 0.796088 0.049 Uiso 1 1 calc R U . . . 
H19C H -0.429213 0.282827 0.865000 0.049 Uiso 1 1 calc R U . . . 
C20 C -0.2427(4) 0.1552(3) 0.9956(2) 0.0398(7) Uani 1 1 d . . . . . 
H20A H -0.338072 0.171377 1.021869 0.060 Uiso 1 1 calc R U . . . 
H20B H -0.139456 0.152984 1.056916 0.060 Uiso 1 1 calc R U . . . 
H20C H -0.293220 0.076956 0.950560 0.060 Uiso 1 1 calc R U . . . 
C21 C -0.0049(3) 0.0794(2) 0.83775(18) 0.0224(5) Uani 1 1 d . . . . . 
H21 H -0.009099 0.030871 0.899897 0.027 Uiso 1 1 calc R U . . . 
C22 C -0.1841(4) 0.0227(2) 0.7470(2) 0.0291(6) Uani 1 1 d . . . . . 
H22A H -0.189457 0.073464 0.687839 0.044 Uiso 1 1 calc R U . . . 
H22B H -0.288447 0.016954 0.774172 0.044 Uiso 1 1 calc R U . . . 
H22C H -0.189310 -0.058526 0.720891 0.044 Uiso 1 1 calc R U . . . 
C23 C 0.1601(4) 0.0719(2) 0.8023(2) 0.0295(6) Uani 1 1 d . . . . . 
H23A H 0.141567 -0.012420 0.777086 0.044 Uiso 1 1 calc R U . . . 
H23B H 0.272372 0.101077 0.863417 0.044 Uiso 1 1 calc R U . . . 
H23C H 0.171556 0.122309 0.743853 0.044 Uiso 1 1 calc R U . . . 
C24 C 0.2509(3) 0.3093(2) 0.99169(19) 0.0263(6) Uani 1 1 d . . . . . 
H24 H 0.347717 0.313263 0.956036 0.032 Uiso 1 1 calc R U . . . 
C25 C 0.2870(4) 0.2338(2) 1.0856(2) 0.0411(7) Uani 1 1 d . . . . . 
H25A H 0.411613 0.271316 1.134154 0.062 Uiso 1 1 calc R U . . . 
H25B H 0.274489 0.151527 1.057680 0.062 Uiso 1 1 calc R U . . . 
H25C H 0.198120 0.230134 1.124955 0.062 Uiso 1 1 calc R U . . . 
C26 C 0.2791(4) 0.4405(2) 1.0345(2) 0.0342(6) Uani 1 1 d . . . . . 
H26A H 0.193736 0.440603 1.075663 0.051 Uiso 1 1 calc R U . . . 
H26B H 0.255985 0.488121 0.973903 0.051 Uiso 1 1 calc R U . . . 
H26C H 0.405485 0.476332 1.081275 0.051 Uiso 1 1 calc R U . . . 
 
loop_ 
 _atom_site_aniso_label 
 _atom_site_aniso_U_11 
 _atom_site_aniso_U_22 
 _atom_site_aniso_U_33 
 _atom_site_aniso_U_23 
 _atom_site_aniso_U_13 
 _atom_site_aniso_U_12 
Si1 0.0310(4) 0.0169(3) 0.0160(3) 0.0009(2) 0.0131(3) 0.0074(3) 
C1 0.0303(13) 0.0152(11) 0.0180(12) -0.0002(9) 0.0143(10) 0.008(1) 
C2 0.0254(12) 0.0172(11) 0.0189(12) -0.0015(9) 0.0104(9) 0.0069(10) 
S3 0.0229(4) 0.0177(4) 0.0169(5) 0.0006(3) 0.0095(3) 0.0046(3) 
C4 0.0258(12) 0.015(4) 0.020(2) 0.001(1) 0.0129(9) 0.0062(10) 
C5 0.027(1) 0.018(2) 0.023(3) 0.0002(16) 0.0160(15) 0.0024(11) 
C6 0.0276(12) 0.0153(11) 0.0172(12) -0.0015(9) 0.0126(9) 0.0051(10) 
C2' 0.0254(12) 0.0172(11) 0.0189(12) -0.0015(9) 0.0104(9) 0.0069(10) 
C3' 0.0229(4) 0.0177(4) 0.0169(5) 0.0006(3) 0.0095(3) 0.0046(3) 
C4' 0.0258(12) 0.015(4) 0.020(2) 0.001(1) 0.0129(9) 0.0062(10) 
S5' 0.027(1) 0.018(2) 0.023(3) 0.0002(16) 0.0160(15) 0.0024(11) 
C6' 0.0276(12) 0.0153(11) 0.0172(12) -0.0015(9) 0.0126(9) 0.0051(10) 
C7 0.0275(12) 0.0170(11) 0.0190(13) -0.0023(9) 0.013(1) 0.0052(10) 
S8 0.0241(4) 0.0207(4) 0.0193(4) 0.0016(3) 0.0108(3) 0.0037(3) 
C9 0.0218(12) 0.0194(15) 0.0202(13) -0.0061(11) 0.0103(10) 0.0034(11) 
C10 0.0303(17) 0.0167(19) 0.0256(14) -0.0028(14) 0.0144(13) 0.0053(14) 
C11 0.0271(14) 0.0224(17) 0.031(2) -0.0058(15) 0.0138(14) 0.0022(12) 
C12 0.0252(13) 0.0242(13) 0.0282(17) -0.0076(11) 0.0090(11) 0.0069(12) 
C13 0.0280(16) 0.0187(12) 0.0258(15) -0.0043(11) 0.0086(13) 0.0059(14) 
C14 0.0282(13) 0.0171(12) 0.0214(15) -0.0059(11) 0.0128(11) 0.0069(11) 
C15 0.0288(12) 0.0186(15) 0.022(2) -0.0002(12) 0.0149(15) 0.0043(10) 
C7' 0.0275(12) 0.0170(11) 0.0190(13) -0.0023(9) 0.013(1) 0.0052(10) 
S8' 0.0288(12) 0.0186(15) 0.022(2) -0.0002(12) 0.0149(15) 0.0043(10) 
C9' 0.0282(13) 0.0171(12) 0.0214(15) -0.0059(11) 0.0128(11) 0.0069(11) 
C10' 0.0280(16) 0.0187(12) 0.0258(15) -0.0043(11) 0.0086(13) 0.0059(14) 
C11' 0.0252(13) 0.0242(13) 0.0282(17) -0.0076(11) 0.0090(11) 0.0069(12) 
C12' 0.0271(14) 0.0224(17) 0.031(2) -0.0058(15) 0.0138(14) 0.0022(12) 
C13' 0.0303(17) 0.0167(19) 0.0256(14) -0.0028(14) 0.0144(13) 0.0053(14) 
C14' 0.0218(12) 0.0194(15) 0.0202(13) -0.0061(11) 0.0103(10) 0.0034(11) 
C15' 0.0241(4) 0.0207(4) 0.0193(4) 0.0016(3) 0.0108(3) 0.0037(3) 
C16 0.0291(12) 0.0202(12) 0.0198(12) -0.0001(10) 0.0126(10) 0.009(1) 
C17 0.0289(12) 0.0220(12) 0.0206(12) 0.0005(10) 0.0112(10) 0.0076(10) 
C18 0.0411(14) 0.0233(13) 0.0220(13) -0.0003(10) 0.0189(11) 0.0092(11) 
C19 0.0335(14) 0.0337(15) 0.0357(16) -0.0008(12) 0.0184(12) 0.0106(12) 
C20 0.0581(18) 0.0431(17) 0.0348(16) 0.0117(13) 0.0341(14) 0.0203(15) 
C21 0.0346(13) 0.0167(11) 0.0182(12) 0.0004(9) 0.0144(10) 0.0053(10) 
C22 0.0396(15) 0.0231(13) 0.0249(14) -0.0043(10) 0.0156(11) 0.0048(12) 
C23 0.0397(15) 0.0220(13) 0.0335(15) -0.0019(11) 0.0205(12) 0.0109(12) 
C24 0.0375(14) 0.0193(12) 0.0234(13) 0.0006(10) 0.0119(11) 0.0083(11) 
C25 0.0583(19) 0.0260(14) 0.0286(16) 0.0000(12) 0.0018(13) 0.0088(14) 
C26 0.0469(16) 0.0222(13) 0.0300(15) -0.0023(11) 0.0103(12) 0.0072(13) 
 
_geom_special_details 
; 
 All esds (except the esd in the dihedral angle between two l.s. planes) 
 are estimated using the full covariance matrix.  The cell esds are taken 
 into account individually in the estimation of esds in distances, angles 
 and torsion angles; correlations between esds in cell parameters are only 
 used when they are defined by crystal symmetry.  An approximate (isotropic) 
 treatment of cell esds is used for estimating esds involving l.s. planes. 
; 
 
loop_ 
 _geom_bond_atom_site_label_1 
 _geom_bond_atom_site_label_2 
 _geom_bond_distance 
 _geom_bond_site_symmetry_2 
 _geom_bond_publ_flag 
Si1 C17 1.841(2) . ? 
Si1 C24 1.879(3) . ? 
Si1 C21 1.884(2) . ? 
Si1 C18 1.892(2) . ? 
C1 C6 1.396(3) 2_566 ? 
C1 C2 1.414(3) . ? 
C1 C2' 1.414(3) . ? 
C1 C16 1.423(3) . ? 
C2 C6 1.412(3) . ? 
C2 S3 1.726(2) . ? 
S3 C4 1.768(4) . ? 
C4 C5 1.349(6) . ? 
C4 C7 1.439(4) . ? 
C5 C6 1.426(5) . ? 
C5 H5 0.9500 . ? 
C2' C6' 1.412(3) . ? 
C2' C3' 1.448(10) . ? 
C3' C4' 1.351(11) . ? 
C3' H3' 0.9500 . ? 
C4' C7' 1.48(2) . ? 
C4' S5' 1.781(11) . ? 
S5' C6' 1.701(6) . ? 
C7 C15 1.355(5) . ? 
C7 S8 1.752(4) . ? 
S8 C9 1.743(4) . ? 
C9 C10 1.399(4) . ? 
C9 C14 1.402(4) . ? 
C10 C11 1.372(4) . ? 
C10 H10 0.9500 . ? 
C11 C12 1.406(4) . ? 
C11 H11 0.9500 . ? 
C12 C13 1.379(4) . ? 
C12 H12 0.9500 . ? 
C13 C14 1.398(4) . ? 
C13 H13 0.9500 . ? 
C14 C15 1.430(4) . ? 
C15 H15 0.9500 . ? 
C7' C15' 1.353(11) . ? 
C7' S8' 1.749(11) . ? 
S8' C9' 1.742(10) . ? 
C9' C10' 1.391(10) . ? 
C9' C14' 1.400(9) . ? 
C10' C11' 1.373(11) . ? 
C10' H10' 0.9500 . ? 
C11' C12' 1.406(9) . ? 
C11' H11' 0.9500 . ? 
C12' C13' 1.380(11) . ? 
C12' H12' 0.9500 . ? 
C13' C14' 1.398(10) . ? 
C13' H13' 0.9500 . ? 
C14' C15' 1.43(1) . ? 
C15' H15' 0.9500 . ? 
C16 C17 1.207(3) . ? 
C18 C19 1.530(4) . ? 
C18 C20 1.536(3) . ? 
C18 H18 1.0000 . ? 
C19 H19A 0.9800 . ? 
C19 H19B 0.9800 . ? 
C19 H19C 0.9800 . ? 
C20 H20A 0.9800 . ? 
C20 H20B 0.9800 . ? 
C20 H20C 0.9800 . ? 
C21 C22 1.530(3) . ? 
C21 C23 1.539(3) . ? 
C21 H21 1.0000 . ? 
C22 H22A 0.9800 . ? 
C22 H22B 0.9800 . ? 
C22 H22C 0.9800 . ? 
C23 H23A 0.9800 . ? 
C23 H23B 0.9800 . ? 
C23 H23C 0.9800 . ? 
C24 C25 1.532(3) . ? 
C24 C26 1.539(3) . ? 
C24 H24 1.0000 . ? 
C25 H25A 0.9800 . ? 
C25 H25B 0.9800 . ? 
C25 H25C 0.9800 . ? 
C26 H26A 0.9800 . ? 
C26 H26B 0.9800 . ? 
C26 H26C 0.9800 . ? 
 
loop_ 
 _geom_angle_atom_site_label_1 
 _geom_angle_atom_site_label_2 
 _geom_angle_atom_site_label_3 
 _geom_angle 
 _geom_angle_site_symmetry_1 
 _geom_angle_site_symmetry_3 
 _geom_angle_publ_flag 
C17 Si1 C24 106.03(11) . . ? 
C17 Si1 C21 106.32(10) . . ? 
C24 Si1 C21 110.81(11) . . ? 
C17 Si1 C18 107.53(11) . . ? 
C24 Si1 C18 112.75(11) . . ? 
C21 Si1 C18 112.89(11) . . ? 
C6 C1 C2 116.8(2) 2_566 . ? 
C6 C1 C16 120.4(2) 2_566 . ? 
C2 C1 C16 122.7(2) . . ? 
C2' C1 C16 122.7(2) . . ? 
C6 C2 C1 121.4(2) . . ? 
C6 C2 S3 114.24(16) . . ? 
C1 C2 S3 124.40(19) . . ? 
C2 S3 C4 89.98(13) . . ? 
C5 C4 C7 129.4(4) . . ? 
C5 C4 S3 111.2(3) . . ? 
C7 C4 S3 119.4(3) . . ? 
C4 C5 C6 116.1(3) . . ? 
C4 C5 H5 122.0 . . ? 
C6 C5 H5 122.0 . . ? 
C1 C6 C2 121.80(19) 2_566 . ? 
C1 C6 C5 129.7(3) 2_566 . ? 
C2 C6 C5 108.5(3) . . ? 
C6' C2' C1 121.4(2) . . ? 
C6' C2' C3' 101.4(5) . . ? 
C1 C2' C3' 137.3(6) . . ? 
C4' C3' C2' 118.6(9) . . ? 
C4' C3' H3' 120.7 . . ? 
C2' C3' H3' 120.7 . . ? 
C3' C4' C7' 135.3(17) . . ? 
C3' C4' S5' 111.6(8) . . ? 
C7' C4' S5' 112.7(12) . . ? 
C6' S5' C4' 86.2(4) . . ? 
C1 C6' C2' 121.80(19) 2_566 . ? 
C1 C6' S5' 116.1(3) 2_566 . ? 
C2' C6' S5' 122.1(3) . . ? 
C15 C7 C4 130.3(4) . . ? 
C15 C7 S8 111.7(2) . . ? 
C4 C7 S8 118.0(3) . . ? 
C9 S8 C7 91.16(15) . . ? 
C10 C9 C14 122.0(3) . . ? 
C10 C9 S8 126.4(3) . . ? 
C14 C9 S8 111.6(2) . . ? 
C11 C10 C9 117.8(3) . . ? 
C11 C10 H10 121.1 . . ? 
C9 C10 H10 121.1 . . ? 
C10 C11 C12 121.4(4) . . ? 
C10 C11 H11 119.3 . . ? 
C12 C11 H11 119.3 . . ? 
C13 C12 C11 120.4(4) . . ? 
C13 C12 H12 119.8 . . ? 
C11 C12 H12 119.8 . . ? 
C12 C13 C14 119.7(3) . . ? 
C12 C13 H13 120.2 . . ? 
C14 C13 H13 120.2 . . ? 
C13 C14 C9 118.8(3) . . ? 
C13 C14 C15 129.9(3) . . ? 
C9 C14 C15 111.3(3) . . ? 
C7 C15 C14 114.2(3) . . ? 
C7 C15 H15 122.9 . . ? 
C14 C15 H15 122.9 . . ? 
C15' C7' C4' 130.8(12) . . ? 
C15' C7' S8' 111.2(8) . . ? 
C4' C7' S8' 117.7(13) . . ? 
C9' S8' C7' 91.7(6) . . ? 
C10' C9' C14' 122.5(11) . . ? 
C10' C9' S8' 126.4(11) . . ? 
C14' C9' S8' 111.1(8) . . ? 
C11' C10' C9' 117.6(12) . . ? 
C11' C10' H10' 121.2 . . ? 
C9' C10' H10' 121.2 . . ? 
C10' C11' C12' 121.2(15) . . ? 
C10' C11' H11' 119.4 . . ? 
C12' C11' H11' 119.4 . . ? 
C13' C12' C11' 120.7(15) . . ? 
C13' C12' H12' 119.6 . . ? 
C11' C12' H12' 119.6 . . ? 
C12' C13' C14' 119.1(12) . . ? 
C12' C13' H13' 120.4 . . ? 
C14' C13' H13' 120.4 . . ? 
C13' C14' C9' 118.9(11) . . ? 
C13' C14' C15' 129.6(12) . . ? 
C9' C14' C15' 111.5(9) . . ? 
C7' C15' C14' 114.5(9) . . ? 
C7' C15' H15' 122.7 . . ? 
C14' C15' H15' 122.7 . . ? 
C17 C16 C1 176.5(2) . . ? 
C16 C17 Si1 176.1(2) . . ? 
C19 C18 C20 110.7(2) . . ? 
C19 C18 Si1 113.91(16) . . ? 
C20 C18 Si1 112.53(17) . . ? 
C19 C18 H18 106.4 . . ? 
C20 C18 H18 106.4 . . ? 
Si1 C18 H18 106.4 . . ? 
C18 C19 H19A 109.5 . . ? 
C18 C19 H19B 109.5 . . ? 
H19A C19 H19B 109.5 . . ? 
C18 C19 H19C 109.5 . . ? 
H19A C19 H19C 109.5 . . ? 
H19B C19 H19C 109.5 . . ? 
C18 C20 H20A 109.5 . . ? 
C18 C20 H20B 109.5 . . ? 
H20A C20 H20B 109.5 . . ? 
C18 C20 H20C 109.5 . . ? 
H20A C20 H20C 109.5 . . ? 
H20B C20 H20C 109.5 . . ? 
C22 C21 C23 110.49(19) . . ? 
C22 C21 Si1 112.13(16) . . ? 
C23 C21 Si1 110.86(16) . . ? 
C22 C21 H21 107.7 . . ? 
C23 C21 H21 107.7 . . ? 
Si1 C21 H21 107.7 . . ? 
C21 C22 H22A 109.5 . . ? 
C21 C22 H22B 109.5 . . ? 
H22A C22 H22B 109.5 . . ? 
C21 C22 H22C 109.5 . . ? 
H22A C22 H22C 109.5 . . ? 
H22B C22 H22C 109.5 . . ? 
C21 C23 H23A 109.5 . . ? 
C21 C23 H23B 109.5 . . ? 
H23A C23 H23B 109.5 . . ? 
C21 C23 H23C 109.5 . . ? 
H23A C23 H23C 109.5 . . ? 
H23B C23 H23C 109.5 . . ? 
C25 C24 C26 110.1(2) . . ? 
C25 C24 Si1 114.11(17) . . ? 
C26 C24 Si1 112.61(17) . . ? 
C25 C24 H24 106.5 . . ? 
C26 C24 H24 106.5 . . ? 
Si1 C24 H24 106.5 . . ? 
C24 C25 H25A 109.5 . . ? 
C24 C25 H25B 109.5 . . ? 
H25A C25 H25B 109.5 . . ? 
C24 C25 H25C 109.5 . . ? 
H25A C25 H25C 109.5 . . ? 
H25B C25 H25C 109.5 . . ? 
C24 C26 H26A 109.5 . . ? 
C24 C26 H26B 109.5 . . ? 
H26A C26 H26B 109.5 . . ? 
C24 C26 H26C 109.5 . . ? 
H26A C26 H26C 109.5 . . ? 
H26B C26 H26C 109.5 . . ? 
 
loop_ 
 _geom_torsion_atom_site_label_1 
 _geom_torsion_atom_site_label_2 
 _geom_torsion_atom_site_label_3 
 _geom_torsion_atom_site_label_4 
 _geom_torsion 
 _geom_torsion_site_symmetry_1 
 _geom_torsion_site_symmetry_2 
 _geom_torsion_site_symmetry_3 
 _geom_torsion_site_symmetry_4 
 _geom_torsion_publ_flag 
C6 C1 C2 C6 0.3(3) 2_566 . . . ? 
C16 C1 C2 C6 -178.32(19) . . . . ? 
C6 C1 C2 S3 -179.73(16) 2_566 . . . ? 
C16 C1 C2 S3 1.6(3) . . . . ? 
C6 C2 S3 C4 0.6(8) . . . . ? 
C1 C2 S3 C4 -179.3(8) . . . . ? 
C2 S3 C4 C5 -0.5(14) . . . . ? 
C2 S3 C4 C7 179.6(16) . . . . ? 
C7 C4 C5 C6 -179.9(16) . . . . ? 
S3 C4 C5 C6 0.3(18) . . . . ? 
C1 C2 C6 C1 -0.4(4) . . . 2_566 ? 
S3 C2 C6 C1 179.71(16) . . . 2_566 ? 
C1 C2 C6 C5 179.4(3) . . . . ? 
S3 C2 C6 C5 -0.5(3) . . . . ? 
C4 C5 C6 C1 179.8(12) . . . 2_566 ? 
C4 C5 C6 C2 0.1(13) . . . . ? 
C16 C1 C2' C6' -178.32(19) . . . . ? 
C16 C1 C2' C3' 0.1(15) . . . . ? 
C6' C2' C3' C4' -3(7) . . . . ? 
C1 C2' C3' C4' 178(7) . . . . ? 
C2' C3' C4' C7' 176(11) . . . . ? 
C2' C3' C4' S5' 3(11) . . . . ? 
C3' C4' S5' C6' -1(8) . . . . ? 
C7' C4' S5' C6' -175(8) . . . . ? 
C1 C2' C6' C1 -0.4(4) . . . 2_566 ? 
C3' C2' C6' C1 -179.3(10) . . . 2_566 ? 
C1 C2' C6' S5' -178.4(4) . . . . ? 
C3' C2' C6' S5' 2.7(11) . . . . ? 
C4' S5' C6' C1 -179(5) . . . 2_566 ? 
C4' S5' C6' C2' -1(5) . . . . ? 
C5 C4 C7 C15 -174.1(14) . . . . ? 
S3 C4 C7 C15 6(2) . . . . ? 
C5 C4 C7 S8 6(3) . . . . ? 
S3 C4 C7 S8 -174.5(9) . . . . ? 
C15 C7 S8 C9 0.07(12) . . . . ? 
C4 C7 S8 C9 -179.8(11) . . . . ? 
C7 S8 C9 C10 -179.91(13) . . . . ? 
C7 S8 C9 C14 -0.26(10) . . . . ? 
C14 C9 C10 C11 0.2(3) . . . . ? 
S8 C9 C10 C11 179.86(13) . . . . ? 
C9 C10 C11 C12 0.5(3) . . . . ? 
C10 C11 C12 C13 -0.5(3) . . . . ? 
C11 C12 C13 C14 -0.2(3) . . . . ? 
C12 C13 C14 C9 0.8(3) . . . . ? 
C12 C13 C14 C15 179.7(2) . . . . ? 
C10 C9 C14 C13 -0.9(2) . . . . ? 
S8 C9 C14 C13 179.43(15) . . . . ? 
C10 C9 C14 C15 -179.95(16) . . . . ? 
S8 C9 C14 C15 0.38(18) . . . . ? 
C4 C7 C15 C14 179.9(13) . . . . ? 
S8 C7 C15 C14 0.1(2) . . . . ? 
C13 C14 C15 C7 -179.26(19) . . . . ? 
C9 C14 C15 C7 -0.3(2) . . . . ? 
C3' C4' C7' C15' -174(10) . . . . ? 
S5' C4' C7' C15' -2(12) . . . . ? 
C3' C4' C7' S8' 12(18) . . . . ? 
S5' C4' C7' S8' -175(5) . . . . ? 
C15' C7' S8' C9' 0.08(15) . . . . ? 
C4' C7' S8' C9' 175(6) . . . . ? 
C7' S8' C9' C10' -179.96(17) . . . . ? 
C7' S8' C9' C14' 0.02(15) . . . . ? 
C14' C9' C10' C11' 0.0(4) . . . . ? 
S8' C9' C10' C11' 180.0(2) . . . . ? 
C9' C10' C11' C12' 0.0(5) . . . . ? 
C10' C11' C12' C13' -0.1(5) . . . . ? 
C11' C12' C13' C14' 0.1(5) . . . . ? 
C12' C13' C14' C9' -0.1(5) . . . . ? 
C12' C13' C14' C15' -179.9(3) . . . . ? 
C10' C9' C14' C13' 0.0(4) . . . . ? 
S8' C9' C14' C13' -180.0(2) . . . . ? 
C10' C9' C14' C15' 179.9(2) . . . . ? 
S8' C9' C14' C15' -0.1(3) . . . . ? 
C4' C7' C15' C14' -174(8) . . . . ? 
S8' C7' C15' C14' -0.2(3) . . . . ? 
C13' C14' C15' C7' -180.0(3) . . . . ? 
C9' C14' C15' C7' 0.2(4) . . . . ? 
C17 Si1 C18 C19 32.4(2) . . . . ? 
C24 Si1 C18 C19 148.92(18) . . . . ? 
C21 Si1 C18 C19 -84.6(2) . . . . ? 
C17 Si1 C18 C20 159.44(18) . . . . ? 
C24 Si1 C18 C20 -84.0(2) . . . . ? 
C21 Si1 C18 C20 42.5(2) . . . . ? 
C17 Si1 C21 C22 -62.30(18) . . . . ? 
C24 Si1 C21 C22 -177.08(15) . . . . ? 
C18 Si1 C21 C22 55.36(18) . . . . ? 
C17 Si1 C21 C23 61.70(19) . . . . ? 
C24 Si1 C21 C23 -53.1(2) . . . . ? 
C18 Si1 C21 C23 179.37(17) . . . . ? 
C17 Si1 C24 C25 -167.48(18) . . . . ? 
C21 Si1 C24 C25 -52.5(2) . . . . ? 
C18 Si1 C24 C25 75.1(2) . . . . ? 
C17 Si1 C24 C26 66.05(19) . . . . ? 
C21 Si1 C24 C26 -178.99(16) . . . . ? 
C18 Si1 C24 C26 -51.4(2) . . . . ? 
 
_refine_diff_density_max    0.643 
_refine_diff_density_min   -0.560 
_refine_diff_density_rms    0.075 
 
_shelx_res_file 
; 
TITL x17079 : space group P1bar 
    x17079.res 
    created by SHELXL-2016/6 at 09:42:26 on 16-Mar-2017 
CELL  1.54178   7.9881  11.5993  13.0399   91.329  106.459  106.815 
ZERR    1.000   0.0002   0.0003   0.0003    0.001    0.001    0.001 
LATT  1 
SFAC C H SI S 
UNIT 48 54 2 4 
TEMP -183 
SIZE 0.20 0.12 0.06 
REM FORM block 
REM COLR yellow 
L.S. 10 
BOND $H 
LIST 4 
ACTA 
CONF 
HTAB 
BIND C4 C7 
BIND C4' C7' 
FMAP 2 
PLAN 10 
REM EXTI    0.000279 not needed (SU(x)=0.00046) 
WGHT    0.091800    0.133300 
FVAR       0.49413   0.85108   0.85577 
SI1   3    0.024086    0.240540    0.885442    11.00000    0.03098    0.01687 = 
         0.01598    0.00090    0.01314    0.00742 
C1    1    0.017509    0.437756    0.595033    11.00000    0.03028    0.01516 = 
         0.01804   -0.00019    0.01428    0.00799 
EXYZ C2 C2' 
EXYZ C6 C6' 
EADP C2 C2' 
EADP S3 C3' 
EADP C4 C4' 
EADP C5 S5' 
EADP C6 C6' 
SAME 0.010 C6' S5' C4' C3' C2' 
RIGU C2 > C6' 
PART 1 
C2    1    0.172726    0.510656    0.569693    21.00000    0.02538    0.01716 = 
         0.01894   -0.00153    0.01038    0.00686 
S3    4    0.396993    0.533899    0.646763    21.00000    0.02286    0.01775 = 
         0.01687    0.00061    0.00951    0.00464 
C4    1    0.474750    0.629629    0.555187    21.00000    0.02584    0.01485 = 
         0.02006    0.00101    0.01287    0.00618 
C5    1    0.332766    0.638193    0.473310    21.00000    0.02700    0.01804 = 
         0.02270    0.00018    0.01605    0.00244 
AFIX  43 
H5    2    0.350730    0.685852    0.416781    21.00000   -1.20000 
AFIX   0 
C6    1    0.154136    0.571514    0.476589    21.00000    0.02764    0.01528 = 
         0.01723   -0.00147    0.01264    0.00510 
PART 2 
C2'   1    0.172726    0.510656    0.569693   -21.00000    0.02538    0.01716 = 
         0.01894   -0.00153    0.01038    0.00686 
C3'   1    0.370187    0.548735    0.616910   -21.00000    0.02286    0.01775 = 
         0.01687    0.00061    0.00951    0.00464 
AFIX  43 
H3'   2    0.424712    0.524718    0.684214   -21.00000   -1.20000 
AFIX   0 
C4'   1    0.475230    0.619163    0.563184   -21.00000    0.02584    0.01485 = 
         0.02006    0.00101    0.01287    0.00618 
S5'   4    0.339061    0.656734    0.442925   -21.00000    0.02700    0.01804 = 
         0.02270    0.00018    0.01605    0.00244 
C6'   1    0.154136    0.571514    0.476589   -21.00000    0.02764    0.01528 = 
         0.01723   -0.00147    0.01264    0.00510 
EADP C7 C7' 
EADP S8 C15' 
EADP C10 C13' 
EADP C11 C12' 
EADP C12 C11' 
EADP C13 C10' 
EADP C9 C14' 
EADP C14 C9' 
EADP C15 S8' 
SAME 0.010 C7' > C15' 
FLAT 0.010 C7 > C15 
FLAT 0.010 C7' > C15' 
RIGU C7 > C15' 
PART 1 
C7    1    0.668641    0.685347    0.574886    31.00000    0.02751    0.01701 = 
         0.01899   -0.00226    0.01299    0.00524 
S8    4    0.739464    0.789919    0.489040    31.00000    0.02409    0.02075 = 
         0.01930    0.00161    0.01084    0.00373 
C9    1    0.969376    0.812681    0.559367    31.00000    0.02176    0.01944 = 
         0.02022   -0.00613    0.01034    0.00341 
C10   1    1.121318    0.890595    0.536780    31.00000    0.03034    0.01665 = 
         0.02565   -0.00277    0.01444    0.00533 
AFIX  43 
H10   2    1.106448    0.937956    0.478340    31.00000   -1.20000 
AFIX   0 
C11   1    1.292561    0.896314    0.601871    31.00000    0.02708    0.02245 = 
         0.03109   -0.00579    0.01380    0.00220 
AFIX  43 
H11   2    1.397835    0.949037    0.588461    31.00000   -1.20000 
AFIX   0 
C12   1    1.315482    0.825797    0.687978    31.00000    0.02517    0.02416 = 
         0.02821   -0.00761    0.00896    0.00688 
AFIX  43 
H12   2    1.435496    0.830853    0.731537    31.00000   -1.20000 
AFIX   0 
C13   1    1.164775    0.749330    0.709582    31.00000    0.02797    0.01868 = 
         0.02580   -0.00428    0.00863    0.00586 
AFIX  43 
H13   2    1.180736    0.701642    0.767723    31.00000   -1.20000 
AFIX   0 
C14   1    0.988364    0.742349    0.645474    31.00000    0.02823    0.01710 = 
         0.02139   -0.00586    0.01279    0.00687 
C15   1    0.813517    0.670471    0.651585    31.00000    0.02879    0.01864 = 
         0.02168   -0.00025    0.01490    0.00432 
AFIX  43 
H15   2    0.800063    0.616924    0.704800    31.00000   -1.20000 
AFIX   0 
PART 2 
C7'   1    0.673892    0.681620    0.585409   -31.00000    0.02751    0.01701 = 
         0.01899   -0.00226    0.01299    0.00524 
S8'   4    0.825620    0.643964    0.695121   -31.00000    0.02879    0.01864 = 
         0.02168   -0.00025    0.01490    0.00432 
C9'   1    1.015302    0.734365    0.662860   -31.00000    0.02823    0.01710 = 
         0.02139   -0.00586    0.01279    0.00687 
C10'  1    1.198701    0.751300    0.718411   -31.00000    0.02797    0.01868 = 
         0.02580   -0.00428    0.00863    0.00586 
AFIX  43 
H10'  2    1.232676    0.712199    0.780700   -31.00000   -1.20000 
AFIX   0 
C11'  1    1.328794    0.826557    0.679959   -31.00000    0.02517    0.02416 = 
         0.02821   -0.00761    0.00896    0.00688 
AFIX  43 
H11'  2    1.455124    0.839756    0.716276   -31.00000   -1.20000 
AFIX   0 
C12'  1    1.278477    0.884475    0.587785   -31.00000    0.02708    0.02245 = 
         0.03109   -0.00579    0.01380    0.00220 
AFIX  43 
H12'  2    1.371073    0.936251    0.562804   -31.00000   -1.20000 
AFIX   0 
C13'  1    1.096175    0.866960    0.533225   -31.00000    0.03034    0.01665 = 
         0.02565   -0.00277    0.01444    0.00533 
AFIX  43 
H13'  2    1.062863    0.906172    0.470915   -31.00000   -1.20000 
AFIX   0 
C14'  1    0.961093    0.790742    0.570840   -31.00000    0.02176    0.01944 = 
         0.02022   -0.00613    0.01034    0.00341 
C15'  1    0.765669    0.758336    0.528941   -31.00000    0.02409    0.02075 = 
         0.01930    0.00161    0.01084    0.00373 
AFIX  43 
H15'  2    0.705218    0.788229    0.466558   -31.00000   -1.20000 
AFIX   0 
PART 0 
C16   1    0.031530    0.377838    0.689662    11.00000    0.02905    0.02022 = 
         0.01982   -0.00009    0.01258    0.00897 
C17   1    0.034024    0.326821    0.769416    11.00000    0.02887    0.02196 = 
         0.02060    0.00047    0.01119    0.00758 
C18   1   -0.176050    0.255967    0.928793    11.00000    0.04108    0.02329 = 
         0.02203   -0.00029    0.01891    0.00922 
AFIX  13 
H18   2   -0.129263    0.333736    0.977451    11.00000   -1.20000 
AFIX   0 
C19   1   -0.336579    0.266640    0.836070    11.00000    0.03350    0.03372 = 
         0.03574   -0.00084    0.01843    0.01056 
AFIX 137 
H19A  2   -0.391235    0.190646    0.787744    11.00000   -1.50000 
H19B  2   -0.292091    0.333282    0.796088    11.00000   -1.50000 
H19C  2   -0.429213    0.282827    0.865000    11.00000   -1.50000 
AFIX   0 
C20   1   -0.242730    0.155208    0.995575    11.00000    0.05811    0.04314 = 
         0.03476    0.01166    0.03405    0.02035 
AFIX 137 
H20A  2   -0.338072    0.171377    1.021869    11.00000   -1.50000 
H20B  2   -0.139456    0.152984    1.056916    11.00000   -1.50000 
H20C  2   -0.293220    0.076956    0.950560    11.00000   -1.50000 
AFIX   0 
C21   1   -0.004852    0.079365    0.837748    11.00000    0.03459    0.01672 = 
         0.01822    0.00044    0.01438    0.00531 
AFIX  13 
H21   2   -0.009099    0.030871    0.899897    11.00000   -1.20000 
AFIX   0 
C22   1   -0.184136    0.022721    0.747004    11.00000    0.03957    0.02311 = 
         0.02493   -0.00431    0.01560    0.00478 
AFIX 137 
H22A  2   -0.189457    0.073464    0.687839    11.00000   -1.50000 
H22B  2   -0.288447    0.016954    0.774172    11.00000   -1.50000 
H22C  2   -0.189310   -0.058526    0.720891    11.00000   -1.50000 
AFIX   0 
C23   1    0.160135    0.071906    0.802309    11.00000    0.03968    0.02204 = 
         0.03350   -0.00187    0.02054    0.01087 
AFIX 137 
H23A  2    0.141567   -0.012420    0.777086    11.00000   -1.50000 
H23B  2    0.272372    0.101077    0.863417    11.00000   -1.50000 
H23C  2    0.171556    0.122309    0.743853    11.00000   -1.50000 
AFIX   0 
C24   1    0.250946    0.309346    0.991685    11.00000    0.03752    0.01932 = 
         0.02340    0.00061    0.01185    0.00828 
AFIX  13 
H24   2    0.347717    0.313263    0.956036    11.00000   -1.20000 
AFIX   0 
C25   1    0.287043    0.233775    1.085574    11.00000    0.05833    0.02602 = 
         0.02864   -0.00001    0.00175    0.00876 
AFIX 137 
H25A  2    0.411613    0.271316    1.134154    11.00000   -1.50000 
H25B  2    0.274489    0.151527    1.057680    11.00000   -1.50000 
H25C  2    0.198120    0.230134    1.124955    11.00000   -1.50000 
AFIX   0 
C26   1    0.279094    0.440513    1.034522    11.00000    0.04691    0.02220 = 
         0.03004   -0.00231    0.01032    0.00720 
AFIX 137 
H26A  2    0.193736    0.440603    1.075663    11.00000   -1.50000 
H26B  2    0.255985    0.488121    0.973903    11.00000   -1.50000 
H26C  2    0.405485    0.476332    1.081275    11.00000   -1.50000 
 
AFIX   0 
HKLF 4 
 
 
 
 
REM  x17079 : space group P1bar 
REM R1 =  0.0523 for    3423 Fo > 4sig(Fo)  and  0.0598 for all    4039 data 
REM    288 parameters refined using    243 restraints 
 
END 
 
WGHT      0.0918      0.1333 
 
REM Instructions for potential hydrogen bonds 
EQIV $2 -x+2, -y+2, -z+1 
HTAB C10 S8_$2 
 
REM Highest difference peak  0.643,  deepest hole -0.560,  1-sigma level  0.075 
Q1    1   0.0013  0.1599  0.8463  11.00000  0.05    0.64 
Q2    1   0.4001  0.5953  0.6982  11.00000  0.05    0.52 
Q3    1   0.7324  0.7425  0.4251  11.00000  0.05    0.46 
Q4    1   0.0062  0.3050  0.8356  11.00000  0.05    0.39 
Q5    1   0.7475  0.8615  0.5412  11.00000  0.05    0.39 
Q6    1   0.3783  0.4590  0.6024  11.00000  0.05    0.38 
Q7    1   0.4691  0.4834  0.6794  11.00000  0.05    0.37 
Q8    1  -0.0102  0.2648  0.9553  11.00000  0.05    0.34 
Q9    1  -0.0258  0.3577  0.7360  11.00000  0.05    0.34 
Q10   1  -0.1056  0.2822  0.8652  11.00000  0.05    0.33 
; 
_shelx_res_checksum   43034 
 
_shelx_hkl_file
;
  -1   0   0 1100.19 85.0866   3
  -1   0   0 1299.84 88.2142   1
  -1   0   0 1349.73 88.2621   1
   1   0   0 1265.86 88.2292   1
   1   0   0 1292.55 93.5212   4
   1   0   0 1336.44 97.4796  10
   1   0   0 1195.11 85.1474   3
   1   0   0 1378.87 100.462   2
  -2   0   0 473.974 32.0227   1
  -2   0   0 451.565 35.6552  15
  -2   0   0 419.532 34.0735   9
  -2   0   0 418.782 30.8986   3
  -2   0   0 473.677 31.9963   1
   2   0   0 419.915 31.9661   1
   2   0   0 496.826 32.1057  11
   2   0   0 490.917 33.6730   5
   2   0   0 496.939 30.8713   3
   2   0   0 497.196 36.6577   2
   2   0   0 451.118 32.0160   1
  -3   0   0 401.152 36.6483  15
  -3   0   0 431.965 35.0623   9
  -3   0   0 513.348 32.9173   1
  -3   0   0 492.077 32.8760   1
   3   0   0 513.340 31.6835   3
   3   0   0 498.714 34.7388   5
   3   0   0 523.151 33.1410  11
   3   0   0 518.914 37.7611   2
   3   0   0 435.853 32.8858   1
   3   0   0 417.384 32.8083   1
   4   0   0 227.450 15.5894  11
   4   0   0 225.050 16.3583   5
   4   0   0 229.309 17.5811   2
   4   0   0 219.891 14.4299   3
   4   0   0 185.625 16.5718  13
   4   0   0 190.257 16.1296   7
   5   0   0 183.873 14.2858   5
   5   0   0 178.544 12.1770   3
   5   0   0 187.464 12.8015  16
   5   0   0 171.855 12.4687  17
   5   0   0 168.659 18.9347  20
   5   0   0 183.157 16.4881  26
   5   0   0 193.241 15.1102   2
   5   0   0 176.064 13.5587  11
   6   0   0 128.999 12.6250  21
   6   0   0 133.749 13.7488  20
   6   0   0 105.284 9.85768  11
   6   0   0 112.866 10.4391   5
   6   0   0 112.266 11.7478  26
   6   0   0 140.486 9.16410  16
   6   0   0 126.026 8.86092  17
   7   0   0 114.625 8.07572  17
   7   0   0 109.768 12.6093  20
   7   0   0 116.757 8.25179  16
   7   0   0 94.0397 10.6232  26
   7   0   0 128.440 11.5066  21
   8   0   0 7.87340 2.80210  20
   8   0   0 12.9015 2.71625  21
   8   0   0 12.7017 1.46163  17
   8  -1   0 64.8707 4.76590  17
   8  -1   0 58.7220 7.88627  20
   8  -1   0 75.5503 7.72047  21
   7  -1   0 4.32580 2.40377  21
   7  -1   0 3.00489 1.10641  17
   7  -1   0 2.83598 0.92124  16
   7  -1   0 2.37608 2.52551  19
   7  -1   0 5.90617 2.39674  20
   6  -1   0 40.4441 4.08581   2
   6  -1   0 48.9440 5.73590  21
   6  -1   0 36.0688 4.47157  26
   6  -1   0 39.0816 2.86480   3
   6  -1   0 36.8487 4.54037   5
   6  -1   0 37.4561 5.01772  19
   6  -1   0 44.7778 5.88082  20
   6  -1   0 42.0088 4.45726  11
   6  -1   0 39.5635 3.35383  16
   6  -1   0 41.3354 3.26944  17
   5  -1   0 155.701 12.3467   2
   5  -1   0 140.949 14.2933  21
   5  -1   0 147.463 10.2122  17
   5  -1   0 134.456 10.4466  16
   5  -1   0 126.722 13.4317  26
   5  -1   0 167.268 9.97925   3
   5  -1   0 144.844 11.8460   5
   5  -1   0 156.107 15.7331  20
   5  -1   0 142.691 11.2652  11
   4  -1   0 357.440 27.9227   5
   4  -1   0 378.723 30.1102   2
   4  -1   0 374.081 27.6026   7
   4  -1   0 379.423 26.6551  11
   4  -1   0 354.043 28.3636  13
   4  -1   0 402.062 25.1920   3
   3  -1   0 180.678 12.2199  11
   3  -1   0 159.959 11.7820   1
   3  -1   0 187.578 13.6649   2
   3  -1   0 181.074 11.3099   3
   3  -1   0 156.448 11.7228   1
   3  -1   0 166.429 12.7429   7
   3  -1   0 180.100 12.8288   5
   3  -1   0 147.695 11.3129   3
   3  -1   0 162.874 13.1014  13
  -3   1   0 149.404 12.6193   9
  -3   1   0 189.234 11.8019   1
  -3   1   0 181.372 11.7729   1
  -3   1   0 153.908 13.1949  15
   2  -1   0 0.19753 1.06512  11
   2  -1   0 0.86712 0.95550   2
   2  -1   0 -0.2827 0.60628   2
   2  -1   0 0.09635 0.22386   3
   2  -1   0 0.17314 1.11178  10
   2  -1   0 -0.1602 0.22323   1
   2  -1   0 0.46219 1.07983   4
   2  -1   0 0.01116 0.29994   1
   2  -1   0 0.04004 1.39402  13
   2  -1   0 -0.2288 1.13420   5
   2  -1   0 0.52715 0.21628   3
   2  -1   0 -0.3485 1.32932   7
  -2   1   0 0.02898 0.28277   1
  -2   1   0 -0.0326 0.24986   1
   1  -1   0 280.896 20.2701   3
   1  -1   0 309.629 20.2673   3
   1  -1   0 307.920 22.4050   4
   1  -1   0 281.442 21.7739   7
   1  -1   0 324.026 21.0028   1
   1  -1   0 256.679 23.9629   2
   1  -1   0 308.533 20.9887   1
   1  -1   0 329.929 23.3617  10
   1  -1   0 344.483 23.9662   2
   1  -1   0 304.139 22.0910   5
   1  -1   0 277.117 22.4064  13
   1  -1   0 285.948 21.0488  11
  -1   1   0 330.442 20.9860   1
  -1   1   0 310.132 20.9856   1
   0  -1   0 248.852 21.3482  15
   0  -1   0 268.919 19.7435   7
   0  -1   0 255.723 21.9051   2
   0  -1   0 274.522 18.4606   3
   0  -1   0 259.329 20.4095   9
   0  -1   0 263.561 20.3111  13
   0   1   0 305.705 19.1307   1
   0   1   0 279.320 18.4548   3
   0   1   0 314.081 19.1170   1
  -1  -1   0 120.101 10.6778  15
  -1  -1   0 122.251 10.9515   2
  -1  -1   0 130.993 8.99175   3
  -1  -1   0 118.541 10.1929   9
  -1  -1   0 144.641 9.35192   1
  -1  -1   0 135.194 9.31895   1
   1   1   0 140.188 8.97361   3
   1   1   0 137.339 9.35198   1
   1   1   0 148.391 10.8065   2
   1   1   0 133.423 9.30626   1
   1   1   0 128.660 6.88705   6
   1   1   0 131.940 6.86131  12
  -2  -1   0 334.050 22.9766   3
  -2  -1   0 318.971 26.8047  15
  -2  -1   0 334.087 25.6353   9
  -2  -1   0 362.917 23.8119   1
  -2  -1   0 288.314 27.6303   2
  -2  -1   0 352.857 23.8458   1
   2   1   0 315.971 23.7658   1
   2   1   0 365.289 17.5509   6
   2   1   0 333.444 23.8349   1
   2   1   0 384.559 27.4198   2
   2   1   0 360.292 22.9382   3
   2   1   0 353.080 17.4683  12
  -3  -1   0 25.3821 3.35271  15
  -3  -1   0 22.7681 1.93126   1
  -3  -1   0 26.7633 3.16035   9
  -3  -1   0 23.7085 1.87689   1
   3   1   0 22.1606 1.67094   3
   3   1   0 24.7126 2.65303   5
   3   1   0 18.9202 1.73375   1
   3   1   0 23.5112 2.49168   2
   3   1   0 24.8732 2.50499  11
   4   1   0 21.5568 2.76963   2
   4   1   0 26.9946 3.08657  11
   4   1   0 23.9760 3.15911   5
   4   1   0 21.0046 1.68303   3
   5   1   0 696.830 47.9988  11
   5   1   0 677.248 60.2661  26
   5   1   0 709.222 54.6248   2
   5   1   0 667.937 50.3073   5
   5   1   0 684.863 69.3431  20
   5   1   0 627.825 46.2016  17
   5   1   0 709.774 47.2172  16
   6   1   0 50.7815 5.83265  20
   6   1   0 49.9188 6.15152  21
   6   1   0 39.2083 5.12048   5
   6   1   0 36.5349 5.41585  26
   6   1   0 49.3496 4.12237  16
   6   1   0 47.5622 3.86303  17
   6   1   0 37.7345 4.79732  11
   7   1   0 1.53974 2.95310  21
   7   1   0 0.32378 1.34053  16
   7   1   0 0.13710 0.87993  17
   7   1   0 0.80190 1.97568  26
   7   1   0 0.69620 2.58554  20
   8   1   0 60.6647 4.39995  17
   8   1   0 57.6860 6.49106  21
   9  -2   0 1.08721 1.65466  21
   8  -2   0 0.77257 1.89663  20
   8  -2   0 1.69589 0.73201  17
   8  -2   0 -0.1035 2.91071  21
   7  -2   0 12.3647 1.47473  17
   7  -2   0 17.4208 3.84672  20
   7  -2   0 9.13831 3.05039  19
   7  -2   0 15.4237 3.79545  21
   6  -2   0 30.6015 4.66550  20
   6  -2   0 26.5971 1.86754   3
   6  -2   0 23.5968 2.77728   2
   6  -2   0 26.2454 2.42358  17
   6  -2   0 29.9459 3.62182  19
   6  -2   0 19.9440 3.39772  11
   6  -2   0 32.0095 4.49531  21
   6  -2   0 20.0641 3.55207   5
   6  -2   0 24.4888 2.30981  16
   5  -2   0 1.42177 0.29125   3
   5  -2   0 2.34152 2.40970  20
   5  -2   0 1.07872 2.44587  18
   5  -2   0 2.27310 0.96266  16
   5  -2   0 1.44226 1.58236  11
   5  -2   0 2.27179 0.76944  17
   5  -2   0 3.73816 2.53684  21
   5  -2   0 1.73186 1.02048   2
   5  -2   0 0.08429 1.62356   5
   4  -2   0 841.561 63.7899   5
   4  -2   0 857.055 64.6798  13
   4  -2   0 847.866 62.8448   7
   4  -2   0 917.042 58.3715   3
   4  -2   0 823.155 60.7944  11
   4  -2   0 947.690 69.1996   2
   3  -2   0 200.640 15.0172   1
   3  -2   0 247.375 17.3169   2
   3  -2   0 234.614 16.4289   4
   3  -2   0 203.353 14.9854   1
   3  -2   0 237.116 14.4634   3
   3  -2   0 215.669 16.6349  13
   3  -2   0 241.971 17.1364  10
   3  -2   0 210.369 16.2307   5
   3  -2   0 207.877 15.4605  11
   3  -2   0 189.064 14.4657   3
   3  -2   0 205.342 16.1357   7
  -3   2   0 214.810 15.0054   1
  -3   2   0 214.152 15.0056   1
   2  -2   0 1.24260 1.54175   7
   2  -2   0 1.25203 0.21331   1
   2  -2   0 0.81925 1.53216  13
   2  -2   0 1.11649 0.66465   2
   2  -2   0 1.50801 0.78444  10
   2  -2   0 2.14739 1.17417  11
   2  -2   0 1.58098 0.75627   4
   2  -2   0 1.16795 0.54756   2
   2  -2   0 1.27442 0.16329   3
   2  -2   0 -0.2619 1.17754   5
   2  -2   0 0.89046 0.17701   1
   2  -2   0 1.58231 0.15650   3
  -2   2   0 0.98490 0.16741   1
  -2   2   0 1.05118 0.16874   1
   1  -2   0 517.039 41.0410  13
   1  -2   0 526.514 37.2182   3
   1  -2   0 529.718 43.9299   2
   1  -2   0 504.889 46.6771   8
   1  -2   0 491.932 51.4048  14
   1  -2   0 551.008 38.5591   1
   1  -2   0 631.550 38.5287   1
   1  -2   0 610.612 41.0028   4
   1  -2   0 476.666 43.9567   2
   1  -2   0 527.799 39.8875   7
   1  -2   0 602.780 37.2133   3
   1  -2   0 622.906 42.7382  10
  -1   2   0 587.733 38.5446   1
  -1   2   0 620.106 38.5706   1
   0  -2   0 877.047 75.0821   2
   0  -2   0 950.804 69.5890  13
   0  -2   0 950.166 63.4461   3
   0  -2   0 870.232 69.8770   9
   0  -2   0 1027.27 65.7134   1
   0  -2   0 884.098 73.0984  15
   0  -2   0 966.139 67.6315   7
   0   2   0 1013.04 65.7144   1
   0   2   0 1004.56 65.6845   1
   0   2   0 958.924 63.4352   3
  -1  -2   0 14.3833 1.26638   1
  -1  -2   0 14.1480 2.42971   9
  -1  -2   0 12.6182 1.05111   3
  -1  -2   0 14.3185 1.17682   1
  -1  -2   0 15.1170 2.49969   2
  -1  -2   0 15.7078 2.67173  15
   1   2   0 14.8028 1.07246  12
   1   2   0 12.9502 1.14426   1
   1   2   0 13.2495 1.25902   1
   1   2   0 13.7334 1.05837   6
   1   2   0 15.2575 1.91459   2
   1   2   0 13.8129 1.02680   3
  -2  -2   0 155.450 12.7987   9
  -2  -2   0 172.256 11.4058   1
  -2  -2   0 169.511 13.4012  15
  -2  -2   0 147.421 13.7396   2
  -2  -2   0 165.783 11.3448   1
  -2  -2   0 152.749 10.9160   3
   2   2   0 168.648 10.8726   3
   2   2   0 152.226 11.3749   1
   2   2   0 179.678 13.3281   2
   2   2   0 158.780 8.44593   6
   2   2   0 157.962 8.41105  12
   2   2   0 151.092 11.2908   1
  -3  -2   0 450.248 33.6869   1
  -3  -2   0 454.958 37.9905  15
  -3  -2   0 455.319 36.3102   9
   3   2   0 484.582 32.3999   3
   3   2   0 536.720 35.6099   5
   3   2   0 510.949 33.9090  11
   3   2   0 496.937 38.8070   2
   4   2   0 178.029 12.3513  11
   4   2   0 160.676 13.9181   2
   4   2   0 156.033 11.1287   3
   4   2   0 168.462 12.9171   5
   5   2   0 41.1711 5.15683  26
   5   2   0 35.4940 4.15441  11
   5   2   0 38.8658 4.45015   2
   5   2   0 38.1329 3.32236  17
   5   2   0 35.8337 2.80340   3
   5   2   0 38.3355 4.45577   5
   5   2   0 37.3563 3.68790  16
   5   2   0 38.5049 5.12534  20
   6   2   0 14.2019 2.05468  17
   6   2   0 18.6304 3.53255  20
   6   2   0 13.3197 2.21551  16
   6   2   0 12.9604 3.10959  26
   7   2   0 1.61059 2.77680  21
   7   2   0 1.51743 2.08802  26
   7   2   0 1.93024 1.45689  16
   7   2   0 2.57505 1.37127  17
   8   2   0 4.15885 1.76085  21
   8   2   0 0.56319 0.65250  17
   9  -3   0 -0.1121 1.60927  21
   9  -3   0 0.39951 1.33430  20
   8  -3   0 83.9293 8.80865  19
   8  -3   0 109.907 10.6774  21
   8  -3   0 96.3123 11.0913  20
   8  -3   0 106.174 6.91801  17
   7  -3   0 5.14949 2.54160  21
   7  -3   0 3.38024 0.81840  17
   7  -3   0 1.70250 2.82818  19
   7  -3   0 4.93009 3.15073  20
   6  -3   0 96.9735 9.53475  19
   6  -3   0 99.1153 7.21166  17
   6  -3   0 108.092 10.9240  21
   6  -3   0 109.388 11.7537  20
   5  -3   0 138.344 12.1139   5
   5  -3   0 158.007 10.2031   3
   5  -3   0 156.577 12.1887   2
   5  -3   0 172.419 10.2035   3
   5  -3   0 150.054 10.5024  17
   5  -3   0 144.861 11.5829  11
   5  -3   0 149.914 14.7431  21
   5  -3   0 131.114 12.1591   2
   5  -3   0 149.589 16.4463  20
   5  -3   0 158.411 13.6368  18
   5  -3   0 155.403 13.1584  19
   4  -3   0 87.2069 7.07270  11
   4  -3   0 90.1671 5.95052   3
   4  -3   0 87.3887 7.43718   5
   4  -3   0 91.2776 7.87301  13
   4  -3   0 100.775 5.94828   3
   4  -3   0 75.1064 7.17558   2
   4  -3   0 94.2989 7.20399   2
   4  -3   0 81.8400 6.17845   1
   4  -3   0 86.5924 7.63661   7
   3  -3   0 67.7366 5.34327   4
   3  -3   0 54.0985 5.68526   7
   3  -3   0 67.7383 5.55180  10
   3  -3   0 60.4817 5.88435  13
   2  -3   0 189.512 18.3880   8
   2  -3   0 201.155 20.2893  14
   2  -3   0 246.234 16.8401  10
   2  -3   0 231.594 16.1409   4
   2  -3   0 209.640 16.0883   7
   2  -3   0 209.275 16.5400  13
   1  -3   0 152.797 11.5444   7
   1  -3   0 156.971 11.8163  10
   1  -3   0 151.512 12.2660   2
   1  -3   0 130.439 13.3431   8
   1  -3   0 125.580 14.6925  14
   1  -3   0 163.703 12.1340   2
   1  -3   0 142.561 10.1699   3
   1  -3   0 152.215 11.8593  13
   1  -3   0 161.014 10.5659   1
   1  -3   0 159.094 10.1677   3
   1  -3   0 152.105 11.3307   4
   1  -3   0 142.917 10.5301   1
  -1   3   0 166.501 10.5485   1
  -1   3   0 151.641 10.5606   1
   0  -3   0 49.1762 4.62180   7
   0  -3   0 55.0932 3.72532   1
   0  -3   0 51.6457 4.91457   2
   0  -3   0 50.2182 4.71897  13
   0  -3   0 47.9787 4.91896   9
   0  -3   0 52.8703 3.52057   3
   0  -3   0 48.2935 5.25817  15
   0   3   0 46.6103 3.49276   3
   0   3   0 48.7066 3.69402   1
   0   3   0 55.1180 3.67181   1
  -1  -3   0 396.940 26.5118   1
  -1  -3   0 386.010 25.5868   3
  -1  -3   0 391.325 26.5647   1
  -1  -3   0 374.368 30.1777  15
  -1  -3   0 372.452 30.8851   2
  -1  -3   0 390.382 28.8373   9
   1   3   0 353.400 26.5451   1
   1   3   0 366.624 26.4878   1
   1   3   0 383.997 19.3788  12
   1   3   0 367.012 25.5432   3
   1   3   0 396.485 19.4698   6
   1   3   0 405.509 30.5662   2
  -2  -3   0 8.88752 2.89013  15
  -2  -3   0 8.31850 2.22542   2
  -2  -3   0 8.73254 2.67597   9
  -2  -3   0 7.89626 0.95910   1
  -2  -3   0 7.63631 0.86369   1
  -2  -3   0 7.87871 0.90158   3
   2   3   0 8.87876 1.59457   2
   2   3   0 7.27078 0.93574   1
   2   3   0 9.15245 1.08157   6
   2   3   0 6.53906 0.80859   1
   2   3   0 10.0599 1.11630  12
   2   3   0 7.95858 0.80823   3
  -3  -3   0 6.76585 3.21097  15
  -3  -3   0 6.53029 2.93149   9
   3   3   0 6.36250 1.61625  11
   3   3   0 7.59297 1.79065   5
   3   3   0 6.67925 1.77495   2
   3   3   0 5.15405 0.65253   3
   4   3   0 23.5013 3.14362   2
   4   3   0 29.5381 3.44358  11
   4   3   0 27.2721 3.53466   5
   4   3   0 24.6140 3.53595  26
   4   3   0 22.0189 1.85097   3
   5   3   0 61.0132 6.72315  26
   5   3   0 48.9094 3.84717   3
   5   3   0 53.0275 5.57037   5
   5   3   0 47.3376 5.78297   2
   5   3   0 56.4187 5.35249  11
   5   3   0 59.1630 4.86957  16
   6   3   0 96.2667 7.39648  16
   6   3   0 85.9524 7.00746  17
   6   3   0 100.159 9.83597  26
   7   3   0 66.4854 5.18768  17
   7   3   0 66.9051 5.52517  16
   7   3   0 64.5929 7.30328  26
   7   3   0 79.3764 7.48273  21
   9  -4   0 48.8757 6.66069  20
   9  -4   0 64.1329 6.08438  21
   8  -4   0 6.43792 2.20057  19
   8  -4   0 9.69315 2.69987  21
   8  -4   0 7.31660 2.70020  20
   7  -4   0 14.9354 1.44988  17
   7  -4   0 21.6810 3.69808  21
   7  -4   0 14.8080 4.00248  20
   7  -4   0 15.3855 3.49545  19
   6  -4   0 10.2409 2.93302  18
   6  -4   0 12.1479 3.56567  20
   6  -4   0 11.9603 3.03063  21
   6  -4   0 10.9621 1.19006  17
   6  -4   0 11.7144 3.03815  19
   5  -4   0 12.8848 2.92061   7
   5  -4   0 17.4958 2.95409  19
   5  -4   0 14.7557 3.48012  21
   5  -4   0 18.3044 3.66674  20
   5  -4   0 19.2275 3.09315  18
   5  -4   0 13.3526 1.33035  17
   5  -4   0 12.8709 2.92702  13
   4  -4   0 89.0121 8.63838  13
   4  -4   0 92.9337 8.47229   7
   4  -4   0 103.846 8.07202   4
   4  -4   0 103.347 8.40209  10
   3  -4   0 174.752 15.5633  13
   3  -4   0 186.816 15.1891   7
   3  -4   0 206.386 15.0565   4
   3  -4   0 214.046 15.7074  10
   2  -4   0 22.8390 3.61673   8
   2  -4   0 20.0185 2.03324  10
   2  -4   0 21.2976 3.11952   7
   2  -4   0 19.4549 3.09857  13
   2  -4   0 17.7781 1.93110   4
   2  -4   0 18.8307 3.86430  14
   1  -4   0 100.117 7.41163   4
   1  -4   0 97.9571 8.07364   7
   1  -4   0 98.6352 8.29565   2
   1  -4   0 84.5489 10.2957  14
   1  -4   0 99.8437 8.27993  13
   1  -4   0 97.7524 6.88320   1
   1  -4   0 88.4524 9.36614   8
   1  -4   0 105.198 6.59041   3
   1  -4   0 95.8278 7.71439  10
  -1   4   0 96.3880 6.88174   1
  -1   4   0 97.4581 6.84772   1
   0  -4   0 305.884 22.7792   7
   0  -4   0 305.839 20.7195   3
   0  -4   0 327.721 25.1526   2
   0  -4   0 311.688 23.4272  13
   0  -4   0 322.825 21.5406   1
   0  -4   0 320.787 24.8030  15
   0  -4   0 322.045 23.6309   9
   0   4   0 270.912 20.6892   3
   0   4   0 323.606 21.4844   1
   0   4   0 297.355 21.5299   1
  -1  -4   0 26.2868 4.15674  15
  -1  -4   0 19.8904 3.36968   2
  -1  -4   0 16.8078 1.42222   3
  -1  -4   0 17.1388 1.63223   1
  -1  -4   0 17.9372 1.50196   1
  -1  -4   0 23.0058 3.67727   9
   1   4   0 16.2873 1.33309   6
   1   4   0 16.2654 1.48905   1
   1   4   0 15.3702 1.62199   1
   1   4   0 17.3130 1.34684  12
   1   4   0 17.5730 2.44680   2
   1   4   0 16.9003 1.36623   3
  -2  -4   0 2.82913 2.54169   2
  -2  -4   0 1.90194 0.72631   1
  -2  -4   0 2.01801 0.57249   3
  -2  -4   0 1.07576 2.47088   9
  -2  -4   0 0.49559 2.68833  15
   2   4   0 1.75118 0.75361   6
   2   4   0 2.09314 0.47558   3
   2   4   0 2.15892 1.49073   2
   2   4   0 1.22687 0.75214  12
   2   4   0 1.99495 0.72194   1
   3   4   0 15.3073 1.39099   3
   3   4   0 15.8943 2.81952   2
   3   4   0 17.7112 2.48545  11
   3   4   0 20.1117 2.75072   5
   4   4   0 147.826 11.4709  11
   4   4   0 135.491 11.9592   5
   4   4   0 160.906 14.3937  26
   5   4   0 304.082 25.3391  11
   5   4   0 395.145 24.8448  16
   5   4   0 393.272 31.9098  26
   5   4   0 292.217 26.5452   5
   6   4   0 8.50127 3.08952  26
   6   4   0 8.22535 2.15413  16
   7   4   0 4.77866 1.46217  17
   7   4   0 5.20043 1.59357  16
   7   4   0 5.11276 2.22873  26
   7   4   0 5.76709 1.96185  21
   9  -5   0 11.0651 2.24376  20
   9  -5   0 12.8503 2.31676  21
   8  -5   0 -0.0299 1.83662  19
   8  -5   0 -0.6606 2.04653  20
   8  -5   0 1.60412 2.23714  21
   7  -5   0 9.87014 3.13779  20
   7  -5   0 13.3956 2.75507  19
   7  -5   0 12.2294 3.16790  21
   6  -5   0 59.5125 7.95327  22
   6  -5   0 67.7979 8.28728  20
   6  -5   0 78.2206 7.26120  18
   6  -5   0 74.2789 8.29475  21
   6  -5   0 66.0766 4.63071  17
   6  -5   0 67.2543 7.09858  19
   5  -5   0 72.1209 7.09584  13
   5  -5   0 64.7992 7.83786  22
   5  -5   0 70.2866 6.41174  19
   5  -5   0 63.5929 8.50741  20
   5  -5   0 61.7752 4.64204  17
   5  -5   0 82.5804 7.05269   7
   5  -5   0 79.9887 7.02528  18
   5  -5   0 70.5703 7.94877  21
   4  -5   0 1063.64 78.2593  10
   4  -5   0 989.120 73.3799   7
   4  -5   0 922.972 75.4062  13
   4  -5   0 1077.33 75.1006   4
   3  -5   0 55.0808 4.72905  10
   3  -5   0 53.6480 4.53394   4
   3  -5   0 51.8927 5.56226   7
   3  -5   0 51.6084 5.65748  13
   2  -5   0 6.58946 0.50509   3
   2  -5   0 8.19363 3.12086  14
   2  -5   0 9.12327 2.16892  13
   2  -5   0 8.96993 1.16036   4
   2  -5   0 8.40157 2.11961   7
   2  -5   0 7.53151 0.90914   2
   2  -5   0 6.14232 0.53980   1
   2  -5   0 7.03069 0.49394   3
   2  -5   0 6.43681 0.94525   2
   2  -5   0 6.26893 0.53187   1
   2  -5   0 8.68679 2.90967   8
   2  -5   0 8.84478 1.19561  10
  -2   5   0 5.60559 0.51830   1
  -2   5   0 6.69186 0.54568   1
   1  -5   0 2.93629 1.69231   2
   1  -5   0 4.21835 3.52804  14
   1  -5   0 3.39635 0.91126   2
   1  -5   0 4.13421 0.83712  10
   1  -5   0 3.65096 0.43986   3
   1  -5   0 2.14678 2.15965  13
   1  -5   0 3.43730 0.59505   1
   1  -5   0 3.42558 0.77527   4
   1  -5   0 1.56233 2.17500   7
   1  -5   0 2.61987 3.10901   8
  -1   5   0 3.40963 0.51445   1
  -1   5   0 3.02370 0.52931   1
   0  -5   0 7.71152 2.32031   2
   0  -5   0 7.22618 0.90457   1
   0  -5   0 6.67924 0.65771   3
   0   5   0 6.02941 0.77042   1
   0   5   0 6.67367 0.85932  12
   0   5   0 6.46839 0.82727   6
  -1  -5   0 17.4362 3.49648   2
  -1  -5   0 16.0977 1.37048   3
  -1  -5   0 12.6948 1.59032   1
   1   5   0 16.5283 1.34161   6
   1   5   0 17.7476 1.36222  12
  -2  -5   0 10.5118 1.21174   3
  -2  -5   0 13.1509 3.08835   2
   2   5   0 12.1888 1.34060   6
   2   5   0 11.8074 1.32901  12
  -3  -5   0 68.8825 9.13337   8
  -3  -5   0 67.7729 9.26339  26
  -3  -5   0 62.0014 9.97653  14
   3   5   0 80.5897 6.46760   5
   3   5   0 79.2073 6.14549  11
   3   5   0 69.8941 8.03028  26
  -4  -5   0 4.89901 3.35316  26
   4   5   0 0.05823 1.68259  11
   4   5   0 4.89949 2.27913  26
   4   5   0 2.36461 1.96578   5
   5   5   0 126.597 12.9341  26
   6   5   0 7.93574 2.11195  16
   6   5   0 5.81093 3.03214  26
   7   5   0 1.10843 0.94903  16
   7   5   0 0.58390 1.33111  26
   7   5   0 0.55334 1.35833  21
   9  -6   0 2.58097 1.72113  21
   9  -6   0 0.08418 2.10155  20
   8  -6   0 24.2119 4.14017  20
   8  -6   0 28.6595 4.09181  21
   8  -6   0 19.6881 3.55229  19
   7  -6   0 179.607 16.1642  19
   7  -6   0 199.414 18.7223  21
   7  -6   0 187.031 20.4709  20
   6  -6   0 6.36934 2.86375  20
   6  -6   0 6.20333 3.81794  21
   6  -6   0 7.30362 2.14997  18
   6  -6   0 6.61602 2.88311  19
   6  -6   0 1.33445 3.33204  22
   5  -6   0 4.49289 3.39428  21
   5  -6   0 -0.8647 2.61655  23
   5  -6   0 -0.2617 2.15992  18
   5  -6   0 1.65997 1.83049   7
   5  -6   0 2.09094 3.21384  20
   5  -6   0 0.36578 3.22153  22
   5  -6   0 0.27546 2.32682  19
   5  -6   0 0.64337 1.64891  13
   4  -6   0 76.6474 7.55918   7
   4  -6   0 77.5670 7.72060  13
   3  -6   0 0.76145 2.22643   8
   3  -6   0 -1.1031 2.16791   7
   3  -6   0 -1.2330 2.30060  14
   3  -6   0 -0.0548 2.31184  13
   2  -6   0 73.7997 6.73608   7
   2  -6   0 68.7357 4.57549   3
   2  -6   0 61.2412 7.39599   8
   2  -6   0 66.7330 5.73435   2
   2  -6   0 61.7353 5.63062   2
   2  -6   0 70.4630 4.59009   3
   2  -6   0 69.4914 8.32879  14
   2  -6   0 72.1893 6.83718  13
   1  -6   0 24.7075 5.69962  14
   1  -6   0 28.0688 3.98239  13
   1  -6   0 28.3593 3.42854   2
   1  -6   0 24.5314 5.02194   8
   1  -6   0 20.5945 1.62084   3
   1  -6   0 23.4590 3.77470   7
   0  -6   0 61.5118 4.33346   3
   0  -6   0 63.3137 6.48797   2
   0  -6   0 59.1863 7.81797   8
   0  -6   0 59.0933 8.69141  14
   0   6   0 61.7912 3.50000   6
   0   6   0 62.5136 3.50819  12
  -1  -6   0 678.007 54.9838   2
  -1  -6   0 669.890 58.7383   8
  -1  -6   0 683.740 45.5013   3
  -1  -6   0 683.496 64.7905  14
   1   6   0 658.061 34.5978   6
   1   6   0 697.839 34.4700  12
  -2  -6   0 70.3332 8.76524  26
  -2  -6   0 87.0864 10.1594   8
  -2  -6   0 74.5131 8.41307   2
  -2  -6   0 83.0033 5.76370   3
  -2  -6   0 81.1510 11.1184  14
   2   6   0 78.0100 4.65570   6
   2   6   0 81.9898 4.67667  12
  -3  -6   0 24.6167 7.35119  14
  -3  -6   0 30.5435 5.32440  26
  -3  -6   0 30.0790 7.07446   8
   3   6   0 35.4848 4.62728  26
  -4  -6   0 34.9533 6.72259  26
   4   6   0 28.5944 4.99865  26
  -5  -6   0 37.1833 6.16850  26
   5   6   0 34.2657 5.17384  26
   6   6   0 17.1974 3.72509  26
   6   6   0 30.1060 3.32376  16
   9  -7   0 6.05663 1.77102  20
   8  -7   0 36.8735 4.81893  21
   8  -7   0 32.7867 4.88934  20
   7  -7   0 1.69771 3.43561  20
   7  -7   0 0.62561 2.47647  21
   7  -7   0 0.44125 1.83535  19
   7  -7   0 -0.1189 3.07103  22
   6  -7   0 73.7927 7.83612  22
   6  -7   0 66.3008 7.07563  19
   6  -7   0 70.1685 7.04052  18
   6  -7   0 58.1498 8.98139  20
   6  -7   0 69.9976 8.58979  21
   5  -7   0 13.0566 3.27522   7
   5  -7   0 14.2904 4.19920  20
   5  -7   0 12.1497 4.08648  22
   5  -7   0 15.8773 3.21423  23
   5  -7   0 15.2182 3.15603  19
   5  -7   0 13.7923 4.12293  21
   5  -7   0 13.5623 3.30927  13
   5  -7   0 19.6569 2.92179  18
   4  -7   0 40.8483 5.64667  13
   4  -7   0 33.5645 5.70767  20
   4  -7   0 44.2263 5.65423  23
   4  -7   0 43.0107 5.72747  22
   4  -7   0 38.3420 5.47119   7
   4  -7   0 37.1074 5.57029  21
   4  -7   0 33.8307 4.33145  19
   4  -7   0 33.5734 4.23678  24
   3  -7   0 134.092 10.8835   7
   3  -7   0 114.725 13.2403  14
   3  -7   0 132.064 11.1306  13
   3  -7   0 112.273 11.9590   8
   2  -7   0 44.6900 3.00541   3
   2  -7   0 43.1665 6.86713  14
   2  -7   0 47.1269 5.07122   7
   2  -7   0 42.3518 6.08948   8
   2  -7   0 40.1213 3.94506   2
   2  -7   0 45.3189 5.09588  13
   1  -7   0 0.21125 0.24538   3
   1  -7   0 1.38884 2.97097  14
   1  -7   0 -1.2453 2.33996   8
   1  -7   0 0.81184 1.54065   2
   0  -7   0 140.408 15.9418  14
   0  -7   0 137.977 12.5811   2
   0  -7   0 137.147 14.3825   8
  -1  -7   0 19.8546 4.26019   2
  -1  -7   0 15.8791 1.53896   3
  -1  -7   0 18.1677 4.27548  26
  -1  -7   0 16.7016 6.34864  14
  -1  -7   0 15.5257 3.39733  24
  -1  -7   0 20.2210 3.52295  16
  -1  -7   0 18.5148 2.41557  17
  -1  -7   0 15.5112 5.78480   8
  -2  -7   0 30.2685 7.46481   8
  -2  -7   0 36.0514 8.63812  14
  -2  -7   0 25.2614 4.28895  24
  -2  -7   0 34.6287 4.76249  16
  -2  -7   0 37.5535 2.84635   3
  -2  -7   0 42.2282 6.17698  26
  -2  -7   0 37.6476 6.22201   2
  -3  -7   0 12.5983 6.05710   8
  -3  -7   0 25.9925 4.92031  26
  -3  -7   0 8.11256 6.16109  14
   3   7   0 24.1556 3.93951  26
  -4  -7   0 40.0076 7.37824  26
   4   7   0 39.2600 5.91428  26
  -5  -7   0 -1.7964 2.94809  26
   5   7   0 -1.0280 2.04510  26
   6   7   0 24.8987 2.96913  21
   6   7   0 23.0174 2.52315  16
   6   7   0 22.8621 3.44762  26
   8  -8   0 5.07376 2.33756  21
   8  -8   0 4.43873 2.19409  20
   7  -8   0 16.0989 4.53037  20
   7  -8   0 34.1006 4.62070  21
   7  -8   0 31.2419 4.28373  22
   7  -8   0 21.6928 3.25389  19
   6  -8   0 60.3063 7.44034  22
   6  -8   0 53.6521 6.92425  23
   6  -8   0 46.5790 7.15625  21
   6  -8   0 41.6823 4.93997  19
   6  -8   0 39.3900 6.48022  20
   5  -8   0 11.3227 4.06425  20
   5  -8   0 12.0606 3.26395  13
   5  -8   0 15.4854 4.48462  21
   5  -8   0 14.0408 3.36088   7
   5  -8   0 13.8030 4.06286  23
   5  -8   0 10.6088 4.46272  22
   5  -8   0 11.9240 2.92825  24
   5  -8   0 12.4393 2.96568  19
   4  -8   0 5.32210 2.96132  22
   4  -8   0 2.13781 2.50548  24
   4  -8   0 1.39178 2.80804  13
   4  -8   0 0.12742 2.73097   7
   4  -8   0 4.26249 3.73419  23
   4  -8   0 1.77849 2.33844  20
   4  -8   0 5.67379 2.75285  21
   3  -8   0 68.0577 7.61235  22
   3  -8   0 69.1067 8.54471  23
   3  -8   0 72.3337 8.21787   8
   3  -8   0 64.4956 8.80418  14
   3  -8   0 59.3564 7.83600  21
   3  -8   0 42.5386 7.92195  20
   3  -8   0 75.4555 7.44092   7
   3  -8   0 68.5775 6.81692  24
   3  -8   0 76.6163 7.60601  13
   3  -8   0 64.2487 4.64635  17
   2  -8   0 2.36043 2.72714  13
   2  -8   0 1.50676 0.96872   2
   2  -8   0 3.30752 3.95498  22
   2  -8   0 3.25685 3.53320  23
   2  -8   0 2.04401 1.07677  16
   2  -8   0 3.21676 3.95474  14
   2  -8   0 4.34796 1.40565  17
   2  -8   0 2.27856 0.29997   3
   2  -8   0 3.64113 3.72423   8
   2  -8   0 0.35391 2.70679  24
   2  -8   0 2.50939 1.88392  25
   2  -8   0 2.20951 2.76553   7
   1  -8   0 13.3073 3.77058  23
   1  -8   0 14.5748 1.96895  17
   1  -8   0 9.67512 0.93877   3
   1  -8   0 16.0457 2.72109  24
   1  -8   0 9.74584 2.72319  26
   1  -8   0 6.71417 2.41844  25
   1  -8   0 20.5383 5.95861   8
   1  -8   0 15.0664 6.10270  14
   1  -8   0 12.0537 2.10100  16
   1  -8   0 8.33932 2.21030   2
   1  -8   0 11.6583 4.31726  22
   0  -8   0 4.18097 1.90988  17
   0  -8   0 3.00376 3.04384  26
   0  -8   0 3.25166 0.61071   3
   0  -8   0 4.13830 2.61354   2
   0  -8   0 3.87195 2.34222  16
   0  -8   0 4.50298 3.12232  24
   0  -8   0 5.01785 4.76380   8
   0  -8   0 2.67943 5.04035  14
  -1  -8   0 108.323 7.56157   3
  -1  -8   0 98.8513 8.27229  17
  -1  -8   0 108.846 11.1387  26
  -1  -8   0 98.8112 10.1808  24
  -1  -8   0 117.570 10.8674   2
  -1  -8   0 99.9070 8.57965  16
  -1  -8   0 117.933 14.0132  14
  -1  -8   0 133.112 12.9613   8
  -2  -8   0 175.366 15.6658  24
  -2  -8   0 193.920 18.8704   8
  -2  -8   0 172.219 16.7881   2
  -2  -8   0 170.057 13.6621  16
  -2  -8   0 191.679 20.8694  14
  -2  -8   0 188.615 17.6798  26
  -3  -8   0 137.018 15.0887  26
  -4  -8   0 4.92350 3.46026  26
   4   8   0 3.07970 2.45431  26
  -5  -8   0 29.0130 4.44493  26
   5   8   0 29.7410 4.27665  26
   8  -9   0 8.49210 3.00537  21
   8  -9   0 11.5710 2.60027  20
   7  -9   0 62.0151 6.88161  21
   7  -9   0 49.2066 7.24767  20
   7  -9   0 65.7593 6.87606  22
   6  -9   0 24.1806 5.12217  22
   6  -9   0 14.6753 3.81063  20
   6  -9   0 21.3662 3.79772  23
   6  -9   0 12.5044 4.35455  21
   5  -9   0 10.9644 4.12043  23
   5  -9   0 6.58360 2.85977  24
   5  -9   0 8.64894 4.07643  21
   5  -9   0 7.35821 3.07661  20
   5  -9   0 8.26339 4.48885  22
   4  -9   0 118.894 12.1861  22
   4  -9   0 99.2344 11.5090  21
   4  -9   0 111.582 10.0389  24
   4  -9   0 119.716 11.5423  23
   4  -9   0 88.8867 10.0545   7
   4  -9   0 79.1682 10.1095  13
   3  -9   0 52.6593 7.03606  21
   3  -9   0 48.5585 3.75168  17
   3  -9   0 52.2556 6.87332  23
   3  -9   0 53.0096 6.14423  24
   3  -9   0 58.2361 7.43335  22
   3  -9   0 42.2519 6.47171  13
   3  -9   0 40.2062 6.26891   7
   2  -9   0 0.25725 0.61396   2
   2  -9   0 2.55022 0.75014  16
   2  -9   0 2.55915 1.88876  25
   2  -9   0 1.73998 0.23731   3
   2  -9   0 2.61800 3.66431  23
   2  -9   0 3.73302 3.04962  24
   2  -9   0 4.74005 1.56763  17
   2  -9   0 3.47076 4.47579  22
   2  -9   0 4.78167 3.57568  14
   2  -9   0 3.76729 3.13465   8
   1  -9   0 100.193 8.69304  25
   1  -9   0 96.5089 7.11243   3
   1  -9   0 112.559 11.6988  22
   1  -9   0 92.8032 10.1723  26
   1  -9   0 115.335 12.0654   8
   1  -9   0 122.996 13.5896  14
   1  -9   0 104.748 11.5828  23
   1  -9   0 105.592 9.56325  24
   1  -9   0 107.585 7.74895  17
   1  -9   0 109.815 7.94989  16
   0  -9   0 114.400 11.4178   2
   0  -9   0 138.096 14.3248   8
   0  -9   0 132.731 12.4157  26
   0  -9   0 105.510 10.0321  25
   0  -9   0 107.749 8.33666   3
   0  -9   0 133.680 15.8110  14
   0  -9   0 129.581 9.59839  16
   0  -9   0 136.473 11.3444  24
   0  -9   0 124.095 9.09953  17
  -1  -9   0 226.763 20.6090  26
  -1  -9   0 216.134 15.9920  16
  -1  -9   0 185.786 23.7755  14
  -1  -9   0 191.035 21.5278   8
  -1  -9   0 220.136 18.3733  24
  -1  -9   0 212.135 15.1186  17
  -2  -9   0 82.8654 9.29230  26
  -2  -9   0 74.3527 6.95661  16
  -2  -9   0 75.3577 7.79508  24
  -3  -9   0 13.0277 3.78544  16
  -3  -9   0 11.9999 4.98872  26
  -4  -9   0 -0.0202 2.01877  16
  -4  -9   0 1.83125 2.91194  26
   4   9   0 0.79276 2.17118  26
   8 -10   0 7.61065 1.87814  21
   7 -10   0 0.11743 2.21503  22
   7 -10   0 0.97949 2.09031  21
   6 -10   0 26.1730 4.83430  23
   6 -10   0 17.8841 3.97300  22
   6 -10   0 10.9517 4.04589  21
   5 -10   0 8.73747 4.79093  22
   5 -10   0 14.1465 3.70903  23
   5 -10   0 11.0632 3.18410  21
   5 -10   0 6.93148 2.97191  24
   4 -10   0 33.7570 4.52344  24
   4 -10   0 30.0790 6.25268  22
   4 -10   0 39.3130 5.57869  23
   4 -10   0 33.5508 5.13951  21
   3 -10   0 28.4411 6.13124  22
   3 -10   0 25.1677 5.46972  23
   3 -10   0 22.1354 2.16019  17
   3 -10   0 30.1785 4.34976  24
   2 -10   0 314.514 21.5093  17
   2 -10   0 343.511 26.3379  24
   2 -10   0 305.679 29.2138   8
   2 -10   0 302.642 23.5406  25
   2 -10   0 319.108 30.2993  23
   2 -10   0 300.070 32.1562  14
   2 -10   0 290.236 29.1943  22
   1 -10   0 18.2455 7.04849   8
   1 -10   0 14.3474 7.26049  14
   1 -10   0 45.4406 5.47270  24
   1 -10   0 39.0459 5.02818  26
   1 -10   0 48.7769 4.06103  17
   1 -10   0 46.3743 3.87203  16
   1 -10   0 44.1987 4.19135  25
   1 -10   0 48.4146 7.19633  23
   0 -10   0 54.1645 6.20457  25
   0 -10   0 70.0505 5.57556  17
   0 -10   0 66.2365 7.32311  24
   0 -10   0 63.0321 5.88717  16
   0 -10   0 63.4794 7.69946  26
  -1 -10   0 131.319 9.28636  17
  -1 -10   0 131.776 10.1130  16
  -1 -10   0 102.478 10.3603  25
  -1 -10   0 135.322 11.5283  24
  -1 -10   0 123.138 12.5286  26
  -2 -10   0 4.32170 3.01263  16
  -2 -10   0 2.95884 3.91600  26
  -3 -10   0 7.22784 2.13247  16
  -3 -10   0 6.26839 2.89426  26
  -4 -10   0 -1.5765 2.33016  26
  -4 -10   0 0.86989 1.20598  25
   7 -11   0 8.47818 2.53056  22
   6 -11   0 3.73443 2.70560  23
   6 -11   0 4.60076 2.94029  22
   5 -11   0 0.72326 2.89122  23
   5 -11   0 1.61378 2.63019  24
   5 -11   0 0.93369 3.28781  22
   4 -11   0 12.6502 4.18224  22
   4 -11   0 7.60635 4.49862  23
   4 -11   0 6.03996 3.10633  24
   3 -11   0 49.2840 5.75785  24
   3 -11   0 39.0048 3.00795  17
   3 -11   0 41.0019 6.44775  23
   3 -11   0 30.4708 6.47523  22
   2 -11   0 5.59056 4.25079  23
   2 -11   0 8.41329 1.51369  17
   2 -11   0 13.9848 3.56431  24
   1 -11   0 11.2638 2.13235  17
   1 -11   0 15.0205 1.70418  16
   1 -11   0 20.8025 3.25135  24
   1 -11   0 17.0227 2.21897  25
   0 -11   0 3.54192 2.99862  24
   0 -11   0 2.45045 2.13662  25
   0 -11   0 8.23701 2.11320  17
   0 -11   0 6.42156 3.00216  26
   0 -11   0 8.55755 1.97561  16
  -1 -11   0 21.9344 3.36395  24
  -1 -11   0 20.9766 2.70302  17
  -1 -11   0 21.6494 2.88960  16
  -1 -11   0 19.1192 3.04141  25
  -1 -11   0 17.3161 3.59424  26
  -2 -11   0 13.5424 2.18386  25
  -2 -11   0 11.8701 2.71050  26
  -2 -11   0 13.6846 2.07152  16
  -2 -11   0 13.3286 1.93082  17
  -3 -11   0 55.0080 4.56065  16
  -3 -11   0 46.1232 5.88371  26
  -3 -11   0 67.1585 4.80882  25
   6 -12   0 189.387 18.5263  22
   6 -12   0 210.941 19.6010  23
   5 -12   0 43.6113 4.40760  24
   5 -12   0 33.4580 5.22491  22
   5 -12   0 40.1888 5.75519  23
   4 -12   0 7.71549 4.48396  23
   4 -12   0 17.4193 3.90413  22
   4 -12   0 11.6825 2.48015  24
   3 -12   0 7.09438 3.03893  24
   3 -12   0 6.04999 4.35891  23
   2 -12   0 0.75875 2.91965  24
   2 -12   0 2.76223 3.55449  23
   2 -12   0 2.33741 0.96017  17
   1 -12   0 21.0339 2.31801  17
   1 -12   0 20.0432 3.18725  24
   0 -12   0 3.95425 1.75841  25
   0 -12   0 5.46133 1.29919  17
   0 -12   0 5.02114 2.03980  24
  -1 -12   0 164.814 16.9103  24
  -1 -12   0 215.472 14.0983  16
  -1 -12   0 207.924 14.0274  17
  -1 -12   0 210.767 15.3202  25
  -2 -12   0 10.6209 1.29918  16
   5 -13   0 32.8587 3.89771  24
   5 -13   0 32.5021 4.77160  23
   4 -13   0 35.2936 3.86817  24
   4 -13   0 32.8870 5.20318  23
   3 -13   0 109.190 9.70225  24
   3 -13   0 101.372 11.4560  23
   2 -13   0 13.8960 3.08619  24
   1 -13   0 87.1692 7.62974  24
   1 -13   0 82.5157 5.95233  17
   0 -13   0 18.3901 2.55939  24
   0 -13   0 18.3389 1.92234  17
   3 -14   0 3.17476 1.49859  24
   0 -13   1 64.7781 6.27073  24
   1 -13   1 130.880 11.3354  24
   2 -13   1 9.93677 3.26870  23
   2 -13   1 18.3328 2.61390  24
   3 -13   1 8.56671 3.64297  23
   3 -13   1 14.9289 2.41366  24
   4 -13   1 11.5990 3.03213  23
   4 -13   1 10.6354 2.01619  24
   5 -13   1 11.1037 3.61799  23
   5 -13   1 21.9396 2.37202  24
  -2 -12   1 2.23007 1.02153  16
  -1 -12   1 9.15473 2.17643  26
  -1 -12   1 12.1948 2.71944  24
  -1 -12   1 17.6162 1.94280  17
  -1 -12   1 15.0314 1.71217  16
   0 -12   1 101.417 8.52898  24
   0 -12   1 86.2792 6.76859  17
   1 -12   1 19.2928 3.87075  24
   1 -12   1 28.5565 2.45972  17
   2 -12   1 53.3054 7.95365  23
   2 -12   1 52.6427 5.77887  24
   2 -12   1 54.6256 4.08234  17
   3 -12   1 0.49934 1.90338  24
   3 -12   1 0.85379 3.85230  23
   4 -12   1 161.346 16.9082  22
   4 -12   1 162.871 14.6402  24
   4 -12   1 185.900 17.5360  23
   5 -12   1 5.81930 3.20946  22
   5 -12   1 6.03171 1.79941  24
   5 -12   1 9.69126 3.25912  23
   6 -12   1 52.9325 6.52137  22
   6 -12   1 66.2785 7.40742  23
  -3 -11   1 13.6641 2.03054  25
  -3 -11   1 7.94536 1.66484  16
  -3 -11   1 6.87404 2.65446  26
  -2 -11   1 7.68782 2.65545  26
  -2 -11   1 9.73564 1.85724  25
  -2 -11   1 9.76643 1.84176  17
  -2 -11   1 10.9541 2.11741  16
  -1 -11   1 1.19118 2.00228  24
  -1 -11   1 -0.2111 2.94457  26
  -1 -11   1 -0.3585 2.04921  25
  -1 -11   1 1.76848 1.42834  17
  -1 -11   1 0.56533 2.31226  16
   0 -11   1 -0.0988 3.10248  24
   0 -11   1 0.87321 1.90140  17
   0 -11   1 -0.2181 1.75661  25
   0 -11   1 -0.6174 2.56942  26
   0 -11   1 -0.4437 1.85512  16
   1 -11   1 -1.9620 3.48522  23
   1 -11   1 0.36886 1.65607  17
   1 -11   1 -1.3344 3.23050  24
   2 -11   1 26.1174 4.55710  24
   2 -11   1 35.8782 3.09173  17
   2 -11   1 36.0489 5.51768  22
   2 -11   1 38.0477 6.00487  23
   3 -11   1 11.8409 1.35967  17
   3 -11   1 8.76977 5.21659  22
   3 -11   1 5.72817 3.18561  24
   3 -11   1 17.7330 3.94927  23
   4 -11   1 115.679 12.7878  22
   4 -11   1 104.320 10.0406  24
   4 -11   1 119.285 12.7832  23
   5 -11   1 13.6277 4.88202  22
   5 -11   1 13.3976 4.25133  23
   5 -11   1 10.5847 2.75343  24
   6 -11   1 0.56149 2.46424  23
   6 -11   1 -0.6903 2.60030  22
   7 -11   1 10.6726 2.55187  22
  -4 -10   1 35.7894 4.81357  26
  -4 -10   1 38.7271 3.52312  25
  -3 -10   1 0.86246 3.79420  26
  -3 -10   1 -0.5457 2.86222  16
  -2 -10   1 24.1939 4.01421  16
  -2 -10   1 29.1465 5.49187  26
  -2 -10   1 22.3870 3.73889  24
  -1 -10   1 8.52737 2.01555  17
  -1 -10   1 5.32307 2.63776  25
  -1 -10   1 9.40266 3.24898  16
  -1 -10   1 6.41570 2.56412  24
  -1 -10   1 7.21397 3.01234  26
   0 -10   1 169.982 12.0521  16
   0 -10   1 164.714 15.4658  26
   0 -10   1 140.870 12.5523  25
   0 -10   1 173.358 14.4170  24
   0 -10   1 153.494 11.6246  17
   1 -10   1 30.7804 3.25895  17
   1 -10   1 26.8303 4.03207  26
   1 -10   1 25.4147 2.98203  16
   1 -10   1 10.5315 5.92037   8
   1 -10   1 11.8589 6.81889  14
   1 -10   1 29.0440 4.50775  24
   1 -10   1 29.0208 5.18212  23
   2 -10   1 41.1757 3.83613  17
   2 -10   1 49.0789 6.78782  23
   2 -10   1 46.0359 5.39917  24
   2 -10   1 55.6968 7.42770  22
   3 -10   1 71.0563 10.4102  22
   3 -10   1 88.5740 9.51450  23
   3 -10   1 79.3678 5.74463  17
   3 -10   1 76.9864 8.25940  24
   4 -10   1 8.89232 3.17452  24
   4 -10   1 14.4131 3.71357  23
   4 -10   1 9.25974 3.25630  21
   4 -10   1 11.5291 5.20181  22
   5 -10   1 13.1684 3.54323  21
   5 -10   1 10.5105 3.43122  23
   5 -10   1 6.87230 2.74904  24
   5 -10   1 12.5644 3.91914  22
   6 -10   1 2.08159 2.64904  21
   6 -10   1 -0.4259 2.45353  23
   6 -10   1 1.57472 3.02151  22
   7 -10   1 0.06282 2.31438  22
   7 -10   1 1.13321 3.06179  21
  -5  -9   1 0.61247 1.93480  26
   4   9  -1 41.1597 6.12073  26
  -4  -9   1 40.7394 6.35815  26
  -3  -9   1 66.4454 9.51135  26
  -3  -9   1 64.4485 7.31521  16
  -2  -9   1 167.159 13.1853  16
  -2  -9   1 176.486 17.0445  26
  -2  -9   1 173.928 15.2232  24
  -1  -9   1 19.4214 3.09457  16
  -1  -9   1 22.3962 4.22083  24
  -1  -9   1 19.7275 4.05073  26
  -1  -9   1 15.0461 6.60412   8
  -1  -9   1 14.9224 7.38034  14
  -1  -9   1 18.5099 3.09056  17
   0  -9   1 4.55607 2.68610   2
   0  -9   1 6.58434 3.54237  24
   0  -9   1 6.92515 3.29172  26
   0  -9   1 0.40233 4.56579   8
   0  -9   1 6.80091 2.51764  16
   0  -9   1 3.84291 0.67117   3
   0  -9   1 3.20361 2.21722  25
   0  -9   1 8.55708 1.76794  17
   0  -9   1 -0.6996 4.95883  14
   1  -9   1 0.74492 2.20848  26
   1  -9   1 7.11246 4.33979  14
   1  -9   1 4.24281 3.43380   8
   1  -9   1 3.97221 3.16532  24
   1  -9   1 0.92354 0.32910   3
   1  -9   1 3.54550 3.54093  23
   1  -9   1 1.06952 1.61839   2
   1  -9   1 1.59506 1.64750  17
   1  -9   1 1.30772 1.70102  16
   1  -9   1 1.29800 4.07093  22
   2  -9   1 0.72111 0.82715  16
   2  -9   1 0.80062 1.50489  17
   2  -9   1 0.14291 2.97055  24
   2  -9   1 0.33790 0.16918   3
   2  -9   1 -2.0945 3.61275  14
   2  -9   1 0.38233 3.58714  23
   2  -9   1 0.23343 0.72759   2
   2  -9   1 -2.4003 3.31530   8
   2  -9   1 -2.2990 4.09108  22
   3  -9   1 28.0298 4.73873  13
   3  -9   1 22.5604 4.39789   7
   3  -9   1 20.7307 3.89104  24
   3  -9   1 22.2705 4.68688  21
   3  -9   1 28.3559 5.21215  23
   3  -9   1 29.2062 5.80548  22
   3  -9   1 24.2696 2.29904  17
   4  -9   1 24.8535 5.25770  23
   4  -9   1 27.0369 4.58244  21
   4  -9   1 17.9797 4.75141   7
   4  -9   1 30.6602 5.67254  22
   4  -9   1 19.3757 4.74452  13
   4  -9   1 27.0377 4.04884  24
   5  -9   1 120.993 13.3369  21
   5  -9   1 156.537 14.2965  23
   5  -9   1 106.285 14.8315  20
   5  -9   1 154.194 14.0792  22
   6  -9   1 45.2564 5.49148  22
   6  -9   1 20.7363 4.87302  23
   6  -9   1 39.4829 5.50904  21
   6  -9   1 33.9792 5.46510  20
   7  -9   1 1.34364 3.10238  20
   7  -9   1 -0.2020 2.47747  22
   7  -9   1 2.18143 3.47879  21
   8  -9   1 11.2994 2.93946  21
   5   8  -1 15.4233 3.21946  26
  -5  -8   1 22.9981 4.20179  26
   4   8  -1 37.3372 5.77549  26
  -4  -8   1 44.8729 7.25732  26
  -3  -8   1 194.015 19.6275  26
  -2  -8   1 0.30873 3.99198  14
  -2  -8   1 -5.3548 3.22895   2
  -2  -8   1 0.72572 0.72361   3
  -2  -8   1 -1.6513 3.19798  16
  -2  -8   1 -2.6284 3.97680  26
  -2  -8   1 0.28857 3.71246   8
  -2  -8   1 -0.9996 2.93194  24
  -1  -8   1 198.285 17.0603  26
  -1  -8   1 172.607 20.0771  14
  -1  -8   1 161.991 15.1146  24
  -1  -8   1 167.291 13.2138  16
  -1  -8   1 173.526 18.1371   8
  -1  -8   1 171.817 15.9973   2
  -1  -8   1 169.845 11.8174   3
  -1  -8   1 165.801 12.4926  17
   0  -8   1 0.18058 4.73424  14
   0  -8   1 0.96675 2.53147   2
   0  -8   1 -0.1809 2.84606  26
   0  -8   1 -4.4823 3.91290   8
   0  -8   1 0.49916 0.39709   3
   0  -8   1 0.91400 2.35554  16
   0  -8   1 0.60563 2.98713  24
   0  -8   1 1.90780 3.48330  22
   0  -8   1 0.05521 1.78256  17
   1  -8   1 74.2074 9.05096  23
   1  -8   1 69.9902 7.25779  24
   1  -8   1 72.8453 8.15379  26
   1  -8   1 84.8738 7.61388   2
   1  -8   1 85.2743 9.74292   8
   1  -8   1 71.9909 5.74510  17
   1  -8   1 74.2083 6.31606  16
   1  -8   1 80.1084 10.7063  14
   1  -8   1 75.7579 5.21939   3
   1  -8   1 70.8490 9.19506  22
   2  -8   1 227.901 14.9991   3
   2  -8   1 216.706 18.1385   2
   2  -8   1 216.917 21.5286  21
   2  -8   1 226.314 23.4314  14
   2  -8   1 226.116 21.2046   8
   2  -8   1 226.087 21.9439  23
   2  -8   1 269.854 18.5748   7
   2  -8   1 218.860 19.0216  24
   2  -8   1 263.814 18.9694  13
   2  -8   1 230.911 21.2179  22
   2  -8   1 203.175 15.6038  16
   2  -8   1 216.088 15.4717  17
   3  -8   1 27.5569 3.92967  24
   3  -8   1 27.8614 4.95608  13
   3  -8   1 22.7596 4.75832  21
   3  -8   1 35.6999 4.75650  23
   3  -8   1 27.5879 4.81721   7
   3  -8   1 29.1535 5.25229  22
   3  -8   1 19.7820 4.56547  20
   3  -8   1 27.4134 2.31113  17
   4  -8   1 62.6640 8.35129  22
   4  -8   1 61.9986 7.36492  21
   4  -8   1 42.7037 8.18365  20
   4  -8   1 70.1297 7.11922  13
   4  -8   1 63.6031 6.58210  24
   4  -8   1 71.8408 7.01514   7
   4  -8   1 70.1662 8.35789  23
   5  -8   1 65.8322 8.21567  22
   5  -8   1 55.8080 6.78123   7
   5  -8   1 64.3836 7.93625  23
   5  -8   1 56.1793 7.00433  21
   5  -8   1 44.2279 7.89097  20
   5  -8   1 61.0917 7.11287  13
   5  -8   1 46.0868 5.95003  19
   6  -8   1 12.9094 3.40684  22
   6  -8   1 12.3060 3.50147  21
   6  -8   1 9.15315 2.98779  19
   6  -8   1 5.56789 3.83807  20
   7  -8   1 3.86157 3.75435  21
   7  -8   1 4.45822 2.48700  20
   7  -8   1 2.69558 3.41788  22
   8  -8   1 1.09272 2.07088  21
   8  -8   1 0.64946 2.55502  20
   6   7  -1 28.7907 2.87951  16
   6   7  -1 29.3617 3.98489  26
   5   7  -1 14.8913 3.21335  26
  -5  -7   1 13.8276 4.13893  26
   4   7  -1 45.8555 7.00741  26
  -4  -7   1 49.3995 7.82661  26
   3   7  -1 33.5122 4.68091  26
  -3  -7   1 34.6484 5.67250  26
  -3  -7   1 27.6567 8.64672  14
  -3  -7   1 24.5395 7.37790   8
  -2  -7   1 3.47747 0.82331   3
  -2  -7   1 0.47696 3.31153   2
  -2  -7   1 4.00348 4.28415  14
  -2  -7   1 6.54558 4.25015   8
  -2  -7   1 4.26156 2.99030  26
  -2  -7   1 3.49056 3.29449  16
   1   7  -1 39.7998 2.89326   6
   1   7  -1 38.7931 2.87836  12
  -1  -7   1 43.8569 8.17818   8
  -1  -7   1 53.2327 6.39553   2
  -1  -7   1 44.8647 6.83139  26
  -1  -7   1 46.1147 5.02042  16
  -1  -7   1 42.9105 9.01314  14
  -1  -7   1 49.5756 3.40379   3
   0   7  -1 328.600 17.4257  12
   0   7  -1 335.614 17.4864   6
   0  -7   1 335.559 22.7169   3
   0  -7   1 335.931 30.5441   8
   0  -7   1 352.394 28.1407   2
   0  -7   1 341.924 33.7461  14
   1  -7   1 205.419 17.0424   2
   1  -7   1 219.440 16.7799  13
   1  -7   1 196.869 13.6537   3
   1  -7   1 189.957 21.1438  14
   1  -7   1 215.375 16.3288   7
   1  -7   1 195.807 19.1921   8
   2  -7   1 305.322 22.7460  13
   2  -7   1 313.520 22.2024   7
   2  -7   1 288.705 19.0400   3
   2  -7   1 262.988 22.8551   2
   2  -7   1 278.309 25.6059   8
   2  -7   1 273.812 28.2288  14
   3  -7   1 25.4545 4.52863  13
   3  -7   1 24.3253 4.34704   7
   3  -7   1 27.1416 4.68427  21
   3  -7   1 32.7422 4.71447  23
   3  -7   1 25.1977 4.66905  22
   3  -7   1 21.7478 2.08838  17
   4  -7   1 18.8978 3.00036  24
   4  -7   1 21.3372 2.91624  19
   4  -7   1 22.7099 4.33096   7
   4  -7   1 16.6689 4.28131  20
   4  -7   1 16.5526 1.39979  17
   4  -7   1 18.8052 4.24802  21
   4  -7   1 23.0701 3.71297  23
   4  -7   1 16.7155 4.04481  13
   4  -7   1 26.5872 4.66614  22
   5  -7   1 12.6370 3.76449  23
   5  -7   1 14.5808 3.14574  19
   5  -7   1 10.0625 3.95999  20
   5  -7   1 10.5134 3.48989  13
   5  -7   1 12.1227 3.51937   7
   5  -7   1 17.1056 4.29228  21
   5  -7   1 18.6983 4.45183  22
   6  -7   1 17.6685 3.80369  20
   6  -7   1 21.6188 3.79739  22
   6  -7   1 10.8634 3.18088  19
   6  -7   1 13.1298 4.35766  21
   7  -7   1 61.1023 6.85802  21
   7  -7   1 61.3367 7.31305  22
   7  -7   1 51.2459 5.62417  19
   7  -7   1 50.5732 7.10869  20
   8  -7   1 0.90553 1.87740  20
   8  -7   1 0.37554 2.05652  21
   6   6  -1 4.93220 1.89997  16
   6   6  -1 4.94812 2.87696  26
   5   6  -1 11.5587 3.16919  26
  -5  -6   1 14.3413 4.49710  26
   4   6  -1 1.53888 2.02858  11
   4   6  -1 -2.1024 1.74284   5
   4   6  -1 1.53974 2.96869  26
  -4  -6   1 3.62978 4.56886  26
   3   6  -1 185.288 17.5325  26
  -3  -6   1 181.974 18.7892   8
  -3  -6   1 188.847 18.4453  26
  -3  -6   1 180.463 20.7364  14
   2   6  -1 10.8856 1.44750  12
   2   6  -1 11.2698 1.44720   6
  -2  -6   1 9.24024 3.72770   2
  -2  -6   1 11.0377 4.04546  26
  -2  -6   1 11.4014 1.26137   3
   1   6  -1 163.159 8.91493   6
   1   6  -1 168.639 8.90431  12
  -1  -6   1 162.995 15.0634  15
  -1  -6   1 168.980 14.9811   2
  -1  -6   1 172.192 14.2965   9
   0   6  -1 417.117 22.2528   6
   0   6  -1 401.628 22.1538  12
   0  -6   1 439.619 29.0884   3
   0  -6   1 487.195 35.4964   2
   1  -6   1 245.049 17.9871   7
   1  -6   1 216.684 21.0359   8
   1  -6   1 220.838 15.5564   3
   1  -6   1 251.775 18.5019  13
   1  -6   1 209.607 23.1429  14
   1  -6   1 252.285 19.1969   2
   2  -6   1 174.035 11.5837   3
   2  -6   1 158.749 15.8570   8
   2  -6   1 172.215 14.0634   2
   2  -6   1 179.801 11.5711   3
   2  -6   1 193.186 14.2993  13
   2  -6   1 190.260 13.9107   7
   2  -6   1 161.477 17.5576  14
   2  -6   1 157.995 13.9262   2
   3  -6   1 38.2188 4.52904   7
   3  -6   1 36.4740 4.55970  13
   4  -6   1 45.6435 6.69935  22
   4  -6   1 55.7416 6.05629  13
   4  -6   1 43.7091 6.47685  21
   4  -6   1 55.4034 5.92943   7
   4  -6   1 39.6683 6.74810  20
   5  -6   1 162.696 20.5019  20
   5  -6   1 192.301 16.0950  19
   5  -6   1 219.868 16.5195  13
   5  -6   1 170.307 18.6199  21
   5  -6   1 202.087 18.2782  22
   5  -6   1 201.323 16.6383  18
   5  -6   1 209.279 16.0017   7
   6  -6   1 30.8413 5.22968  22
   6  -6   1 29.1066 5.25214  20
   6  -6   1 40.2364 4.78496  19
   6  -6   1 33.7883 5.51987  21
   7  -6   1 12.0670 3.95065  20
   7  -6   1 17.8185 4.27644  21
   7  -6   1 16.1728 3.42867  19
   7  -6   1 11.4549 3.53769  22
   8  -6   1 43.8728 4.84553  21
   8  -6   1 27.7419 4.79128  20
   9  -6   1 0.57143 1.36730  20
   7   5  -1 6.10566 1.23593  16
   7   5  -1 5.53882 1.70059  26
   7   5  -1 6.72253 1.78421  21
   6   5  -1 43.0120 4.47556  16
   6   5  -1 47.9113 6.29194  26
   5   5  -1 0.73085 2.99329  26
   4   5  -1 250.589 22.0314  26
   4   5  -1 247.559 18.5174   5
   4   5  -1 235.792 17.5782  11
  -4  -5   1 206.320 22.7804  26
   3   5  -1 7.57506 1.16217  12
   3   5  -1 6.43374 2.53525  26
   3   5  -1 6.74137 1.11418   6
  -3  -5   1 5.64546 3.41057   9
  -3  -5   1 4.62575 3.97252  26
  -3  -5   1 6.97398 3.73578  15
   2   5  -1 11.8018 1.38189   6
   2   5  -1 12.0887 1.42087  12
  -2  -5   1 13.5410 4.03379  15
  -2  -5   1 10.5928 1.18179   3
  -2  -5   1 10.6906 3.37797   2
  -2  -5   1 11.5516 3.59260   9
   1   5  -1 104.990 5.56366   6
   1   5  -1 105.814 5.56448  12
  -1  -5   1 104.459 9.35022   9
  -1  -5   1 91.4561 7.36627   1
  -1  -5   1 103.169 6.99273   3
  -1  -5   1 98.9434 9.61581   2
  -1  -5   1 104.860 9.93089  15
   0   5  -1 118.406 8.77250   1
   0  -5   1 118.607 9.90279   7
   0  -5   1 125.641 10.6128   9
   0  -5   1 123.438 8.85444   1
   0  -5   1 128.081 10.9404   2
   0  -5   1 129.484 10.2282  13
   0  -5   1 133.627 11.2982  15
  -1   5  -1 59.2432 4.25331   1
   1  -5   1 66.1022 5.87533   7
   1  -5   1 55.0776 4.21120   1
   1  -5   1 61.6574 4.05800   3
   1  -5   1 63.5311 4.31815   1
   1  -5   1 60.1253 5.57455   2
   1  -5   1 59.3445 5.92698  13
   1  -5   1 57.5754 4.06161   3
   1  -5   1 55.0622 5.10781   2
  -2   5  -1 8.88042 0.77639   1
   2  -5   1 8.71758 0.76252   1
   2  -5   1 11.2543 1.22064  10
   2  -5   1 10.9976 2.82193  13
   2  -5   1 9.74167 0.72923   3
   2  -5   1 9.75193 0.70292   3
   2  -5   1 12.1094 3.35635  14
   2  -5   1 9.51865 1.26326   2
   2  -5   1 10.3994 1.16175   4
   2  -5   1 8.92980 0.80386   1
   2  -5   1 11.2502 3.01696   8
   2  -5   1 10.6391 1.44666   2
   2  -5   1 9.22016 2.73844   7
   3  -5   1 23.2292 3.85104   7
   3  -5   1 22.8054 3.88098  13
   4  -5   1 200.226 16.5644  13
   4  -5   1 207.992 16.1783   7
   5  -5   1 36.4495 4.02847  18
   5  -5   1 32.6735 4.76107  21
   5  -5   1 31.4619 4.73801  13
   5  -5   1 32.2031 4.03754  19
   5  -5   1 24.7045 2.17661  17
   5  -5   1 24.4582 4.47989  22
   5  -5   1 28.3810 4.90200  20
   5  -5   1 27.2691 4.42130   7
   6  -5   1 -1.5397 3.02272  22
   6  -5   1 -0.3096 3.19526  20
   6  -5   1 -1.0464 3.12067  21
   6  -5   1 0.26167 0.63228  17
   6  -5   1 1.76410 2.80532  19
   7  -5   1 2.44579 2.48656  20
   7  -5   1 1.00823 3.22531  21
   7  -5   1 1.18347 2.02795  19
   8  -5   1 4.85173 2.39668  21
   8  -5   1 2.96125 2.99877  20
   9  -5   1 0.91109 1.40221  21
   7   4  -1 6.51537 2.35961  26
   7   4  -1 7.54194 1.38089  16
   7   4  -1 7.11270 1.51525  17
   7   4  -1 6.70690 2.08106  21
   6   4  -1 32.7589 4.91637  26
   6   4  -1 34.3962 3.98497  16
   5   4  -1 208.256 17.9173  26
   5   4  -1 179.090 14.4457  11
   5   4  -1 194.283 13.8185  16
   5   4  -1 172.136 15.1311   5
   4   4  -1 18.0787 2.80281  11
   4   4  -1 13.2859 2.74500   2
   4   4  -1 13.8480 2.78468   5
   4   4  -1 13.3823 3.12702  26
   3   4  -1 16.6739 1.57871   6
   3   4  -1 14.9735 2.66538   2
   3   4  -1 13.6718 1.31429   3
   3   4  -1 16.6747 1.58834  12
  -3  -4   1 15.1008 4.00293  15
  -3  -4   1 18.5332 3.87585   9
   2   4  -1 2.88209 0.91315   6
   2   4  -1 2.59055 0.90800  12
   2   4  -1 2.61675 0.50978   3
   2   4  -1 2.33446 0.73022   1
   2   4  -1 1.64477 1.44498   2
  -2  -4   1 2.51809 0.79448   1
  -2  -4   1 3.32825 0.62211   3
  -2  -4   1 1.37757 2.58480   2
  -2  -4   1 4.61463 2.76675   9
  -2  -4   1 5.91309 3.12164  15
   1   4  -1 21.8283 2.85241   2
   1   4  -1 23.3122 1.75999   3
   1   4  -1 21.7024 2.02924   1
   1   4  -1 23.3457 1.68703   6
   1   4  -1 23.3306 1.92773   1
   1   4  -1 23.7252 1.72302  12
  -1  -4   1 28.8686 4.11137   9
  -1  -4   1 21.3212 2.04324   1
  -1  -4   1 29.3434 3.88988   2
  -1  -4   1 25.1436 1.81171   3
  -1  -4   1 25.9065 1.93187   1
  -1  -4   1 29.1220 4.42434  15
   0   4  -1 7.29978 0.70907   3
   0   4  -1 9.80643 0.98627   1
   0   4  -1 9.28370 0.88426   1
   0  -4   1 8.78651 0.98814   1
   0  -4   1 10.0338 2.28666   2
   0  -4   1 11.9263 2.79622   9
   0  -4   1 11.5554 3.01913  15
   0  -4   1 11.0417 2.40309   7
   0  -4   1 10.7914 2.42433  13
  -1   4  -1 22.6920 1.81761   1
  -1   4  -1 24.5488 1.80391   1
   1  -4   1 23.7713 1.68616   3
   1  -4   1 23.0989 1.70141   3
   1  -4   1 23.2510 1.76983   1
   1  -4   1 28.0492 3.59429  15
   1  -4   1 26.5416 3.15880   7
   1  -4   1 24.8558 1.95702   4
   1  -4   1 24.4614 2.03546  10
   1  -4   1 22.3048 2.32836   2
   1  -4   1 28.7182 3.31762   9
   1  -4   1 22.8616 2.74164   2
   1  -4   1 24.4587 1.84788   1
   1  -4   1 24.3007 3.14538  13
  -2   4  -1 117.999 8.23965   1
  -2   4  -1 122.637 8.24686   1
   2  -4   1 112.743 9.63530   2
   2  -4   1 119.851 9.69377   7
   2  -4   1 120.127 8.26288   1
   2  -4   1 119.751 9.94845  13
   2  -4   1 103.585 10.6006   8
   2  -4   1 139.433 9.46261  10
   2  -4   1 104.346 9.54887   2
   2  -4   1 131.444 7.94277   3
   2  -4   1 117.826 7.94157   3
   2  -4   1 106.759 8.23294   1
   2  -4   1 135.593 9.07260   4
   2  -4   1 103.130 11.6962  14
   3  -4   1 26.8688 4.06468  13
   3  -4   1 28.9885 4.04738   7
   4  -4   1 12.7217 3.16980  13
   4  -4   1 12.6530 3.07914   7
   5  -4   1 2.79005 2.44025   7
   5  -4   1 3.31293 2.51372  19
   5  -4   1 1.99037 2.37347  13
   5  -4   1 6.62582 2.87927  22
   5  -4   1 1.57624 2.80661  20
   5  -4   1 1.81119 2.80517  21
   5  -4   1 3.72894 2.44119  18
   5  -4   1 4.32781 0.87409  17
   6  -4   1 131.877 15.0511  20
   6  -4   1 136.518 9.39078  17
   6  -4   1 138.209 13.8333  21
   6  -4   1 125.713 13.3050  22
   6  -4   1 141.688 12.1549  19
   7  -4   1 36.9475 5.15921  19
   7  -4   1 42.8552 5.93470  20
   7  -4   1 44.3693 6.44219  21
   7  -4   1 43.8401 3.21479  17
   8  -4   1 -0.3510 1.90760  20
   8  -4   1 0.91779 2.81053  21
   9  -4   1 74.6020 7.68600  21
   8   3  -1 18.3356 1.57743  17
   8   3  -1 11.7682 2.62848  21
   7   3  -1 46.2176 5.61467  26
   7   3  -1 45.5066 3.90125  17
   7   3  -1 44.8319 6.02386  21
   6   3  -1 11.1984 3.09577  26
   6   3  -1 12.2946 1.66809  17
   6   3  -1 7.42074 2.83056  20
   6   3  -1 9.64939 2.11477  16
   5   3  -1 1.17384 1.71791  26
   5   3  -1 0.10033 0.44825   3
   5   3  -1 1.72859 1.96537   5
   5   3  -1 -0.2416 1.15139   2
   5   3  -1 0.03863 1.75238  11
   5   3  -1 0.76002 1.21823  16
   5   3  -1 0.31118 1.99440  20
   4   3  -1 7.08920 1.95284  11
   4   3  -1 5.88805 0.74486   3
   4   3  -1 6.13499 2.04135   5
   4   3  -1 7.84070 1.85300   2
   4   3  -1 8.56422 2.01993  26
  -4  -3   1 6.37647 2.75159   9
  -4  -3   1 5.67944 2.98959  15
   3   3  -1 28.1953 2.02641   3
   3   3  -1 27.6667 2.05818  12
   3   3  -1 28.2116 2.04444   6
   3   3  -1 29.9473 3.29541   2
   3   3  -1 20.9887 2.13899   1
  -3  -3   1 32.5076 4.64294  15
  -3  -3   1 28.6265 4.18009   9
   2   3  -1 32.0539 2.73198   1
   2   3  -1 37.5534 2.25913   6
   2   3  -1 37.3277 2.26204  12
   2   3  -1 30.0645 2.60686   1
   2   3  -1 34.2052 3.65698   2
   2   3  -1 34.2807 2.47134   3
  -2  -3   1 33.5750 2.53407   3
  -2  -3   1 36.3115 2.67546   1
  -2  -3   1 32.2481 2.75878   1
  -2  -3   1 39.9043 4.85905   2
  -2  -3   1 40.1185 4.95873  15
  -2  -3   1 41.5679 4.66476   9
   1   3  -1 151.413 12.9326   2
   1   3  -1 160.088 8.21052  12
   1   3  -1 154.029 11.1083   1
   1   3  -1 151.701 11.0342   1
   1   3  -1 163.731 10.6186   3
   1   3  -1 152.892 8.22058   6
  -1  -3   1 141.913 13.3318   2
  -1  -3   1 155.152 13.2645  15
  -1  -3   1 161.327 11.1166   1
  -1  -3   1 160.199 10.6494   3
  -1  -3   1 160.096 12.6377   9
  -1  -3   1 166.833 11.0534   1
   0   3  -1 18.1451 2.25789   2
   0   3  -1 20.0876 1.50297   1
   0   3  -1 15.7904 1.35976   3
   0   3  -1 19.7664 1.55979   1
   0  -3   1 24.7118 3.05454   9
   0  -3   1 25.7806 2.77111   7
   0  -3   1 20.8146 2.70351   2
   0  -3   1 23.4050 3.25578  15
   0  -3   1 20.8555 1.58134   1
   0  -3   1 23.2536 2.77569  13
  -1   3  -1 7.67572 0.67915   1
  -1   3  -1 8.20066 0.69809   1
   1  -3   1 8.52363 0.88757   4
   1  -3   1 6.99296 0.63820   1
   1  -3   1 7.13555 0.60251   3
   1  -3   1 7.82819 1.09624   2
   1  -3   1 8.13455 1.81197   9
   1  -3   1 7.66386 1.36070   2
   1  -3   1 7.53207 0.58825   3
   1  -3   1 8.98503 2.01947  15
   1  -3   1 8.19903 2.20324  13
   1  -3   1 8.49256 0.91982  10
   1  -3   1 7.35084 0.70585   1
   1  -3   1 8.43300 2.21248   7
  -2   3  -1 20.6220 1.44611   1
  -2   3  -1 19.7308 1.45463   1
   2  -3   1 15.7333 2.61239  14
   2  -3   1 20.1820 1.47132   1
   2  -3   1 22.2868 2.07555   4
   2  -3   1 20.7050 1.37926   3
   2  -3   1 16.5416 2.35732   8
   2  -3   1 21.2175 3.09088   7
   2  -3   1 19.4662 1.45497   1
   2  -3   1 19.6973 1.37366   3
   2  -3   1 18.2073 2.02006   2
   2  -3   1 17.6733 1.94515   2
   2  -3   1 22.8945 2.15671  10
   2  -3   1 22.5083 3.15839  13
  -3   3  -1 1.51270 0.28400   1
  -3   3  -1 1.79454 0.26145   1
   3  -3   1 1.62111 1.50638  13
   3  -3   1 1.32710 0.79532   2
   3  -3   1 2.12343 0.94624   2
   3  -3   1 1.80249 0.28082   1
   3  -3   1 1.59323 0.30723   1
   3  -3   1 1.59019 0.20988   3
   3  -3   1 2.32885 1.55992   7
   3  -3   1 1.82603 0.22972   3
   4  -3   1 6.41343 0.55538   3
   4  -3   1 8.03506 2.51334  13
   4  -3   1 6.39902 1.33741   2
   4  -3   1 7.08279 0.54738   3
   4  -3   1 8.91527 2.55326   7
   4  -3   1 6.74807 1.24636   2
   5  -3   1 35.2357 4.74024  13
   5  -3   1 30.6078 2.92794   2
   5  -3   1 33.0174 3.73024  19
   5  -3   1 34.4061 4.59678   7
   5  -3   1 29.6298 2.00732   3
   5  -3   1 34.1194 4.63188  21
   5  -3   1 29.5576 4.92716  20
   5  -3   1 23.3771 2.46052  16
   5  -3   1 25.6233 2.38497  17
   5  -3   1 27.7719 3.74521  18
   6  -3   1 332.148 22.6043  17
   6  -3   1 323.613 34.4465  20
   6  -3   1 313.554 27.3539  19
   6  -3   1 356.375 31.1616  21
   7  -3   1 1.64991 3.02643  20
   7  -3   1 1.95920 2.02401  19
   7  -3   1 0.90088 3.12382  21
   7  -3   1 3.16172 1.04536  17
   8  -3   1 10.8644 3.45137  20
   8  -3   1 17.5600 3.15108  21
   8  -3   1 15.2607 1.38412  17
   9  -3   1 3.18191 1.57602  21
   8   2  -1 -0.6865 1.70537  21
   8   2  -1 0.53428 0.79193  17
   7   2  -1 0.09130 1.37696  16
   7   2  -1 0.93212 2.00014  26
   7   2  -1 0.74675 1.36964  17
   7   2  -1 -0.5880 2.37957  20
   7   2  -1 1.15689 1.98318  21
   6   2  -1 7.21237 2.77101   5
   6   2  -1 7.86282 2.64242  11
   6   2  -1 11.7337 1.80485  17
   6   2  -1 10.7549 2.85814  26
   6   2  -1 10.5578 2.97191  20
   6   2  -1 13.5702 2.05970  16
   5   2  -1 25.7944 3.44784   2
   5   2  -1 23.8452 2.31672  17
   5   2  -1 26.8282 2.95480  16
   5   2  -1 23.0686 4.11560  20
   5   2  -1 23.9110 1.97455   3
   5   2  -1 29.2256 4.17438  26
   5   2  -1 26.6344 3.56238  11
   5   2  -1 26.6786 3.76961   5
   4   2  -1 135.681 9.22164   3
   4   2  -1 142.047 10.3100  11
   4   2  -1 138.581 10.7992   5
   4   2  -1 138.583 11.6470   2
  -4  -2   1 129.645 11.2559   9
  -4  -2   1 121.732 11.7955  15
   3   2  -1 25.2798 1.78113   3
   3   2  -1 24.1548 2.84647   2
   3   2  -1 19.2923 1.87168   1
   3   2  -1 23.7169 1.83548  12
   3   2  -1 22.2787 1.79978   6
  -3  -2   1 26.8922 3.71430   9
  -3  -2   1 25.4204 3.87652  15
  -3  -2   1 24.1731 1.99731   1
   2   2  -1 1.47072 1.21079   2
   2   2  -1 1.86511 0.76449  12
   2   2  -1 1.50521 0.44526   1
   2   2  -1 2.15145 0.59166   1
   2   2  -1 2.35576 0.41865   3
   2   2  -1 2.26205 0.77469   6
  -2  -2   1 2.85112 2.25653  15
  -2  -2   1 2.02750 0.52171   1
  -2  -2   1 2.20158 0.64081   1
  -2  -2   1 2.14078 2.07014   9
  -2  -2   1 1.92028 0.46722   3
  -2  -2   1 1.34584 2.09174   2
   1   2  -1 13.0028 1.26613   1
   1   2  -1 13.8928 1.03747   3
   1   2  -1 14.3049 1.67382   2
   1   2  -1 13.5267 1.11860   1
   1   2  -1 13.2804 1.11984   6
   1   2  -1 14.0050 1.14813  12
  -1  -2   1 13.4129 1.06317   3
  -1  -2   1 18.7783 2.82322  15
  -1  -2   1 14.4572 1.17961   1
  -1  -2   1 17.0684 2.61994   9
  -1  -2   1 14.5666 1.20278   1
  -1  -2   1 13.0843 2.10947   2
   0   2  -1 266.040 16.9662   3
   0   2  -1 273.097 17.5902   1
   0   2  -1 255.185 20.1982   2
   0   2  -1 280.245 17.6170   1
   0  -2   1 243.598 19.0281   9
   0  -2   1 237.022 19.9000  15
   0  -2   1 265.086 17.6163   1
   0  -2   1 249.409 18.9105  13
   0  -2   1 221.399 17.5654   1
   0  -2   1 232.923 20.3299   2
   0  -2   1 252.488 18.3841   7
   0  -2   1 256.416 16.9750   3
  -1   2  -1 19.2897 1.36142   1
  -1   2  -1 19.9742 1.35771   1
   1  -2   1 15.8037 1.99662   2
   1  -2   1 15.9727 1.27742   3
   1  -2   1 17.2470 2.19586   7
   1  -2   1 19.6994 1.38680   1
   1  -2   1 16.1771 1.81048   2
   1  -2   1 17.8857 1.34640   1
   1  -2   1 14.6841 1.88195   9
   1  -2   1 18.0314 2.26277  13
   1  -2   1 14.7962 2.02384  15
   1  -2   1 19.8029 1.28653   3
  -2   2  -1 73.1381 4.85923   1
  -2   2  -1 74.5199 4.86179   1
   2  -2   1 64.4186 4.67458   3
   2  -2   1 68.1035 4.86551   1
   2  -2   1 72.7973 4.66651   3
   2  -2   1 68.6943 5.82270   2
   2  -2   1 54.7649 5.81208   2
   2  -2   1 70.3843 4.86038   1
   2  -2   1 68.0704 6.17221  13
   2  -2   1 73.7149 6.03782   7
  -3   2  -1 826.867 57.7159   1
   3  -2   1 770.201 57.7303   1
   3  -2   1 892.580 60.1170   7
   3  -2   1 825.801 57.9803  11
   3  -2   1 828.630 61.7926  13
   3  -2   1 897.201 55.7205   3
   3  -2   1 897.839 66.0730   2
   3  -2   1 834.141 60.8255   5
   3  -2   1 761.120 55.7320   3
   4  -2   1 131.574 11.0838  13
   4  -2   1 126.011 10.0475  11
   4  -2   1 128.585 10.5695   5
   4  -2   1 133.573 8.89508   3
   4  -2   1 127.924 10.7544   7
   4  -2   1 138.133 11.0211   2
   5  -2   1 555.155 42.8977   5
   5  -2   1 601.992 39.2491  17
   5  -2   1 608.350 46.2284   2
   5  -2   1 628.386 53.2295  21
   5  -2   1 497.545 46.7251  19
   5  -2   1 590.281 40.0482  16
   5  -2   1 620.079 38.6917   3
   5  -2   1 563.181 40.9065  11
   5  -2   1 530.419 59.0845  20
   6  -2   1 20.4922 3.86139  20
   6  -2   1 11.0567 2.10063   2
   6  -2   1 21.4396 3.82849  21
   6  -2   1 16.4634 1.96255  16
   6  -2   1 16.4499 1.25498   3
   6  -2   1 18.8773 3.36969  19
   6  -2   1 16.3187 1.83778  17
   7  -2   1 5.64284 2.49180  20
   7  -2   1 9.96161 2.75354  21
   7  -2   1 3.71219 2.75892  19
   7  -2   1 6.50915 1.18817  17
   8  -2   1 -0.7533 1.93822  21
   8  -2   1 0.07005 0.78939  17
   8  -2   1 -0.2747 1.81800  20
   8   1  -1 1.45818 1.89267  21
   8   1  -1 -0.2112 1.52229  20
   8   1  -1 0.28346 1.05998  17
   7   1  -1 37.1114 5.00308  21
   7   1  -1 36.1288 3.34881  17
   7   1  -1 34.2796 4.62068  26
   7   1  -1 40.7779 3.46550  16
   7   1  -1 37.6534 5.16187  20
   6   1  -1 152.073 16.3960  20
   6   1  -1 157.059 10.7643  17
   6   1  -1 130.671 11.8941  11
   6   1  -1 168.071 15.1975  21
   6   1  -1 153.760 14.1826  26
   6   1  -1 137.063 12.5488   5
   6   1  -1 166.202 11.0084  16
   6   1  -1 134.966 13.0016   2
   5   1  -1 170.297 11.8955   3
   5   1  -1 174.761 18.4613  20
   5   1  -1 167.734 14.7732   2
   5   1  -1 170.911 13.8217   5
   5   1  -1 181.317 13.2213  11
   5   1  -1 172.901 12.1567  17
   5   1  -1 183.395 16.1933  26
   5   1  -1 181.853 12.5689  16
   4   1  -1 269.381 18.5558   3
   4   1  -1 275.961 22.4653   2
   4   1  -1 284.165 20.7812   5
   4   1  -1 277.789 19.7814  11
   3   1  -1 139.042 8.51716   3
   3   1  -1 111.526 8.92462   1
   3   1  -1 109.507 8.83432   1
   3   1  -1 141.578 10.5132   2
  -3  -1   1 124.934 10.6212  15
  -3  -1   1 119.208 10.0968   9
  -3  -1   1 128.678 8.97006   1
  -3  -1   1 130.581 8.91040   1
   2   1  -1 20.2679 1.48676   3
   2   1  -1 21.2177 1.38792   6
   2   1  -1 19.6706 1.70173   1
   2   1  -1 19.0764 1.60128   1
   2   1  -1 21.3944 2.34850   2
   2   1  -1 23.0769 1.50769  12
  -2  -1   1 20.5500 1.72280   1
  -2  -1   1 20.6154 3.02028   2
  -2  -1   1 19.5502 1.52656   3
  -2  -1   1 22.3052 1.66041   1
   1   1  -1 156.026 12.6204   2
   1   1  -1 168.142 10.5310   3
   1   1  -1 166.884 12.1800  10
   1   1  -1 161.845 11.6833   4
   1   1  -1 161.358 10.9585   1
   1   1  -1 148.990 10.9211   1
   1   1  -1 145.887 8.05448   6
   1   1  -1 146.964 8.03668  12
  -1  -1   1 173.923 10.9353   1
  -1  -1   1 159.122 10.9638   1
  -1  -1   1 138.904 10.5375   3
   0   1  -1 452.115 34.9339   2
   0   1  -1 462.326 29.5182   3
   0   1  -1 454.542 30.5776   1
   0   1  -1 455.628 30.5630   1
   0  -1   1 412.454 29.5190   3
   0  -1   1 451.180 30.5608   1
   0  -1   1 370.925 34.9807   2
   0  -1   1 434.860 32.4285  13
   0  -1   1 498.072 30.5871   1
   0  -1   1 420.732 31.5016   7
  -1   1  -1 244.788 15.1269   1
  -1   1  -1 247.905 15.1291   1
   1  -1   1 234.326 17.4246   2
   1  -1   1 207.752 14.6003   3
   1  -1   1 195.998 15.8882   7
   1  -1   1 207.731 16.3704  13
   1  -1   1 219.195 15.1226   1
   1  -1   1 202.651 16.0334   5
   1  -1   1 218.357 14.5917   3
   1  -1   1 191.985 17.3748   2
   1  -1   1 227.009 15.1250   1
   1  -1   1 207.597 15.2907  11
  -2   1  -1 46.1029 3.05246   1
  -2   1  -1 43.9386 3.02932   1
   2  -1   1 48.4380 3.80942   2
   2  -1   1 42.0320 3.01242   1
   2  -1   1 37.8441 3.89468   7
   2  -1   1 37.3991 2.89251   3
   2  -1   1 35.5727 3.96335  13
   2  -1   1 38.8818 3.03697   1
   2  -1   1 39.7969 3.79132   5
   2  -1   1 38.9568 3.58695  11
   2  -1   1 33.6367 3.90050   2
   2  -1   1 46.8695 2.88626   3
  -3   1  -1 144.862 9.84949   1
  -3   1  -1 140.140 9.81966   1
   3  -1   1 125.663 9.82921   1
   3  -1   1 144.414 10.8889   5
   3  -1   1 142.637 10.3584  11
   3  -1   1 139.327 10.9779   7
   3  -1   1 156.745 11.5648   2
   3  -1   1 149.004 9.42511   3
   3  -1   1 139.114 11.2798  13
   3  -1   1 125.005 9.77824   1
   4  -1   1 20.9992 2.62230  11
   4  -1   1 20.7608 2.76908   5
   4  -1   1 16.7093 1.35971   3
   4  -1   1 19.2452 2.32131   2
   4  -1   1 20.9244 3.32753   7
   4  -1   1 19.0605 3.27255  13
   5  -1   1 0.68443 1.09070   2
   5  -1   1 1.16560 1.06506  16
   5  -1   1 0.25843 0.91095  17
   5  -1   1 -0.4136 2.20534  19
   5  -1   1 0.22861 1.62311  11
   5  -1   1 0.94768 2.21974  21
   5  -1   1 0.38054 0.29120   3
   5  -1   1 1.25582 1.71493   5
   5  -1   1 0.47695 2.23487  20
   5  -1   1 0.39298 1.51936  26
   6  -1   1 14.3344 2.78898  21
   6  -1   1 8.96642 1.50232  16
   6  -1   1 7.97563 2.70229  19
   6  -1   1 8.43132 2.48387  11
   6  -1   1 6.86539 2.03683  26
   6  -1   1 13.6013 1.55375  17
   6  -1   1 6.62363 2.57048   5
   6  -1   1 14.0791 3.42298  20
   6  -1   1 5.18186 1.61436   2
   7  -1   1 24.4793 2.18045  16
   7  -1   1 28.4061 4.46841  21
   7  -1   1 25.4151 2.21612  17
   7  -1   1 19.1168 4.12748  20
   8  -1   1 35.8815 4.86699  21
   8  -1   1 32.3522 2.46856  17
   8  -1   1 23.1627 3.98505  20
   8   0  -1 73.6253 5.55476  17
   8   0  -1 87.3818 8.66473  21
   8   0  -1 77.1539 8.78400  20
   7   0  -1 -0.1657 2.95336  21
   7   0  -1 0.18875 1.13986  17
   7   0  -1 0.54389 1.50202  26
   7   0  -1 0.92565 1.01671  16
   7   0  -1 0.44724 2.73698  20
   6   0  -1 14.6325 1.18741   3
   6   0  -1 11.1696 2.48615  11
   6   0  -1 12.3408 1.68409  16
   6   0  -1 13.9478 3.38069  21
   6   0  -1 10.0937 2.32566  26
   6   0  -1 14.7818 3.21058  20
   6   0  -1 17.5562 1.74945  17
   6   0  -1 8.93594 2.64535   5
   6   0  -1 8.55053 2.00941   2
   5   0  -1 21.2311 1.63987   3
   5   0  -1 21.4799 2.19178  16
   5   0  -1 21.1096 2.62489   2
   5   0  -1 23.3220 3.54939  20
   5   0  -1 24.1354 3.13802  11
   5   0  -1 20.2070 2.98338  26
   5   0  -1 18.5032 2.09590  17
   5   0  -1 22.9988 3.31108   5
   4   0  -1 30.4577 3.20603   2
   4   0  -1 30.9067 2.27069   3
   4   0  -1 30.8601 3.31404   5
   4   0  -1 36.5108 3.23775  11
   3   0  -1 194.963 16.9866  13
   3   0  -1 238.953 18.3037   2
   3   0  -1 190.342 15.7779   1
   3   0  -1 243.575 17.2113   4
   3   0  -1 260.149 15.2456   3
   3   0  -1 251.128 16.9700   5
   3   0  -1 238.117 16.1453  11
   3   0  -1 213.498 15.8665   1
   3   0  -1 239.975 17.9246  10
   3   0  -1 199.127 16.5151   7
  -3   0   1 216.440 15.8682   1
  -3   0   1 244.034 15.8549   1
   2   0  -1 14.0125 1.86235  13
   2   0  -1 14.2937 1.24091   3
   2   0  -1 18.5655 1.99935   4
   2   0  -1 17.8545 1.18641  12
   2   0  -1 15.5787 2.24644   2
   2   0  -1 20.6593 1.26844   3
   2   0  -1 15.9205 1.32192   1
   2   0  -1 14.7926 1.84817   7
   2   0  -1 19.1202 2.07885  10
   2   0  -1 17.4438 1.40951   1
   2   0  -1 17.6671 1.18681   6
   2   0  -1 17.9212 1.87638   2
  -2   0   1 18.2559 1.41557   1
  -2   0   1 19.5208 1.37176   1
   1   0  -1 11.4070 0.97601   3
   1   0  -1 11.4368 1.31479  10
   1   0  -1 9.71501 0.88394   6
   1   0  -1 10.4904 1.02792   1
   1   0  -1 10.4075 1.35507   2
   1   0  -1 10.4612 0.89188  12
   1   0  -1 10.9425 1.26334   4
  -1   0   1 10.5452 1.06621   1
   0   0  -1 798.495 67.0155   2
   0   0  -1 817.513 56.7688   3
   0   0  -1 880.513 58.8830   1
   0   0  -1 935.419 58.9128   1
   0   0   1 940.902 58.8863   1
   0   0   1 827.325 67.0413   2
   0   0   1 851.466 58.8582   1
   0   0   1 758.329 56.7855   3
  -1   0  -1 82.4514 5.85865   3
  -1   0  -1 77.4408 7.24173   2
  -1   0  -1 91.8603 6.09010   1
  -1   0  -1 93.3769 6.07972   1
   1   0   1 87.0172 6.06614   1
   1   0   1 84.9172 5.83762   3
   1   0   1 84.9686 6.27364  11
   1   0   1 85.3361 6.58584   5
   1   0   1 84.5649 6.08274   1
   1   0   1 93.9102 7.14938   2
  -2   0  -1 0.88254 0.36764   1
  -2   0  -1 1.26642 0.44185   1
  -2   0  -1 1.30861 0.36151   3
  -2   0  -1 1.37315 1.59063   2
   2   0   1 0.97898 0.32888   1
   2   0   1 0.98773 0.28197   3
   2   0   1 0.47238 0.37552   1
   2   0   1 0.90210 1.01186   2
   2   0   1 0.30790 0.20590   3
   2   0   1 1.94519 1.33284   5
   2   0   1 1.07811 1.20726  11
  -3   0  -1 250.021 16.7624   1
  -3   0  -1 247.078 16.7287   1
   3   0   1 243.944 19.3908   2
   3   0   1 205.503 16.6533   1
   3   0   1 238.177 17.9630   5
   3   0   1 234.772 17.1026  11
   3   0   1 256.258 16.0725   3
   4   0   1 95.2273 7.73550  11
   4   0   1 100.226 6.68072   3
   4   0   1 89.8909 8.65194  13
   4   0   1 104.434 8.51503   2
   4   0   1 100.314 8.17328   5
   4   0   1 84.6418 8.38758   7
   5   0   1 48.8569 4.07012  16
   5   0   1 47.8917 6.23340  20
   5   0   1 46.7226 5.08557   5
   5   0   1 47.7832 3.85180  17
   5   0   1 49.3487 5.85042  21
   5   0   1 44.0470 5.47518  26
   5   0   1 55.4728 5.07808   2
   5   0   1 46.9972 4.82645  11
   5   0   1 50.2016 3.49278   3
   6   0   1 13.2064 2.84435   5
   6   0   1 13.6066 1.75269  17
   6   0   1 13.2268 1.70854  16
   6   0   1 11.7921 3.13345  21
   6   0   1 11.2638 2.58911  11
   6   0   1 11.0228 2.59703  26
   6   0   1 14.1328 3.41377  20
   7   0   1 5.29019 1.12066  17
   7   0   1 4.27331 2.08050  20
   7   0   1 2.51345 1.61765  26
   7   0   1 5.80327 2.38910  21
   7   0   1 3.07640 1.13504  16
   8   0   1 28.2060 2.42215  17
   8   0   1 36.3785 4.20802  21
   9  -1  -1 0.10952 2.07857  21
   8  -1  -1 13.1863 3.80438  20
   8  -1  -1 26.1119 2.00175  17
   8  -1  -1 28.4759 4.03738  21
   7  -1  -1 1.20442 2.87948  20
   7  -1  -1 1.17888 0.75187  16
   7  -1  -1 1.30151 1.01159  17
   7  -1  -1 1.14621 2.52687  19
   7  -1  -1 1.13870 2.97973  21
   6  -1  -1 205.128 13.7001  16
   6  -1  -1 177.020 15.3007   5
   6  -1  -1 215.220 13.4206  17
   6  -1  -1 186.885 16.3981  19
   6  -1  -1 209.702 18.5963  21
   6  -1  -1 193.892 16.0224   2
   6  -1  -1 186.797 13.0767   3
   6  -1  -1 165.134 17.5150  26
   6  -1  -1 173.485 14.5453  11
   6  -1  -1 214.763 20.6446  20
   5  -1  -1 225.696 14.5510   3
   5  -1  -1 214.585 15.1263  16
   5  -1  -1 213.836 15.8933  11
   5  -1  -1 214.459 17.6122   2
   5  -1  -1 204.583 16.6466   5
   4  -1  -1 1.34598 0.28393   3
   4  -1  -1 1.94636 1.30344  11
   4  -1  -1 1.69848 1.42881   5
   4  -1  -1 1.27681 0.80348   2
   3  -1  -1 876.273 65.0201   1
   3  -1  -1 878.089 68.9316  13
   3  -1  -1 1002.37 74.2406   2
   3  -1  -1 1034.60 62.7582   3
   3  -1  -1 979.895 65.0487  11
   3  -1  -1 1012.39 69.3499   4
   3  -1  -1 956.455 68.2199   5
   3  -1  -1 777.980 64.9560   1
   3  -1  -1 851.068 66.9630   7
   3  -1  -1 1059.91 72.3043  10
  -3   1   1 953.393 65.0048   1
  -3   1   1 917.272 65.0184   1
   2  -1  -1 339.906 23.6542   1
   2  -1  -1 320.586 23.6249   1
   2  -1  -1 292.787 22.8168   3
   2  -1  -1 309.951 25.2063  13
   2  -1  -1 363.339 25.3698   4
   2  -1  -1 365.799 24.9431   5
   2  -1  -1 371.244 23.7826  11
   2  -1  -1 360.483 26.4340  10
   2  -1  -1 298.724 24.4861   7
   2  -1  -1 349.945 22.8161   3
   2  -1  -1 370.045 27.0408   2
  -2   1   1 345.174 23.6570   1
  -2   1   1 364.438 23.6441   1
   1  -1  -1 152.698 10.6848   1
   1  -1  -1 163.979 10.6903   1
   1  -1  -1 153.317 12.2288   2
   1  -1  -1 153.137 10.3212   3
   1  -1  -1 134.663 10.3191   3
   1  -1  -1 136.422 12.2499   2
   1  -1  -1 148.755 11.5058  13
   1  -1  -1 175.695 11.2755   5
   1  -1  -1 154.466 11.5158   4
   1  -1  -1 149.798 11.1844   7
   1  -1  -1 141.677 11.9863  10
   1  -1  -1 168.176 10.7436  11
  -1   1   1 164.468 10.6968   1
  -1   1   1 163.555 10.6881   1
   0  -1  -1 454.287 29.5194   1
   0  -1  -1 455.306 29.5126   1
   0  -1  -1 390.499 33.7878   2
   0  -1  -1 401.683 35.7542   8
   0  -1  -1 446.570 28.5075   3
   0  -1  -1 383.882 39.3727  14
   0   1   1 429.321 33.7535   2
   0   1   1 446.871 29.5090   1
   0   1   1 438.800 29.5197   1
   0   1   1 415.822 28.4918   3
  -1  -1  -1 282.794 18.1592   1
  -1  -1  -1 276.021 18.1749   1
  -1  -1  -1 241.265 17.5180   3
   1   1   1 245.372 18.1317   1
   1   1   1 269.077 18.2107  11
   1   1   1 253.888 17.4932   3
   1   1   1 266.361 20.8960   2
   1   1   1 254.886 18.1719   1
   1   1   1 263.743 19.0986   5
  -2  -1  -1 949.890 66.6663   3
  -2  -1  -1 1038.80 69.0348   1
  -2  -1  -1 1069.09 69.0705   1
   2   1   1 995.598 66.6173   3
   2   1   1 1048.16 78.9610   2
   2   1   1 898.710 68.9813   1
   2   1   1 1041.59 68.9472  11
   2   1   1 1041.91 72.3196   5
   2   1   1 916.132 69.0429   1
  -3  -1  -1 68.5344 7.17033   8
  -3  -1  -1 68.1164 7.91375  14
   3   1   1 82.3598 6.69138   2
   3   1   1 63.2534 5.31018   1
   3   1   1 82.0911 6.26820   5
   3   1   1 83.6140 5.97526  11
   3   1   1 78.3370 5.10655   3
   4   1   1 2.13711 1.10737   2
   4   1   1 2.08917 0.39361   3
   4   1   1 2.22426 1.22334  11
   4   1   1 2.93345 1.33486   5
   5   1   1 116.184 8.40393  17
   5   1   1 111.073 9.42106  11
   5   1   1 115.221 8.04189   3
   5   1   1 119.955 12.7699  20
   5   1   1 125.861 10.4700   2
   5   1   1 117.841 9.96447   5
   5   1   1 111.953 11.1418  26
   5   1   1 118.926 8.60159  16
   6   1   1 2.74260 1.39556  17
   6   1   1 2.77391 1.20771  16
   6   1   1 3.33276 2.25206  26
   6   1   1 0.29395 2.62168  21
   7   1   1 3.06875 2.93961  21
   7   1   1 2.23805 1.34695  17
   7   1   1 0.77642 1.77547  26
   7   1   1 1.53325 1.24022  16
   8   1   1 1.81926 2.36813  21
   8   1   1 0.47698 0.93006  17
   9  -2  -1 2.15721 1.76251  20
   9  -2  -1 3.06504 1.75428  21
   8  -2  -1 3.07456 1.88075  19
   8  -2  -1 1.33643 0.70646  17
   8  -2  -1 1.62776 2.21945  21
   8  -2  -1 3.08753 2.17541  20
   7  -2  -1 57.5542 4.04852  17
   7  -2  -1 56.0323 7.38712  20
   7  -2  -1 51.4092 6.39003  21
   7  -2  -1 42.5046 6.11785  19
   6  -2  -1 22.9805 3.95076  21
   6  -2  -1 17.9111 1.39244   3
   6  -2  -1 19.2982 1.79721  16
   6  -2  -1 24.5584 3.40677  19
   6  -2  -1 27.7114 3.77522  20
   6  -2  -1 18.9668 3.34536   5
   6  -2  -1 17.0397 2.12097   2
   6  -2  -1 20.1238 1.84318  17
   6  -2  -1 18.2644 3.17789  11
   6  -2  -1 21.2887 3.54215  18
   5  -2  -1 12.8187 1.62046   2
   5  -2  -1 14.2518 2.64139   5
   5  -2  -1 11.1353 0.91097   3
   5  -2  -1 14.4571 2.46220  11
   4  -2  -1 128.852 7.74521   3
   4  -2  -1 104.086 9.04582   7
   4  -2  -1 129.986 9.42390   2
   4  -2  -1 109.196 9.31631  13
   4  -2  -1 95.9575 7.73305   3
   4  -2  -1 119.671 8.69014  11
   4  -2  -1 113.191 9.08465   5
   4  -2  -1 94.8987 9.51724   2
   4  -2  -1 126.921 9.31422   4
   4  -2  -1 138.600 9.76808  10
  -4   2   1 113.652 8.08354   1
   3  -2  -1 95.8208 7.49070   5
   3  -2  -1 106.495 7.68877   2
   3  -2  -1 94.7401 7.12748  11
   3  -2  -1 82.9564 6.37935   3
   3  -2  -1 79.8819 7.77696   2
   3  -2  -1 94.9372 6.64244   1
   3  -2  -1 103.989 6.38236   3
   3  -2  -1 106.327 7.94542  10
   3  -2  -1 92.1711 6.61268   1
   3  -2  -1 90.6659 7.49392   7
   3  -2  -1 89.4678 7.69092  13
   3  -2  -1 104.560 7.61660   4
  -3   2   1 96.2645 6.63462   1
  -3   2   1 96.9825 6.62788   1
   2  -2  -1 129.875 9.76065   5
   2  -2  -1 115.736 9.75343   7
   2  -2  -1 132.816 9.30599  11
   2  -2  -1 135.389 9.93925   4
   2  -2  -1 144.265 10.3761  10
   2  -2  -1 120.924 10.0541  13
   1  -2  -1 824.895 70.8913   8
   1  -2  -1 747.563 64.9196  10
   1  -2  -1 827.674 66.8329   2
   1  -2  -1 848.564 78.1009  14
   1  -2  -1 848.066 56.5997   3
   1  -2  -1 852.847 62.1797  13
   1  -2  -1 917.024 58.6715   1
   1  -2  -1 861.499 60.4294   7
   1  -2  -1 763.978 62.2909   4
   1  -2  -1 834.137 56.6045   3
   1  -2  -1 842.917 58.6025   1
  -1   2   1 931.078 58.7027   1
  -1   2   1 936.398 58.5953   1
   0  -2  -1 147.372 16.2907  14
   0  -2  -1 175.686 11.4114   3
   0  -2  -1 153.279 14.7959   8
   0  -2  -1 183.394 11.8239   1
   0  -2  -1 182.940 11.8466   1
   0  -2  -1 150.391 13.7923   2
   0   2   1 172.095 11.3927   3
   0   2   1 175.430 11.8511   1
   0   2   1 168.084 8.60044  12
   0   2   1 167.357 8.63874   6
   0   2   1 172.611 11.8170   1
   0   2   1 171.916 13.6751   2
  -1  -2  -1 78.0502 7.98484   2
  -1  -2  -1 94.7308 6.36198   1
  -1  -2  -1 88.5278 6.12104   3
  -1  -2  -1 99.4569 6.42279   1
   1   2   1 88.5405 6.08264   3
   1   2   1 88.1938 6.34309   1
   1   2   1 83.5628 6.38287   1
   1   2   1 88.0452 4.73032  12
   1   2   1 89.0302 4.74666   6
   1   2   1 95.7914 7.62956   2
  -2  -2  -1 993.521 67.7350   3
  -2  -2  -1 1074.56 70.1917   1
  -2  -2  -1 1062.34 70.1507   1
  -2  -2  -1 888.856 80.5588   2
   2   2   1 892.073 70.0752   1
   2   2   1 1108.87 70.0664  11
   2   2   1 944.805 70.1643   1
   2   2   1 1110.67 73.4930   5
   2   2   1 1065.04 80.3098   2
   2   2   1 999.421 67.6673   3
  -3  -2  -1 51.0848 7.02157  14
  -3  -2  -1 49.9065 6.30095   8
   3   2   1 59.3621 5.53490   2
   3   2   1 60.3170 4.84690  11
   3   2   1 58.7968 5.09685   5
   3   2   1 58.2175 4.02494   3
   4   2   1 3.76515 1.54887   5
   4   2   1 3.16185 1.69756  26
   4   2   1 1.85898 0.49935   3
   4   2   1 3.26230 1.39768  11
   4   2   1 1.60211 1.16142   2
   5   2   1 6.36714 1.49248  17
   5   2   1 8.96529 1.57040  16
   5   2   1 8.03079 2.23504   5
   5   2   1 7.28092 1.97854  11
   5   2   1 5.34910 0.80566   3
   5   2   1 9.24655 2.73513  26
   5   2   1 6.20796 2.13209   2
   6   2   1 7.99485 2.79626  26
   6   2   1 8.15321 3.05655  21
   6   2   1 8.25166 1.98934  16
   6   2   1 8.87502 1.76627  17
   7   2   1 46.8352 5.64162  26
   7   2   1 59.4874 6.12782  21
   7   2   1 52.9369 4.19523  17
   7   2   1 56.5356 4.34503  16
   8   2   1 1.33868 2.00489  21
   8   2   1 4.15722 0.77361  17
   9  -3  -1 48.4678 5.54617  21
   9  -3  -1 42.6657 5.44252  20
   8  -3  -1 8.63422 3.41469  21
   8  -3  -1 14.0382 3.24322  19
   8  -3  -1 19.8254 1.50076  17
   8  -3  -1 14.7651 3.80446  20
   7  -3  -1 3.61586 2.81840  19
   7  -3  -1 2.47039 0.74058  17
   7  -3  -1 3.18022 3.14583  20
   7  -3  -1 2.64971 2.34904  21
   6  -3  -1 53.0775 5.46543  11
   6  -3  -1 63.9170 4.46983  17
   6  -3  -1 61.8239 6.88338  18
   6  -3  -1 55.7472 5.79179   5
   6  -3  -1 62.9544 7.85799  20
   6  -3  -1 67.1753 7.48971  21
   6  -3  -1 64.3037 6.58356  19
   5  -3  -1 62.1351 5.50222  11
   5  -3  -1 63.1152 5.80902   5
   4  -3  -1 30.1498 3.37816   5
   4  -3  -1 28.4206 3.70284  13
   4  -3  -1 38.0687 3.59501  10
   4  -3  -1 38.3265 3.46267   4
   4  -3  -1 29.0700 3.20935  11
   4  -3  -1 30.4946 3.63580   7
   3  -3  -1 109.477 8.97788   7
   3  -3  -1 122.686 9.29730  10
   3  -3  -1 118.434 8.91145   4
   3  -3  -1 107.449 8.78934   5
   3  -3  -1 107.714 8.37549  11
   3  -3  -1 113.546 9.24606  13
   2  -3  -1 129.908 13.4499  14
   2  -3  -1 148.725 10.5219   4
   2  -3  -1 136.272 10.5706   7
   2  -3  -1 131.283 10.8396  13
   2  -3  -1 120.799 12.1689   8
   2  -3  -1 153.736 10.9767  10
   1  -3  -1 4753.90 411.271   2
   1  -3  -1 5320.86 369.726   7
   1  -3  -1 5342.57 348.268   3
   1  -3  -1 5142.16 360.570   1
   1  -3  -1 5691.87 410.685   2
   1  -3  -1 4354.52 382.145   4
   1  -3  -1 5325.76 348.368   3
   1  -3  -1 5509.94 380.535  13
   1  -3  -1 5575.63 360.684   1
   1  -3  -1 5088.11 433.829   8
   1  -3  -1 4890.22 477.770  14
  -1   3   1 5364.65 360.587   1
  -1   3   1 5578.84 360.709   1
   0  -3  -1 133.047 8.94039   1
   0  -3  -1 122.147 13.0060  14
   0  -3  -1 118.056 10.7542   2
   0  -3  -1 133.599 8.62030   3
   0  -3  -1 133.823 8.98229   1
   0  -3  -1 129.502 11.8402   8
   0   3   1 127.242 8.98766   1
   0   3   1 131.416 6.53630  12
   0   3   1 127.033 6.55818   6
   0   3   1 125.833 10.4882   2
   0   3   1 128.213 8.93763   1
   0   3   1 115.678 8.58630   3
  -1  -3  -1 379.940 25.4150   1
  -1  -3  -1 347.017 29.6017   2
  -1  -3  -1 374.308 25.3668   1
  -1  -3  -1 383.426 24.4886   3
   1   3   1 373.656 18.6104   6
   1   3   1 368.018 18.5282  12
   1   3   1 340.060 25.3312   1
   1   3   1 346.348 25.4059   1
   1   3   1 356.450 24.4297   3
   1   3   1 379.330 29.2992   2
  -2  -3  -1 66.2898 4.81138   1
  -2  -3  -1 67.3047 4.75287   1
  -2  -3  -1 58.3250 6.72821   2
  -2  -3  -1 65.3056 4.54566   3
   2   3   1 54.8447 4.64981   1
   2   3   1 69.4893 5.09487  11
   2   3   1 72.8395 5.37464   5
   2   3   1 60.1331 4.78523   1
   2   3   1 61.1626 4.44326   3
   2   3   1 71.0343 6.04491   2
  -3  -3  -1 3.08048 3.08330  14
  -3  -3  -1 4.11015 2.94599   8
   3   3   1 1.19263 0.46790   3
   3   3   1 1.97924 1.39858  11
   3   3   1 2.27401 1.44748   5
   3   3   1 2.18193 1.50243   2
   4   3   1 108.049 8.97692   5
   4   3   1 107.734 9.78373   2
   4   3   1 105.398 10.3721  26
   4   3   1 115.164 8.60788  11
   4   3   1 96.1520 8.08241  16
   4   3   1 106.029 7.35070   3
   5   3   1 124.251 8.33686  16
   5   3   1 107.232 8.94073  11
   5   3   1 95.6435 7.57762   3
   5   3   1 111.126 10.2383   2
   5   3   1 103.049 9.35751   5
   5   3   1 122.005 10.9694  26
   6   3   1 0.99544 1.50529  17
   6   3   1 2.63156 1.39273  16
   6   3   1 3.03944 2.00561  26
   7   3   1 73.2613 5.23079  16
   7   3   1 61.5312 6.76410  26
   7   3   1 68.6104 7.43410  21
   7   3   1 65.3738 5.03030  17
   9  -4  -1 35.3068 4.19097  21
   9  -4  -1 32.2621 4.47887  20
   8  -4  -1 45.4836 5.51910  21
   8  -4  -1 39.4873 4.76545  19
   8  -4  -1 44.2575 5.88779  20
   7  -4  -1 1.03629 0.64881  17
   7  -4  -1 1.98068 3.09941  20
   7  -4  -1 2.55751 2.80587  19
   7  -4  -1 0.84368 2.23274  21
   6  -4  -1 16.2246 2.67271  18
   6  -4  -1 17.0161 3.76173  20
   6  -4  -1 13.7301 2.98802  19
   6  -4  -1 10.3888 3.57171  21
   6  -4  -1 10.7276 1.24337  17
   5  -4  -1 93.1337 8.74650  19
   5  -4  -1 99.7765 8.87281  18
   5  -4  -1 96.9059 11.0522  20
   4  -4  -1 76.3362 6.30563  10
   4  -4  -1 74.3315 6.04869   4
   4  -4  -1 63.6051 6.50779  13
   4  -4  -1 63.0582 6.35005   7
   3  -4  -1 9.50340 1.69886  10
   3  -4  -1 9.98022 2.38989   7
   3  -4  -1 9.11048 1.63073   4
   3  -4  -1 7.77961 2.32737  13
   2  -4  -1 96.6080 8.27112  13
   2  -4  -1 92.5331 9.23120   8
   2  -4  -1 100.345 8.09731   7
   2  -4  -1 91.2991 10.1852  14
   2  -4  -1 101.903 7.62523   4
   2  -4  -1 100.758 7.94043  10
   1  -4  -1 19.8121 2.25821  10
   1  -4  -1 23.9077 2.88441   7
   1  -4  -1 29.3562 4.49610   8
   1  -4  -1 28.8002 4.90783  14
   1  -4  -1 24.3740 1.72428   1
   1  -4  -1 20.8217 2.18459   4
   1  -4  -1 22.7383 2.87405  13
   1  -4  -1 23.3745 2.17437   2
   1  -4  -1 22.1763 1.67786   1
   1  -4  -1 22.5733 1.60854   3
   1  -4  -1 22.9276 1.59832   3
   1  -4  -1 21.2038 2.53476   2
  -1   4   1 23.2895 1.69048   1
  -1   4   1 20.7627 1.73809   1
   0  -4  -1 901.764 58.4297   1
   0  -4  -1 801.674 78.4773  14
   0  -4  -1 849.918 71.3037   8
   0  -4  -1 820.990 67.0888   2
   0  -4  -1 926.030 56.3821   3
   0   4   1 841.504 42.6603   6
   0   4   1 851.647 42.4714  12
   0   4   1 835.566 58.3692   1
   0   4   1 825.850 58.4273   1
   0   4   1 809.326 66.9531   2
   0   4   1 809.087 56.3508   3
  -1  -4  -1 6.61217 0.86340   1
  -1  -4  -1 7.35827 0.77732   1
  -1  -4  -1 7.40227 3.74879   8
  -1  -4  -1 7.23835 0.81503   3
  -1  -4  -1 6.53467 2.08132   2
  -1  -4  -1 7.00507 4.07619  14
   1   4   1 8.93307 1.63207   2
   1   4   1 6.50126 0.71680   3
   1   4   1 7.38978 0.85488   6
   1   4   1 5.92902 0.85513   1
   1   4   1 7.73132 0.86667  12
   1   4   1 5.80389 0.74745   1
  -2  -4  -1 19.4071 4.88994   8
  -2  -4  -1 19.3179 3.55969   2
  -2  -4  -1 19.6217 1.74459   3
  -2  -4  -1 20.1635 5.41534  14
   2   4   1 20.6359 2.28794  11
   2   4   1 22.3697 2.45041   5
  -3  -4  -1 314.340 32.7797  14
  -3  -4  -1 302.939 29.6926   8
   3   4   1 361.603 23.9604  11
   3   4   1 348.120 25.1076   5
   4   4   1 101.600 8.36839  11
   4   4   1 106.065 10.6078  26
   4   4   1 96.6454 8.72287   5
   5   4   1 93.0785 7.49315  16
   5   4   1 90.0960 10.0037  26
   6   4   1 124.215 9.29043  16
   6   4   1 116.863 12.1537  26
   7   4   1 2.37519 1.58292  21
   7   4   1 1.80423 0.89704  17
   7   4   1 2.39105 0.97205  16
   7   4   1 2.55417 1.45301  26
   9  -5  -1 3.71427 1.79345  21
   9  -5  -1 1.62627 1.96046  20
   8  -5  -1 16.4259 3.36301  21
   8  -5  -1 10.4653 2.57505  19
   8  -5  -1 18.6836 3.55037  20
   7  -5  -1 20.2858 3.07875  18
   7  -5  -1 9.71605 3.81578  21
   7  -5  -1 20.3656 3.18537  19
   7  -5  -1 20.1252 3.85770  20
   6  -5  -1 318.930 24.8824  18
   6  -5  -1 318.306 24.1730  19
   6  -5  -1 284.599 27.5360  21
   6  -5  -1 261.617 30.4330  20
   6  -5  -1 272.980 21.9151  25
   5  -5  -1 2.16679 1.52792   4
   5  -5  -1 1.37557 2.09512  19
   5  -5  -1 0.76974 1.58242  25
   5  -5  -1 0.17302 1.96126  13
   5  -5  -1 2.62111 2.09461  18
   5  -5  -1 1.09931 1.49014  10
   5  -5  -1 1.93900 2.83314  20
   5  -5  -1 1.42795 2.06037   7
   5  -5  -1 -1.2295 2.74718  21
   4  -5  -1 304.096 22.6501   4
   4  -5  -1 296.758 23.2874  13
   4  -5  -1 286.753 22.6077   7
   4  -5  -1 306.419 23.6076  10
   3  -5  -1 2.48196 1.61510  13
   3  -5  -1 1.24598 1.49525   7
   3  -5  -1 2.78664 1.19620  10
   3  -5  -1 2.74650 1.12706   4
   2  -5  -1 51.0577 3.81322   1
   2  -5  -1 57.3603 3.67410   3
   2  -5  -1 50.0059 3.80582   1
   2  -5  -1 60.7739 6.23184   8
   2  -5  -1 61.5078 6.93030  14
   2  -5  -1 54.2840 4.46042   2
   2  -5  -1 63.5580 4.54681   4
   2  -5  -1 55.6866 4.51721   2
   2  -5  -1 64.7414 4.74362  10
   2  -5  -1 61.4755 5.53633   7
   2  -5  -1 55.9126 3.67774   3
   2  -5  -1 61.4822 5.63517  13
  -2   5   1 51.9201 3.82794   1
  -2   5   1 49.5613 3.80815   1
   1  -5  -1 305.862 20.1815   3
   1  -5  -1 298.168 20.9069   1
   1  -5  -1 305.455 26.4993   8
   1  -5  -1 305.239 22.5374   7
   1  -5  -1 317.078 24.1665   2
   1  -5  -1 306.114 24.3573   2
   1  -5  -1 323.217 20.9627   1
   1  -5  -1 317.798 23.1854  13
   1  -5  -1 270.399 23.3234  10
   1  -5  -1 299.003 29.2121  14
   1  -5  -1 276.100 22.3839   4
  -1   5   1 299.019 20.9153   1
   0  -5  -1 5.46068 4.13637  14
   0  -5  -1 5.45857 2.22940   2
   0  -5  -1 4.60130 0.75138   1
   0  -5  -1 5.34181 0.64090   3
   0  -5  -1 4.02744 3.63154   8
   0   5   1 4.87915 0.69500  12
   0   5   1 4.83115 0.68702   6
  -1  -5  -1 17.5408 4.92036   8
  -1  -5  -1 12.5348 1.25136   3
  -1  -5  -1 16.9770 3.41394   2
  -1  -5  -1 13.9363 5.25981  14
   1   5   1 13.9935 1.24401  12
   1   5   1 13.4560 1.17588   6
  -2  -5  -1 7.72687 4.75776  14
  -2  -5  -1 9.29152 3.28752   2
  -2  -5  -1 8.75062 4.36454   8
  -2  -5  -1 11.6406 1.29333   3
   2   5   1 13.7248 1.98473  11
   2   5   1 14.4213 2.16217   5
  -3  -5  -1 39.2299 6.90730   8
  -3  -5  -1 38.9617 5.68469  26
  -3  -5  -1 32.3797 7.33328  14
   3   5   1 33.5534 3.63126  11
   3   5   1 35.8969 3.85743   5
   3   5   1 34.9777 4.74787  26
  -4  -5  -1 3.42609 4.71811  26
   4   5   1 2.43970 3.08625  26
   5   5   1 0.40062 3.08754  26
   6   5   1 14.3788 2.50887  16
   6   5   1 16.6408 3.01619  26
   7   5   1 3.34586 1.36818  21
   7   5   1 2.25857 0.79929  16
   7   5   1 2.11918 1.17341  26
   9  -6  -1 4.18918 1.86054  21
   9  -6  -1 2.41400 1.82386  20
   8  -6  -1 0.49418 1.78066  19
   8  -6  -1 0.82745 2.16600  21
   8  -6  -1 1.57444 3.10675  20
   7  -6  -1 241.699 20.6477  19
   7  -6  -1 238.251 26.1488  20
   7  -6  -1 267.033 21.5254  18
   7  -6  -1 243.362 23.6423  21
   6  -6  -1 42.1755 7.02330  20
   6  -6  -1 52.0134 5.71723  18
   6  -6  -1 43.4297 5.49575  19
   6  -6  -1 47.6707 4.51793  25
   6  -6  -1 41.7881 6.74339  21
   6  -6  -1 45.1134 6.59605  22
   5  -6  -1 10.3976 3.10703  13
   5  -6  -1 12.8719 3.23350   7
   5  -6  -1 14.6276 3.79734  22
   5  -6  -1 11.6951 3.66711  21
   5  -6  -1 16.6006 2.28014  25
   5  -6  -1 15.7776 3.08440  24
   5  -6  -1 12.9396 3.82887  20
   5  -6  -1 18.2966 2.82023  18
   5  -6  -1 9.23799 3.18945  23
   5  -6  -1 15.6614 2.80695  19
   4  -6  -1 19.1131 2.46648  10
   4  -6  -1 18.5807 3.57882   7
   4  -6  -1 18.9147 2.49449   4
   4  -6  -1 17.4540 3.52454  13
   3  -6  -1 -0.1782 0.89745  10
   3  -6  -1 0.15455 2.14998  13
   3  -6  -1 0.15037 2.35460   8
   3  -6  -1 0.51827 2.17036   7
   3  -6  -1 -0.0787 2.50307  14
   3  -6  -1 -0.2788 0.86088   4
   2  -6  -1 40.4781 3.45861  10
   2  -6  -1 38.8226 4.68585   7
   2  -6  -1 36.4539 2.56461   3
   2  -6  -1 38.6707 3.39974   2
   2  -6  -1 36.6564 5.20341   8
   2  -6  -1 43.5623 4.80343  13
   2  -6  -1 35.4757 3.25276   2
   2  -6  -1 37.9024 5.83868  14
   2  -6  -1 36.9016 2.56151   3
   2  -6  -1 38.4055 3.30095   4
   1  -6  -1 118.254 9.87267   2
   1  -6  -1 106.253 7.69834   3
   1  -6  -1 127.997 11.7495   8
   1  -6  -1 120.657 12.9070  14
   0  -6  -1 0.26351 0.34827   3
   0  -6  -1 0.30264 3.46216   8
   0  -6  -1 0.16035 1.93216   2
   0  -6  -1 1.69388 4.09653  14
  -1  -6  -1 72.7842 9.86504  14
  -1  -6  -1 70.9975 8.85518   8
  -1  -6  -1 67.9583 7.20056   2
  -1  -6  -1 67.5902 4.91591   3
  -2  -6  -1 39.2175 8.41277  14
  -2  -6  -1 46.0508 6.11816  26
  -2  -6  -1 45.8500 6.57816   2
  -2  -6  -1 42.6406 7.77286   8
  -2  -6  -1 42.7046 3.37760   3
  -3  -6  -1 46.1315 8.16755   8
  -3  -6  -1 43.9522 9.08098  14
  -3  -6  -1 45.2120 7.03360  26
   3   6   1 40.4787 5.86136  26
  -4  -6  -1 1.70354 3.39875  26
   4   6   1 3.27040 2.50540  26
  -5  -6  -1 45.9110 6.84841  26
   5   6   1 45.5408 5.91870  26
   6   6   1 58.4015 4.82601  16
   6   6   1 50.3983 5.62368  21
   6   6   1 53.4567 6.44112  26
   9  -7  -1 8.37650 2.13516  20
   8  -7  -1 5.49085 2.46592  20
   8  -7  -1 3.00903 1.85199  19
   8  -7  -1 0.84357 3.07324  21
   7  -7  -1 28.7536 4.94687  21
   7  -7  -1 28.7615 4.73530  20
   7  -7  -1 20.1504 3.45880  18
   7  -7  -1 24.1275 3.78974  19
   6  -7  -1 12.1670 2.83423  18
   6  -7  -1 5.74446 3.68473  22
   6  -7  -1 8.77516 3.97487  20
   6  -7  -1 7.84027 3.73185  21
   6  -7  -1 9.36985 2.04625  25
   6  -7  -1 8.78078 2.85398  19
   5  -7  -1 199.966 15.5473   7
   5  -7  -1 180.931 18.0010  22
   5  -7  -1 203.245 14.3801  25
   5  -7  -1 201.324 15.9962  24
   5  -7  -1 175.775 15.8455  19
   5  -7  -1 151.028 20.1295  20
   5  -7  -1 155.618 18.2168  21
   5  -7  -1 215.650 16.1301  13
   5  -7  -1 181.576 18.5120  23
   5  -7  -1 215.727 16.3745  18
   4  -7  -1 3.44424 3.34983  23
   4  -7  -1 6.97677 3.69485  22
   4  -7  -1 0.76084 3.13830  21
   4  -7  -1 5.86512 2.38931  24
   4  -7  -1 4.39688 3.06659  20
   4  -7  -1 4.57087 1.93499  25
   4  -7  -1 4.54927 2.66140  13
   4  -7  -1 1.66585 2.52691   7
   3  -7  -1 50.5865 5.90573  13
   3  -7  -1 44.1240 6.30404   8
   3  -7  -1 52.2276 5.88972   7
   3  -7  -1 49.1604 7.10528  14
   2  -7  -1 477.010 40.8730   8
   2  -7  -1 440.206 31.2183   3
   2  -7  -1 497.765 45.1688  14
   2  -7  -1 475.093 37.1823   2
   1  -7  -1 13.8993 4.63065   8
   1  -7  -1 9.41848 4.75992  14
   1  -7  -1 6.93434 1.99343   2
   0  -7  -1 4.76232 3.43810   8
   0  -7  -1 3.19029 2.96155  26
   0  -7  -1 2.67156 0.54591   3
   0  -7  -1 2.90604 2.38110   2
   0  -7  -1 5.96813 4.01771  14
  -1  -7  -1 38.2178 8.52291  14
  -1  -7  -1 30.4325 3.45857  17
  -1  -7  -1 33.7689 4.52909  24
  -1  -7  -1 36.8989 2.84545   3
  -1  -7  -1 38.1586 5.72963   2
  -1  -7  -1 42.1500 4.62911  16
  -1  -7  -1 38.8754 5.85829  26
  -1  -7  -1 43.1315 7.86293   8
  -2  -7  -1 107.106 10.9309   2
  -2  -7  -1 116.343 11.7877  26
  -2  -7  -1 105.689 13.6245  14
  -2  -7  -1 98.0018 7.24505   3
  -2  -7  -1 108.910 12.3258   8
  -2  -7  -1 83.4856 8.84507  16
  -3  -7  -1 79.8618 10.5709  26
   3   7   1 74.9208 9.16666  26
  -4  -7  -1 126.458 14.4456  26
   4   7   1 132.819 13.5298  26
  -5  -7  -1 23.4244 4.40533  26
   5   7   1 23.1965 3.84336  26
   6   7   1 9.10150 2.03093  26
   6   7   1 10.1771 2.00052  21
   9  -8  -1 11.7972 2.29626  20
   8  -8  -1 10.6585 2.75702  21
   8  -8  -1 7.14601 2.57719  20
   8  -8  -1 10.6049 2.15056  19
   7  -8  -1 14.4346 4.11257  21
   7  -8  -1 12.1252 2.98463  19
   7  -8  -1 14.2710 3.78957  22
   7  -8  -1 8.98998 3.82923  20
   6  -8  -1 23.9739 5.19433  21
   6  -8  -1 28.4290 4.99448  20
   6  -8  -1 25.9827 5.09444  22
   6  -8  -1 22.1401 3.80838  19
   6  -8  -1 42.9805 5.39646  23
   6  -8  -1 31.0166 4.21364  18
   5  -8  -1 49.0700 8.12900  20
   5  -8  -1 77.4982 8.90806  22
   5  -8  -1 76.0267 6.60763  24
   5  -8  -1 62.4555 6.75994  19
   5  -8  -1 62.2615 8.37576  21
   5  -8  -1 69.8857 5.84060  25
   5  -8  -1 69.8861 8.72300  23
   5  -8  -1 73.0528 7.31645  13
   5  -8  -1 71.4218 7.14801   7
   4  -8  -1 53.2121 5.59620  24
   4  -8  -1 35.2844 6.35492  20
   4  -8  -1 40.3787 6.42150  21
   4  -8  -1 45.7173 4.59802  25
   4  -8  -1 39.6215 5.91293   7
   4  -8  -1 56.1134 7.57273  22
   4  -8  -1 39.8624 5.89118  13
   4  -8  -1 53.4289 7.37141  23
   3  -8  -1 55.7989 6.34857  23
   3  -8  -1 29.7741 6.11698   8
   3  -8  -1 35.5162 4.28832  25
   3  -8  -1 47.1192 6.29942  22
   3  -8  -1 35.9456 7.12566  14
   3  -8  -1 36.2171 2.97151  17
   3  -8  -1 38.2195 5.48702  21
   3  -8  -1 36.0432 5.42117   7
   3  -8  -1 42.2325 5.15917  24
   3  -8  -1 31.6713 5.41983  13
   2  -8  -1 0.38099 3.88488  14
   2  -8  -1 2.76118 1.08822   2
   2  -8  -1 9.00013 4.27770  22
   2  -8  -1 2.95383 0.94888  16
   2  -8  -1 3.90251 3.73757   8
   2  -8  -1 6.23930 3.56983  23
   2  -8  -1 3.52204 0.38268   3
   2  -8  -1 3.04566 2.11660  25
   2  -8  -1 3.99572 1.22117  17
   2  -8  -1 4.28102 2.80334  24
   1  -8  -1 17.8176 4.08599  23
   1  -8  -1 19.9017 4.71005  22
   1  -8  -1 16.9629 3.02796  25
   1  -8  -1 15.8604 6.09582  14
   1  -8  -1 23.6870 3.66869  24
   1  -8  -1 21.4464 2.38388  17
   1  -8  -1 17.1983 2.88314   2
   1  -8  -1 17.0885 1.46015   3
   1  -8  -1 18.9674 2.47221  16
   1  -8  -1 17.6553 3.38686  26
   1  -8  -1 13.9228 5.33590   8
   0  -8  -1 69.6702 7.26384  24
   0  -8  -1 78.5400 10.2359  14
   0  -8  -1 71.2633 7.51076   2
   0  -8  -1 79.6954 9.24189   8
   0  -8  -1 64.0813 5.69794  17
   0  -8  -1 63.9464 8.13696  26
   0  -8  -1 66.3003 6.29830  16
  -1  -8  -1 1.52357 2.89424  16
  -1  -8  -1 2.55914 5.73350  14
  -1  -8  -1 1.39260 1.49909  17
  -1  -8  -1 0.65103 3.68313  26
  -1  -8  -1 2.67056 2.80898  24
  -1  -8  -1 -0.2797 2.70511   2
  -1  -8  -1 0.98643 0.59793   3
  -1  -8  -1 1.78708 4.94765   8
  -2  -8  -1 10.6991 6.29394  14
  -2  -8  -1 12.0835 6.10943   8
  -2  -8  -1 8.35048 2.83316  16
  -2  -8  -1 11.6105 5.06585  26
  -3  -8  -1 78.0049 10.4537  26
  -4  -8  -1 6.48696 3.47535  26
   4   8   1 9.11146 2.91628  26
  -5  -8  -1 12.7838 2.87471  26
   5   8   1 11.3890 2.57073  26
   8  -9  -1 19.0686 3.43709  20
   8  -9  -1 18.3418 3.12491  21
   7  -9  -1 1.12592 2.32897  22
   7  -9  -1 0.98787 3.36946  20
   7  -9  -1 0.38485 2.25195  19
   7  -9  -1 -0.2403 3.18409  21
   6  -9  -1 22.1010 4.94274  21
   6  -9  -1 34.6004 5.38979  23
   6  -9  -1 42.2828 5.29719  22
   6  -9  -1 28.2339 3.66023  19
   6  -9  -1 36.6671 4.33341  24
   6  -9  -1 19.9774 5.14399  20
   5  -9  -1 6.85636 3.64570  20
   5  -9  -1 7.38344 3.04084  24
   5  -9  -1 9.07554 2.99024  21
   5  -9  -1 9.70355 4.73766  22
   5  -9  -1 11.1112 4.20271  23
   4  -9  -1 69.3408 6.29946  25
   4  -9  -1 66.2807 9.61114  22
   4  -9  -1 75.8232 9.57061  23
   4  -9  -1 75.4397 7.60396  24
   4  -9  -1 69.0617 8.61952  21
   3  -9  -1 27.9991 2.55309  17
   3  -9  -1 33.8953 7.17552   8
   3  -9  -1 36.6835 4.15518  24
   3  -9  -1 41.9462 5.54534  22
   3  -9  -1 27.0435 3.53390  25
   3  -9  -1 34.6728 7.73574  14
   3  -9  -1 38.1850 6.00035  23
   2  -9  -1 2.86185 0.88783   2
   2  -9  -1 8.21126 1.46562  17
   2  -9  -1 4.51236 3.87181  23
   2  -9  -1 9.29405 4.43799  22
   2  -9  -1 7.69244 3.00915  24
   2  -9  -1 6.23039 2.30551  25
   2  -9  -1 6.26032 0.90157  16
   2  -9  -1 7.59104 5.44753  14
   2  -9  -1 5.26286 0.45934   3
   2  -9  -1 10.0285 5.09853   8
   1  -9  -1 107.151 9.37323  25
   1  -9  -1 104.270 12.7544   8
   1  -9  -1 100.418 13.9808  14
   1  -9  -1 126.670 8.28337  17
   1  -9  -1 106.556 10.8123  26
   1  -9  -1 117.214 8.39093  16
   1  -9  -1 113.687 12.1702  23
   1  -9  -1 118.081 10.4904  24
   1  -9  -1 103.342 7.57757   3
   1  -9  -1 104.140 9.96713   2
   0  -9  -1 72.3888 7.62241  24
   0  -9  -1 74.3327 5.95792  17
   0  -9  -1 75.9324 10.3120   8
   0  -9  -1 69.3718 7.68162   2
   0  -9  -1 67.1813 6.85168  25
   0  -9  -1 72.6219 6.53865  16
   0  -9  -1 63.9201 8.35872  26
   0  -9  -1 65.2461 12.3175  14
  -1  -9  -1 0.35133 2.78764  24
  -1  -9  -1 -0.4612 2.18999  17
  -1  -9  -1 0.93884 3.85067  26
  -1  -9  -1 0.53666 2.99455  16
  -2  -9  -1 74.5222 8.97105  26
  -2  -9  -1 76.5143 6.87573  16
  -3  -9  -1 5.39475 3.29355  16
  -3  -9  -1 9.07222 4.41097  26
  -4  -9  -1 10.3196 2.27289  16
  -4  -9  -1 10.0388 3.00839  26
   4   9   1 5.50563 2.54360  26
   8 -10  -1 12.0989 2.56493  21
   7 -10  -1 -1.4119 3.19904  22
   7 -10  -1 0.51020 1.87062  21
   6 -10  -1 17.6464 3.94234  22
   6 -10  -1 15.1001 2.83579  24
   6 -10  -1 19.0159 3.74307  23
   6 -10  -1 13.8638 3.21558  21
   5 -10  -1 82.0933 9.84462  21
   5 -10  -1 92.6016 8.71688  24
   5 -10  -1 101.425 11.2142  22
   5 -10  -1 102.127 10.6128  23
   4 -10  -1 12.0376 4.08342  22
   4 -10  -1 13.3621 2.46028  25
   4 -10  -1 13.0784 4.68502  23
   4 -10  -1 14.5959 2.94200  24
   3 -10  -1 39.7507 3.20139  17
   3 -10  -1 43.4234 5.88874  24
   3 -10  -1 40.2021 4.58769  25
   3 -10  -1 49.2859 6.83514  23
   3 -10  -1 45.9465 7.25850  22
   2 -10  -1 172.688 13.1854  25
   2 -10  -1 178.351 17.6692  23
   2 -10  -1 142.973 17.3569   8
   2 -10  -1 190.714 15.0537  24
   2 -10  -1 161.932 11.8214  17
   2 -10  -1 145.564 19.2428  14
   1 -10  -1 75.9895 5.54075  17
   1 -10  -1 66.5994 6.40696  25
   1 -10  -1 85.6066 7.56947  24
   1 -10  -1 60.6235 6.93431  26
   1 -10  -1 67.1874 5.33683  16
   1 -10  -1 30.9425 10.1973  14
   1 -10  -1 63.1970 8.98455  23
   0 -10  -1 6.76499 2.49810  16
   0 -10  -1 4.71789 2.77338  25
   0 -10  -1 6.90337 2.17798  17
   0 -10  -1 8.92279 2.50987  24
   0 -10  -1 5.23130 3.14145  26
  -1 -10  -1 9.78837 2.43796  17
  -1 -10  -1 6.42113 2.89072  26
  -1 -10  -1 9.30686 2.41195  25
  -1 -10  -1 10.0256 2.39350  16
  -1 -10  -1 10.9880 3.02951  24
  -2 -10  -1 7.20894 2.86010  16
  -2 -10  -1 5.39705 2.13312  25
  -2 -10  -1 2.99087 3.65328  26
  -3 -10  -1 9.96355 2.10876  16
  -3 -10  -1 8.37941 2.91733  26
  -3 -10  -1 10.0220 2.08831  25
  -4 -10  -1 20.8802 2.47177  25
   7 -11  -1 0.78522 2.54230  23
   7 -11  -1 1.33576 2.05542  22
   6 -11  -1 4.91996 2.71201  24
   6 -11  -1 4.67182 2.63399  23
   6 -11  -1 3.82453 2.93236  22
   5 -11  -1 51.7867 6.92642  22
   5 -11  -1 47.0444 6.84388  23
   5 -11  -1 47.0155 5.29395  24
   4 -11  -1 27.6656 4.65566  24
   4 -11  -1 45.3137 5.91431  23
   4 -11  -1 34.9292 6.45870  22
   3 -11  -1 52.8641 7.45286  23
   3 -11  -1 52.1145 5.04474  25
   3 -11  -1 52.0938 5.76003  24
   3 -11  -1 52.8206 3.80047  17
   2 -11  -1 60.5500 5.61161  25
   2 -11  -1 54.4106 6.87587  24
   2 -11  -1 59.5927 4.56183  17
   2 -11  -1 55.7070 8.77073  23
   1 -11  -1 17.3493 3.03906  25
   1 -11  -1 27.0033 2.49426  17
   1 -11  -1 26.0793 3.51300  24
   1 -11  -1 21.6092 2.00316  16
   0 -11  -1 69.2614 8.60316  26
   0 -11  -1 88.6622 8.08204  24
   0 -11  -1 91.5879 6.72524  16
   0 -11  -1 86.4910 7.67178  25
   0 -11  -1 95.9795 6.80783  17
  -1 -11  -1 6.40539 2.09694  16
  -1 -11  -1 12.7977 2.18006  25
  -1 -11  -1 3.79078 2.61037  26
  -1 -11  -1 9.26980 2.18256  17
  -2 -11  -1 162.881 11.9125  25
  -2 -11  -1 139.189 10.6334  17
  -2 -11  -1 157.388 10.9534  16
  -2 -11  -1 142.490 14.0506  26
  -3 -11  -1 87.9526 6.80500  16
  -3 -11  -1 93.8452 7.26292  25
   6 -12  -1 96.8066 8.57501  24
   6 -12  -1 98.1117 10.2393  23
   5 -12  -1 1.09974 1.80346  24
   5 -12  -1 1.10479 3.71593  23
   4 -12  -1 -0.4659 3.98589  23
   4 -12  -1 -0.4562 1.89486  24
   3 -12  -1 1.38782 2.78715  23
   3 -12  -1 1.57962 2.09021  24
   2 -12  -1 59.5691 5.47372  25
   2 -12  -1 61.0770 4.47310  17
   2 -12  -1 63.2032 6.26450  24
   2 -12  -1 58.2010 7.34171  23
   1 -12  -1 5.95651 2.15679  24
   1 -12  -1 5.28350 1.48098  25
   1 -12  -1 5.52954 1.46322  17
   0 -12  -1 70.2844 6.27234  24
   0 -12  -1 72.0650 5.98844  25
   0 -12  -1 59.7432 4.96956  17
  -1 -12  -1 49.1996 4.57119  25
  -1 -12  -1 46.5526 3.48949  16
  -1 -12  -1 48.7665 3.79191  17
   5 -13  -1 27.0462 3.64810  24
   5 -13  -1 24.2747 3.85959  23
   4 -13  -1 139.609 11.5804  24
   4 -13  -1 122.889 13.2831  23
   3 -13  -1 22.8298 3.05144  24
   3 -13  -1 21.1030 3.65459  23
   2 -13  -1 6.26304 2.09845  24
   1 -13  -1 73.1276 5.23559  17
   1 -13  -1 74.3792 6.72289  24
   0 -13  -1 14.1043 1.54668  17
   3 -14  -1 10.8254 1.86003  24
   0 -13   2 152.646 12.9028  24
   1 -13   2 82.0518 7.51834  24
   2 -13   2 1.40407 2.77885  23
   2 -13   2 0.25045 1.80308  24
   3 -13   2 10.0246 4.02740  23
   3 -13   2 13.9454 2.37009  24
   4 -13   2 2.50652 1.80407  24
   4 -13   2 -0.0826 2.45650  23
   5 -13   2 142.347 14.2806  23
  -1 -12   2 0.63436 1.74019  24
  -1 -12   2 1.14158 1.19871  17
   0 -12   2 0.73249 1.63537  17
   0 -12   2 -0.4601 2.71786  24
   1 -12   2 4.74301 1.53763  17
   1 -12   2 8.53255 2.40639  24
   2 -12   2 36.3399 2.92649  17
   2 -12   2 43.0444 4.54562  24
   2 -12   2 25.1337 5.28284  23
   3 -12   2 52.1669 7.94156  23
   3 -12   2 51.9280 5.35112  24
   3 -12   2 45.2830 6.64025  22
   4 -12   2 18.4532 3.35542  24
   4 -12   2 31.3909 4.79570  22
   4 -12   2 32.4742 4.65585  23
   5 -12   2 191.692 18.4036  22
   5 -12   2 198.412 19.0798  23
   6 -12   2 62.2916 7.01829  22
   6 -12   2 67.4688 7.50287  23
  -3 -11   2 46.7767 4.15464  16
  -3 -11   2 47.8323 5.50058  26
  -2 -11   2 3.92371 2.05901  17
  -2 -11   2 4.21081 2.53784  24
  -2 -11   2 5.18783 3.32361  26
  -2 -11   2 3.46353 2.53710  16
  -1 -11   2 32.7313 4.53878  26
  -1 -11   2 30.6583 4.21208  24
  -1 -11   2 31.1318 3.27787  17
  -1 -11   2 30.3853 3.54342  16
   0 -11   2 6.14149 2.73841  26
   0 -11   2 5.22540 2.01772  16
   0 -11   2 3.26969 2.15258  17
   0 -11   2 7.39224 3.41111  24
   1 -11   2 116.634 8.70743  17
   1 -11   2 116.146 12.8338  23
   1 -11   2 120.324 10.7569  24
   2 -11   2 135.909 15.1430  22
   2 -11   2 140.362 10.3842  17
   2 -11   2 148.075 15.6816  23
   2 -11   2 165.890 13.4036  24
   3 -11   2 62.9136 6.73116  24
   3 -11   2 68.4864 4.88805  17
   3 -11   2 65.9713 8.43656  22
   3 -11   2 73.6649 8.50708  23
   4 -11   2 1.98660 2.71474  24
   4 -11   2 2.86287 2.94226  23
   4 -11   2 0.79178 3.31760  22
   5 -11   2 9.92551 3.67139  22
   5 -11   2 9.73229 3.29092  23
   6 -11   2 8.53779 4.16990  22
   6 -11   2 18.0021 3.31651  23
   6 -11   2 18.7418 3.28994  21
   7 -11   2 20.1055 3.14484  22
  -4 -10   2 2.10234 1.75554  25
  -4 -10   2 1.38052 2.40425  26
  -4 -10   2 0.97403 1.78672  16
  -3 -10   2 7.57456 3.37255  26
  -3 -10   2 8.96970 2.54588  16
  -2 -10   2 -0.6217 2.85452  26
  -2 -10   2 -0.6115 2.09648  24
  -2 -10   2 0.33502 2.17965  16
  -1 -10   2 63.6320 6.68189  25
  -1 -10   2 79.0639 8.54914  26
  -1 -10   2 85.6505 7.69308  24
  -1 -10   2 77.4136 6.66701  16
  -1 -10   2 77.4689 6.57050  17
   0 -10   2 111.001 9.33813  16
   0 -10   2 110.158 11.9661  26
   0 -10   2 122.124 11.3372  24
   0 -10   2 129.370 9.09507  17
   1 -10   2 3.17404 2.20909  26
   1 -10   2 3.62770 3.30512  24
   1 -10   2 2.32732 3.87321  23
   1 -10   2 3.48915 5.62897  14
   1 -10   2 6.84173 5.16868   8
   1 -10   2 2.52592 1.79129  17
   1 -10   2 2.45129 1.68671  16
   1 -10   2 1.62993 3.97200  22
   2 -10   2 76.0092 5.96303  17
   2 -10   2 79.9052 10.3041  22
   2 -10   2 78.3310 7.72090  24
   2 -10   2 81.4095 9.22959  23
   3 -10   2 49.7400 7.15564  22
   3 -10   2 53.1981 7.02632  23
   3 -10   2 45.8478 5.49404  24
   3 -10   2 49.7379 3.86095  17
   4 -10   2 14.8163 3.42079  24
   4 -10   2 35.2286 5.13503  22
   4 -10   2 16.7069 4.57532  21
   5 -10   2 14.1989 4.31888  21
   5 -10   2 8.92675 4.11117  23
   5 -10   2 7.97840 4.75376  22
   6 -10   2 19.3421 4.47762  23
   6 -10   2 25.6964 4.36522  21
   6 -10   2 30.5044 4.66373  22
   7 -10   2 -0.2473 2.26957  22
   7 -10   2 -0.8016 2.79405  21
   5   9  -2 13.0902 2.59903  26
  -5  -9   2 17.2211 3.23271  26
   4   9  -2 39.9339 5.46937  26
  -4  -9   2 46.9361 6.40031  26
  -3  -9   2 3.33878 3.47994  26
  -3  -9   2 5.39010 3.02409  24
  -3  -9   2 0.86127 2.75531  16
  -2  -9   2 199.612 17.8337  24
  -2  -9   2 203.574 15.6270  16
  -2  -9   2 224.598 20.1125  26
  -1  -9   2 5.87089 2.37452  16
  -1  -9   2 8.35524 3.69664  24
  -1  -9   2 9.62167 5.20719  14
  -1  -9   2 9.36143 3.17578  26
  -1  -9   2 9.68801 2.65928  17
  -1  -9   2 5.86263 4.51980   8
   0  -9   2 1.61259 3.42081  24
   0  -9   2 1.88854 2.70814   2
   0  -9   2 -1.1494 4.20102   8
   0  -9   2 2.13246 0.54419   3
   0  -9   2 1.93562 2.37011  16
   0  -9   2 3.55112 2.08061  17
   0  -9   2 3.24659 5.02786  14
   0  -9   2 4.11831 3.11670  26
   1  -9   2 7.88618 4.97020   8
   1  -9   2 12.9642 5.83253  14
   1  -9   2 9.57026 2.62976   2
   1  -9   2 15.8884 1.33820   3
   1  -9   2 17.3948 2.37540  16
   1  -9   2 23.9892 2.48297  17
   1  -9   2 16.0214 3.08476  26
   1  -9   2 22.1066 3.97238  24
   1  -9   2 19.4395 4.32924  23
   1  -9   2 22.1203 4.94817  22
   2  -9   2 37.7845 2.72728   3
   2  -9   2 46.6946 6.54108  22
   2  -9   2 54.6812 9.03790  14
   2  -9   2 33.8171 5.77507  13
   2  -9   2 40.9467 3.43656  17
   2  -9   2 47.6459 6.33389  23
   2  -9   2 36.9858 3.74745   2
   2  -9   2 51.4648 7.87740   8
   2  -9   2 40.7094 4.86275  24
   2  -9   2 31.7199 5.49615   7
   2  -9   2 40.0755 3.23217  16
   3  -9   2 107.118 10.5670  24
   3  -9   2 110.839 12.0602  23
   3  -9   2 111.131 8.00324  17
   3  -9   2 116.374 10.7611   7
   3  -9   2 121.704 12.3432  21
   3  -9   2 112.376 12.4972  22
   3  -9   2 116.234 11.0277  13
   4  -9   2 1.55795 4.38269  22
   4  -9   2 1.82778 3.91233  23
   4  -9   2 -0.5702 3.07268   7
   4  -9   2 3.27615 3.09120  13
   4  -9   2 2.73473 3.89114  21
   4  -9   2 4.05683 2.69805  24
   5  -9   2 440.703 36.1730  23
   5  -9   2 389.930 34.6625  22
   5  -9   2 337.382 39.3301  20
   5  -9   2 346.674 35.5459  21
   6  -9   2 4.84219 3.66684  20
   6  -9   2 11.6124 3.45763  21
   6  -9   2 6.95959 4.32075  22
   6  -9   2 12.3083 3.71028  23
   7  -9   2 60.8369 7.68154  21
   7  -9   2 58.6500 7.64119  20
   7  -9   2 74.0613 7.28710  22
   8  -9   2 0.65288 1.59253  21
   5   8  -2 65.3098 7.43145  26
  -5  -8   2 55.0346 8.70439  26
   4   8  -2 59.5572 8.03072  26
  -4  -8   2 67.3749 9.61012  26
  -3  -8   2 50.0105 7.19435  26
  -3  -8   2 45.2115 5.65631  24
  -2  -8   2 69.9141 6.83407  16
  -2  -8   2 68.8680 8.63385  26
  -2  -8   2 59.1415 8.27271   2
  -2  -8   2 44.4081 10.4899  14
  -2  -8   2 47.5415 9.51406   8
  -2  -8   2 49.8917 4.12628   3
  -1  -8   2 38.2204 3.14128   3
  -1  -8   2 38.2625 8.41457   8
  -1  -8   2 44.9686 6.61234   2
  -1  -8   2 53.3878 6.48218  26
  -1  -8   2 47.0819 5.04118  16
  -1  -8   2 36.8210 4.41571  17
  -1  -8   2 46.6099 9.91760  14
   0  -8   2 34.1019 4.84853  24
   0  -8   2 29.1008 5.05682  23
   0  -8   2 32.1116 8.08381  14
   0  -8   2 40.7327 5.38019   2
   0  -8   2 37.3204 3.74221  17
   0  -8   2 42.2142 5.34970  26
   0  -8   2 30.7271 7.21306   8
   0  -8   2 35.5126 2.72136   3
   0  -8   2 41.7054 4.20836  16
   1  -8   2 70.4103 7.33671  26
   1  -8   2 55.2491 7.26735  24
   1  -8   2 70.6363 8.51134  23
   1  -8   2 74.9197 7.17375   7
   1  -8   2 73.8948 7.27159  13
   1  -8   2 69.6344 9.93412  14
   1  -8   2 67.2097 4.72059   3
   1  -8   2 64.4293 5.67812  16
   1  -8   2 64.4053 5.33112  17
   1  -8   2 66.8156 8.92743   8
   1  -8   2 65.0709 8.49179  22
   1  -8   2 75.6827 6.95599   2
   2  -8   2 96.4814 11.9896  14
   2  -8   2 102.154 9.43220  24
   2  -8   2 97.3840 10.6825  21
   2  -8   2 108.844 11.1497   8
   2  -8   2 98.7274 8.50882   2
   2  -8   2 88.4530 10.7400  22
   2  -8   2 96.3017 7.18747  17
   2  -8   2 110.336 9.73694   7
   2  -8   2 102.961 11.1154  23
   2  -8   2 117.490 10.0493  13
   2  -8   2 100.010 6.67097   3
   2  -8   2 86.4196 7.17238  16
   3  -8   2 32.2488 4.16516  24
   3  -8   2 30.6010 5.36102  22
   3  -8   2 28.7378 4.70022   7
   3  -8   2 31.3813 4.97575  13
   3  -8   2 33.3040 5.14904  23
   3  -8   2 25.9214 2.52635  17
   3  -8   2 22.7465 4.83989  21
   4  -8   2 1.95693 3.74320  23
   4  -8   2 2.45947 3.12917   7
   4  -8   2 -0.7264 3.70932  21
   4  -8   2 2.56394 3.84582  22
   4  -8   2 2.32254 3.05047  13
   4  -8   2 2.09202 0.70097  17
   4  -8   2 4.69173 3.56238  20
   5  -8   2 26.1190 5.27321  22
   5  -8   2 36.8771 5.20066  23
   5  -8   2 27.0271 4.86897  13
   5  -8   2 21.6274 5.30224  20
   5  -8   2 32.4407 5.62035  21
   5  -8   2 28.6270 4.83245   7
   6  -8   2 24.5170 5.09673  22
   6  -8   2 27.5504 5.06221  20
   6  -8   2 37.1572 5.15240  21
   7  -8   2 37.2926 5.19698  22
   7  -8   2 32.8337 5.25649  20
   7  -8   2 41.4119 5.26094  21
   8  -8   2 0.09646 1.91885  21
   8  -8   2 0.68359 1.60239  20
   6   7  -2 96.1499 9.78116  26
   5   7  -2 0.17146 3.04560  26
  -5  -7   2 0.84464 4.92581  26
   4   7  -2 43.2287 5.69807  26
  -4  -7   2 41.4815 6.64246  26
   3   7  -2 -0.0388 1.13292  12
   3   7  -2 0.53604 1.11496   6
   3   7  -2 0.65071 1.93928  26
  -3  -7   2 -1.1689 2.88494  26
  -3  -7   2 -3.6256 4.66693   8
  -3  -7   2 -1.3585 5.51424  14
   2   7  -2 137.028 7.29364  12
   2   7  -2 142.254 7.34519   6
  -2  -7   2 101.836 10.6789  16
  -2  -7   2 133.354 13.0722   2
  -2  -7   2 134.533 13.7336  26
  -2  -7   2 124.508 9.03722   3
   1   7  -2 134.894 7.48069   6
   1   7  -2 139.667 7.50405  12
  -1  -7   2 127.771 9.30278   3
  -1  -7   2 142.539 13.6790  26
  -1  -7   2 126.585 10.6780  16
  -1  -7   2 150.209 13.0531   2
   0   7  -2 3.25543 0.96747   6
   0   7  -2 1.95215 0.95210  12
   0  -7   2 1.21176 2.29702   2
   0  -7   2 2.27528 0.50548   3
   1  -7   2 637.437 49.8959   2
   1  -7   2 691.262 47.1275  13
   1  -7   2 675.720 45.8268   7
   1  -7   2 574.809 59.0894  14
   1  -7   2 589.045 41.4722   3
   1  -7   2 571.281 53.6053   8
   2  -7   2 37.3411 5.05864  13
   2  -7   2 34.0048 2.44861   3
   2  -7   2 37.5390 4.94692   7
   2  -7   2 44.0346 6.87473   8
   2  -7   2 32.9848 3.67695   2
   2  -7   2 38.6278 7.41652  14
   3  -7   2 12.9253 4.08169  22
   3  -7   2 13.1883 1.47543  17
   3  -7   2 15.8229 3.97307  13
   3  -7   2 10.1164 3.79124  21
   3  -7   2 9.51002 3.07402  20
   3  -7   2 15.7175 3.84123  23
   3  -7   2 10.7751 3.71498   7
   4  -7   2 19.1003 4.57885  20
   4  -7   2 28.2587 4.91426   7
   4  -7   2 29.2662 4.61834  23
   4  -7   2 27.7677 4.24821  22
   4  -7   2 19.9179 1.84099  17
   4  -7   2 18.3191 4.43412  21
   4  -7   2 24.2869 4.72281  13
   4  -7   2 17.9560 3.34778  19
   5  -7   2 15.9706 4.49240  20
   5  -7   2 15.6064 4.14180   7
   5  -7   2 22.2466 4.03262  22
   5  -7   2 19.6111 4.60585  21
   5  -7   2 15.9450 4.18599  13
   5  -7   2 19.9186 4.21382  23
   5  -7   2 15.8574 3.37075  19
   6  -7   2 18.1760 3.79384  20
   6  -7   2 16.0414 4.34792  21
   6  -7   2 12.3254 4.31996  22
   7  -7   2 -0.4288 3.21785  21
   7  -7   2 0.88904 2.25073  20
   7  -7   2 -0.2188 3.16888  22
   8  -7   2 0.82534 1.80627  20
   8  -7   2 -0.6110 1.87911  21
   7   6  -2 1.70234 0.80954  16
   7   6  -2 1.14044 1.12517  26
   6   6  -2 2.75385 1.38498  16
   6   6  -2 1.96805 1.99176  26
   5   6  -2 -0.1818 3.02140  26
  -5  -6   2 -0.4401 4.83135  26
   4   6  -2 67.0278 7.23381  26
   4   6  -2 52.9384 5.17449  11
   4   6  -2 56.7134 5.51787   5
  -4  -6   2 62.5557 9.03347  26
  -4  -6   2 38.8661 9.09263   8
  -4  -6   2 35.9707 9.80644  14
   3   6  -2 245.295 21.3003  26
   3   6  -2 222.460 12.3398   6
   3   6  -2 217.200 12.2852  12
  -3  -6   2 240.077 19.4786   9
  -3  -6   2 219.538 22.1155  26
  -3  -6   2 235.139 20.5494  15
   2   6  -2 140.297 7.36727  12
   2   6  -2 138.210 7.38483   6
  -2  -6   2 142.186 12.2870   9
  -2  -6   2 126.529 12.7505   2
  -2  -6   2 122.471 13.5082  26
  -2  -6   2 134.422 12.5852  15
  -2  -6   2 124.652 9.13617   3
   1   6  -2 375.355 20.2326  12
   1   6  -2 389.606 20.3183   6
  -1  -6   2 391.716 32.5759   2
  -1  -6   2 425.699 32.3117  15
  -1  -6   2 375.071 26.4155   3
  -1  -6   2 426.085 30.7621   9
   0  -6   2 53.5874 6.59230  15
   0  -6   2 54.7448 6.14327   9
   0  -6   2 54.9855 5.70329  13
   0  -6   2 55.8438 5.91959   2
   0  -6   2 52.4691 5.55290   7
   0  -6   2 50.9477 3.72423   3
   1  -6   2 0.16941 0.25963   3
   1  -6   2 -0.2814 1.47885   2
   1  -6   2 1.09039 2.25736   7
   1  -6   2 0.56811 2.22678  13
   2  -6   2 12.2117 3.87722  14
   2  -6   2 17.3497 3.63546  13
   2  -6   2 13.0282 2.05503   2
   2  -6   2 12.0059 0.96043   3
   2  -6   2 16.0725 3.54629   7
   2  -6   2 9.37055 3.27834   8
   3  -6   2 56.4335 6.31758   7
   3  -6   2 56.5648 6.51771  13
   4  -6   2 40.7510 3.18000  17
   4  -6   2 38.9481 6.50230  20
   4  -6   2 51.6748 5.96946   7
   4  -6   2 36.6993 5.11539  19
   4  -6   2 55.5508 6.13870  13
   4  -6   2 45.0616 6.31875  23
   4  -6   2 44.4972 6.47606  22
   4  -6   2 41.7197 5.51959  21
   5  -6   2 2.07937 2.05314  13
   5  -6   2 2.42164 2.62275  19
   5  -6   2 5.51415 3.61495  22
   5  -6   2 0.81881 1.99423   7
   5  -6   2 6.45460 3.56275  21
   5  -6   2 3.80140 0.77690  17
   5  -6   2 2.23028 3.46014  20
   6  -6   2 57.5691 6.15799  19
   6  -6   2 62.7013 7.98184  21
   6  -6   2 54.5872 7.73365  20
   6  -6   2 74.6951 8.30209  22
   7  -6   2 16.1477 3.79348  20
   7  -6   2 28.4542 4.15406  22
   7  -6   2 25.8460 4.15111  21
   8  -6   2 0.09166 1.79721  21
   8  -6   2 0.52133 1.77869  20
   7   5  -2 2.54435 1.57936  26
   7   5  -2 4.08461 1.15448  16
   7   5  -2 0.98345 1.97083  21
   6   5  -2 66.4105 5.62255  16
   6   5  -2 72.7096 7.56664  26
   5   5  -2 163.131 18.6296  20
   5   5  -2 193.837 16.9950  26
   4   5  -2 74.2865 7.62408  26
  -4  -5   2 63.9682 7.72965   9
  -4  -5   2 62.3990 8.22278  15
  -4  -5   2 60.3518 9.37331  26
   3   5  -2 83.5566 4.84311  12
   3   5  -2 81.6910 4.83586   6
   3   5  -2 73.7043 7.96897  26
  -3  -5   2 85.6205 9.18361  15
  -3  -5   2 73.6225 8.84508  26
  -3  -5   2 85.5562 8.63295   9
   2   5  -2 60.3351 3.69554  12
   2   5  -2 61.3117 3.69346   6
  -2  -5   2 64.2194 6.90799   9
  -2  -5   2 55.5533 7.01500   2
  -2  -5   2 59.3788 7.39375  15
   1   5  -2 306.509 16.4106   6
   1   5  -2 296.801 16.3433  12
  -1  -5   2 305.011 22.2192   1
  -1  -5   2 367.670 26.2066  15
  -1  -5   2 330.359 26.3891   2
  -1  -5   2 351.217 24.8755   9
  -1  -5   2 300.501 21.3076   3
   0  -5   2 62.2075 5.70638   7
   0  -5   2 62.7634 6.14079   9
   0  -5   2 60.6540 5.81723  13
   0  -5   2 55.7504 4.09071   3
   0  -5   2 54.4996 5.98628   2
   0  -5   2 59.4646 4.39442   1
   0  -5   2 66.3040 6.66687  15
  -1   5  -2 73.6373 5.43009   1
   1  -5   2 79.4835 7.05082   7
   1  -5   2 71.8758 6.91930   2
   1  -5   2 74.6124 6.88737   9
   1  -5   2 82.4551 7.43384  15
   1  -5   2 76.3510 5.19193   3
   1  -5   2 83.2722 7.25891  13
   1  -5   2 75.1986 5.48455   1
  -2   5  -2 151.735 11.2310   1
   2  -5   2 175.140 10.8111   3
   2  -5   2 145.688 14.4679   8
   2  -5   2 177.432 10.8283   3
   2  -5   2 140.928 13.0762   2
   2  -5   2 167.866 13.2439  13
   2  -5   2 159.085 11.2589   1
   2  -5   2 185.953 13.0162   7
   2  -5   2 144.810 15.9512  14
   2  -5   2 156.325 13.2303   2
   3  -5   2 6.17424 2.32125  13
   3  -5   2 7.62061 0.54087   3
   3  -5   2 7.37039 0.54041   3
   3  -5   2 5.29843 0.97645   2
   3  -5   2 6.43062 2.80488   7
   3  -5   2 6.09950 1.06493   2
   4  -5   2 107.600 13.2856  20
   4  -5   2 131.620 10.9358  13
   4  -5   2 111.010 11.9358  21
   4  -5   2 135.779 10.7230   7
   5  -5   2 55.9568 6.32423   7
   5  -5   2 54.7841 6.77985  21
   5  -5   2 48.0556 7.25763  20
   5  -5   2 48.7436 3.77128  17
   5  -5   2 55.8116 6.41928  13
   5  -5   2 46.6030 5.26999  19
   5  -5   2 51.8264 6.91161  22
   6  -5   2 0.54107 2.26849  21
   6  -5   2 0.31545 3.23225  20
   6  -5   2 -0.6173 3.27870  22
   6  -5   2 2.41897 2.07643  19
   6  -5   2 1.24814 0.78901  17
   7  -5   2 0.70447 3.30785  20
   7  -5   2 1.35555 3.25033  22
   7  -5   2 1.56091 2.39189  21
   8  -5   2 26.1586 3.55135  21
   8  -5   2 14.7654 3.10677  20
   7   4  -2 18.4679 2.73778  21
   7   4  -2 11.2041 1.83753  17
   7   4  -2 13.6468 2.81196  26
   6   4  -2 54.4230 4.91434  16
   6   4  -2 50.8300 6.66339  26
   6   4  -2 47.5294 6.56804  20
   5   4  -2 1.79744 2.30199  20
   5   4  -2 3.12574 1.86393  16
   5   4  -2 1.10235 1.46831  11
   5   4  -2 1.37786 1.61669   5
   5   4  -2 1.64265 2.58776  26
   4   4  -2 5.28468 2.10686   2
   4   4  -2 10.0787 2.64343  26
   4   4  -2 7.77832 0.95540   3
  -4  -4   2 7.70830 3.63608   9
  -4  -4   2 8.03153 3.90517  15
   3   4  -2 6.91215 1.25019  12
   3   4  -2 7.61745 1.26282   6
   3   4  -2 6.42286 0.75160   3
   3   4  -2 7.49235 2.02073   2
  -3  -4   2 8.72474 3.57145  15
  -3  -4   2 10.8390 3.37105   9
   2   4  -2 13.7562 1.50453   1
   2   4  -2 16.9802 1.40111  12
   2   4  -2 15.3410 1.33149   3
   2   4  -2 19.1758 2.54258   2
   2   4  -2 16.9224 1.38957   6
  -2  -4   2 21.4820 3.88827   9
  -2  -4   2 20.9235 4.19005  15
  -2  -4   2 14.9830 3.10875   2
  -2  -4   2 15.3631 1.58221   1
   1   4  -2 372.179 24.1807   3
   1   4  -2 349.153 25.1508   1
   1   4  -2 331.957 25.0752   1
   1   4  -2 333.676 28.9930   2
  -1  -4   2 373.180 24.2129   3
  -1  -4   2 365.127 25.0779   1
  -1  -4   2 327.980 29.3478   2
  -1  -4   2 391.275 29.0347  15
  -1  -4   2 396.038 27.7212   9
  -1  -4   2 369.493 27.0880  13
  -1  -4   2 373.212 25.1849   1
  -1  -4   2 357.860 26.3285   7
   0   4  -2 189.414 13.4274   1
   0   4  -2 179.138 15.6061   2
   0   4  -2 172.963 12.8722   3
   0   4  -2 201.733 13.4022   1
   0  -4   2 177.147 13.3480   1
   0  -4   2 198.783 15.1596   9
   0  -4   2 185.161 15.9697   2
   0  -4   2 214.301 15.0359  13
   0  -4   2 213.466 14.6260   7
   0  -4   2 189.183 12.8930   3
   0  -4   2 198.181 15.9084  15
   0  -4   2 202.079 13.4653   1
  -1   4  -2 685.823 46.1695   1
  -1   4  -2 723.544 46.1920   1
   1  -4   2 648.594 53.0660   2
   1  -4   2 697.559 44.5563   3
   1  -4   2 653.899 49.5062   9
   1  -4   2 669.518 49.5957  13
   1  -4   2 645.990 51.8093  15
   1  -4   2 676.608 46.2080   1
   1  -4   2 679.781 44.5684   3
   1  -4   2 625.990 46.1393   1
   1  -4   2 610.828 52.8388   2
   1  -4   2 687.116 48.2277   7
  -2   4  -2 216.740 14.4930   1
   2  -4   2 177.913 17.9632   8
   2  -4   2 218.193 13.9612   3
   2  -4   2 195.032 14.4799   1
   2  -4   2 217.403 14.5264   1
   2  -4   2 184.035 19.8180  14
   2  -4   2 227.896 13.9698   3
   2  -4   2 223.754 16.5890  13
   2  -4   2 220.496 16.1419   7
   2  -4   2 194.412 16.7930   2
   2  -4   2 212.859 16.9414   2
  -3   4  -2 30.8615 2.41390   1
   3  -4   2 29.5346 3.20136   2
   3  -4   2 34.9839 2.30318   3
   3  -4   2 39.9715 4.83346  13
   3  -4   2 39.3785 4.59445   7
   3  -4   2 28.4852 3.17182   2
   3  -4   2 35.9706 2.30102   3
   4  -4   2 35.3586 2.36344   3
   4  -4   2 36.6578 2.35700   3
   4  -4   2 43.6845 5.42257  13
   4  -4   2 43.9003 5.33565   7
   4  -4   2 28.6765 3.20048   2
   4  -4   2 29.1341 3.15920   2
   5  -4   2 88.8952 10.6058  20
   5  -4   2 90.8921 9.92326  22
   5  -4   2 93.9680 6.63103  17
   5  -4   2 92.5198 10.0398  21
   5  -4   2 88.9081 8.86906  19
   5  -4   2 101.662 9.13230   7
   5  -4   2 114.408 9.53242  13
   6  -4   2 31.6885 5.44905  20
   6  -4   2 30.0133 4.52630  19
   6  -4   2 35.4152 2.76817  17
   6  -4   2 31.1623 4.95450  22
   6  -4   2 39.8821 5.79640  21
   7  -4   2 33.9580 2.62454  17
   7  -4   2 31.0589 5.05659  20
   7  -4   2 34.7142 4.85478  21
   8  -4   2 2.33295 2.02902  21
   8  -4   2 4.24484 1.94979  20
   8   3  -2 6.66960 1.76896  21
   8   3  -2 5.08946 0.96582  17
   7   3  -2 0.34099 1.52151  16
   7   3  -2 1.09602 1.71919  20
   7   3  -2 0.39199 2.19225  26
   7   3  -2 2.23632 2.02355  21
   7   3  -2 0.33644 1.35039  17
   6   3  -2 26.0682 2.71131  17
   6   3  -2 29.0553 4.34564  26
   6   3  -2 33.4598 3.61901  16
   6   3  -2 30.7020 4.95272  20
   5   3  -2 60.0286 5.53149  11
   5   3  -2 48.5896 4.07186   3
   5   3  -2 60.9176 4.97653  16
   5   3  -2 63.6883 5.88194   5
   5   3  -2 56.7823 6.01967   2
   5   3  -2 59.3760 6.62488  26
   5   3  -2 65.4051 7.16777  20
   4   3  -2 14.0113 2.62934   2
   4   3  -2 13.5012 1.28790   3
   4   3  -2 16.9902 2.89209  26
  -4  -3   2 19.0016 4.19087  15
  -4  -3   2 13.1071 3.55878   9
   3   3  -2 118.387 10.4640   2
   3   3  -2 121.546 6.67533   6
   3   3  -2 117.241 6.63359  12
   3   3  -2 121.797 8.26452   3
  -3  -3   2 119.775 11.1293  15
  -3  -3   2 125.961 10.6110   9
   2   3  -2 938.309 72.2151   1
   2   3  -2 1077.87 52.7437  12
   2   3  -2 988.027 72.3104   1
   2   3  -2 1113.41 69.7347   3
   2   3  -2 1082.69 52.9736   6
   2   3  -2 1043.63 82.7342   2
  -2  -3   2 1056.13 80.9970  15
  -2  -3   2 1081.73 77.4589   9
  -2  -3   2 938.611 83.1214   2
  -2  -3   2 1082.41 72.3509   1
  -2  -3   2 1105.24 72.2728   1
  -2  -3   2 1027.32 69.7731   3
   1   3  -2 0.99017 0.40006   1
   1   3  -2 1.01802 0.34013   3
   1   3  -2 0.88660 0.44462   1
   1   3  -2 1.26251 1.22286   2
  -1  -3   2 2.06091 1.33695   7
  -1  -3   2 3.50551 2.45682  15
  -1  -3   2 -0.1416 2.21062   9
  -1  -3   2 0.96835 0.39926   3
  -1  -3   2 1.52018 1.29782  13
  -1  -3   2 1.13246 0.31945   1
  -1  -3   2 0.69628 0.55671   1
  -1  -3   2 2.29429 2.12549   2
   0   3  -2 135.645 9.48513   1
   0   3  -2 130.848 9.08853   3
   0   3  -2 128.547 11.0231   2
   0   3  -2 139.755 9.45343   1
   0  -3   2 137.645 10.3735   7
   0  -3   2 132.116 11.2993   2
   0  -3   2 138.488 9.50964   1
   0  -3   2 130.697 11.2795  15
   0  -3   2 135.730 10.7915   9
   0  -3   2 133.780 9.43164   1
   0  -3   2 134.205 9.10261   3
   0  -3   2 140.854 10.6842  13
  -1   3  -2 2.09506 0.37757   1
  -1   3  -2 2.79328 0.39199   1
   1  -3   2 2.77593 0.32521   3
   1  -3   2 1.99930 1.40813   9
   1  -3   2 2.17215 0.35374   1
   1  -3   2 2.34672 0.33159   3
   1  -3   2 1.98546 2.04981   7
   1  -3   2 2.71068 0.45474   1
   1  -3   2 1.49554 2.01118  13
   1  -3   2 2.19260 0.95720   2
   1  -3   2 2.24580 1.34177   2
   1  -3   2 2.08635 1.56767  15
  -2   3  -2 17.9923 1.27308   1
  -2   3  -2 15.7344 1.25232   1
   2  -3   2 14.2260 1.24537   1
   2  -3   2 16.5431 1.16939   3
   2  -3   2 13.9249 2.02201   2
   2  -3   2 11.8743 2.09951  14
   2  -3   2 15.9985 1.17209   3
   2  -3   2 16.2162 2.18165   2
   2  -3   2 15.3439 1.29378   1
   2  -3   2 11.3425 1.87817   8
   2  -3   2 19.0444 3.18313  13
   2  -3   2 21.1789 3.21451   7
  -3   3  -2 324.778 23.2829   1
   3  -3   2 359.030 25.1286   7
   3  -3   2 339.992 26.9472   2
   3  -3   2 311.969 22.4567   3
   3  -3   2 350.879 25.8327  13
   3  -3   2 347.085 22.4432   3
   4  -3   2 26.4289 1.90278   3
   4  -3   2 33.0519 4.55312   7
   4  -3   2 31.5434 4.58842  13
   4  -3   2 26.5147 2.90300   2
   5  -3   2 25.0347 2.80956  16
   5  -3   2 31.1467 4.77854  22
   5  -3   2 35.2197 2.24767   3
   5  -3   2 35.2043 4.99936   7
   5  -3   2 39.7001 4.94509  21
   5  -3   2 35.7229 4.06023  19
   5  -3   2 26.9396 2.68517  17
   5  -3   2 32.9785 5.02092  13
   5  -3   2 27.1548 3.30433   2
   5  -3   2 30.6583 5.01291  20
   6  -3   2 225.236 18.3160  21
   6  -3   2 200.716 17.7362  22
   6  -3   2 174.719 12.8490  17
   6  -3   2 186.111 20.0111  20
   6  -3   2 154.596 15.8873  19
   7  -3   2 22.4021 4.32603  21
   7  -3   2 25.0992 2.14188  17
   7  -3   2 19.3804 4.33816  20
   8  -3   2 1.36561 0.53676  17
   8  -3   2 2.13122 1.87476  21
   8  -3   2 1.10329 1.66506  20
   8   2  -2 1.05649 2.11836  20
   8   2  -2 3.58082 1.86110  21
   8   2  -2 2.02863 0.88305  17
   7   2  -2 68.2923 5.47714  16
   7   2  -2 61.2561 7.20135  26
   7   2  -2 72.7667 8.39262  20
   7   2  -2 61.1991 7.82311  21
   7   2  -2 71.6107 5.29207  17
   6   2  -2 92.7058 8.98865  11
   6   2  -2 113.671 10.7664  26
   6   2  -2 123.531 12.2251  20
   6   2  -2 87.8567 9.41740   5
   6   2  -2 110.029 8.26441  16
   6   2  -2 108.132 7.90279  17
   5   2  -2 30.3344 3.79754  11
   5   2  -2 27.6446 3.43065   2
   5   2  -2 32.0018 3.80179   5
   5   2  -2 27.2829 2.81660  16
   5   2  -2 27.5785 3.71023  26
   5   2  -2 29.6868 2.25546   3
   5   2  -2 32.3743 4.62207  20
   5   2  -2 26.8640 2.73688  17
   4   2  -2 155.440 12.5044   2
   4   2  -2 143.091 9.95100   3
  -4  -2   2 140.206 12.8687  15
  -4  -2   2 145.677 12.3065   9
   3   2  -2 8.43362 1.04502   1
   3   2  -2 12.0753 0.97842   3
   3   2  -2 13.3131 2.07857   2
   3   2  -2 10.0044 1.15097  12
   3   2  -2 10.8593 1.16879   6
  -3  -2   2 11.6904 3.03700  15
  -3  -2   2 15.0300 3.02083   9
  -3  -2   2 9.76249 1.15456   1
   2   2  -2 10.0282 1.12518   1
   2   2  -2 13.8529 1.21444   6
   2   2  -2 9.39090 1.01906   1
   2   2  -2 11.8940 1.87202   2
   2   2  -2 11.0349 0.87817   3
   2   2  -2 12.1144 1.19479  12
  -2  -2   2 12.3263 2.86850  15
  -2  -2   2 9.90165 0.91277   3
  -2  -2   2 9.84651 2.58588   2
  -2  -2   2 10.3371 1.19936   1
  -2  -2   2 14.8316 2.87913   9
  -2  -2   2 10.6779 1.06587   1
   1   2  -2 134.320 10.7036   2
   1   2  -2 133.774 9.16546   1
   1   2  -2 140.124 8.76815   3
   1   2  -2 131.141 9.69147   4
   1   2  -2 128.880 9.11909   1
   1   2  -2 127.751 10.0961  10
  -1  -2   2 113.087 11.0023   2
  -1  -2   2 135.563 9.18810   1
  -1  -2   2 126.364 9.58971   7
  -1  -2   2 131.007 9.11196   1
  -1  -2   2 121.453 8.77795   3
  -1  -2   2 127.876 9.86446  13
   0   2  -2 589.654 39.3235   1
   0   2  -2 581.444 37.9689   3
   0   2  -2 560.986 39.3422   1
   0   2  -2 606.206 45.0486   2
   0  -2   2 569.719 41.8784  13
   0  -2   2 544.468 40.6766   7
   0  -2   2 548.574 39.3107   1
   0  -2   2 516.868 45.1695   2
   0  -2   2 626.589 39.3711   1
   0  -2   2 532.796 37.9681   3
  -1   2  -2 244.266 15.3604   1
  -1   2  -2 230.207 15.3606   1
   1  -2   2 221.703 17.8594   2
   1  -2   2 222.245 14.8136   3
   1  -2   2 228.551 15.3751   1
   1  -2   2 227.966 16.4688   7
   1  -2   2 237.082 16.9806  13
   1  -2   2 221.132 15.3465   1
   1  -2   2 219.329 14.8074   3
   1  -2   2 190.754 17.2338  15
   1  -2   2 190.620 16.4735   9
  -2   2  -2 113.821 7.39373   1
  -2   2  -2 110.090 7.38199   1
   2  -2   2 105.924 8.52848   7
   2  -2   2 107.871 7.08668   3
   2  -2   2 103.429 8.80369   2
   2  -2   2 104.370 8.76209  13
   2  -2   2 102.899 7.37824   1
   2  -2   2 97.5019 7.09869   3
   2  -2   2 100.379 7.38184   1
  -3   2  -2 654.235 45.1031   1
   3  -2   2 668.271 51.8096   2
   3  -2   2 603.231 48.6237  13
   3  -2   2 677.077 43.5041   3
   3  -2   2 642.088 47.3125   7
   4  -2   2 215.137 15.8088   7
   4  -2   2 199.507 16.1564  13
   4  -2   2 189.211 16.3473   2
   4  -2   2 198.729 13.3666   3
   5  -2   2 4.26754 2.53051  19
   5  -2   2 5.37083 2.93367  22
   5  -2   2 5.19559 1.44797  16
   5  -2   2 6.06834 0.61716   3
   5  -2   2 5.74084 2.73962  13
   5  -2   2 5.21644 1.28281  17
   5  -2   2 6.86647 2.79672   7
   5  -2   2 6.25551 2.83290  21
   5  -2   2 6.78747 1.76925   2
   5  -2   2 4.94255 2.14360  26
   5  -2   2 7.59368 2.88891  20
   6  -2   2 15.0994 3.51154  19
   6  -2   2 24.7076 2.32988  17
   6  -2   2 22.6775 2.50272  16
   6  -2   2 20.2659 3.18057  26
   6  -2   2 29.9462 4.62787  20
   6  -2   2 26.1272 4.26995  21
   7  -2   2 1.19648 2.13880  21
   7  -2   2 1.29716 1.07000  17
   7  -2   2 0.21146 2.90307  20
   8  -2   2 80.2319 5.65727  17
   8  -2   2 80.9616 8.27347  21
   8   1  -2 12.2606 2.94854  20
   8   1  -2 9.29556 3.01018  21
   8   1  -2 8.84912 1.36185  17
   7   1  -2 17.8672 3.86282  21
   7   1  -2 21.7528 2.35433  17
   7   1  -2 17.1987 2.98789  26
   7   1  -2 13.7639 3.71838  20
   7   1  -2 22.2438 2.27281  16
   6   1  -2 431.178 39.5063  21
   6   1  -2 427.324 38.0287  26
   6   1  -2 449.038 29.1197  17
   6   1  -2 372.802 28.6010   3
   6   1  -2 390.078 32.0904   5
   6   1  -2 457.733 29.7643  16
   6   1  -2 484.754 43.8793  20
   6   1  -2 382.377 30.5481  11
   5   1  -2 292.586 20.5377  11
   5   1  -2 281.721 19.0104   3
   5   1  -2 288.963 23.1280   2
   5   1  -2 272.687 25.3332  26
   5   1  -2 290.586 21.5537   5
   5   1  -2 291.426 29.1445  20
   5   1  -2 272.495 19.7597  16
   5   1  -2 273.230 19.3289  17
   4   1  -2 1.82707 0.35749   3
   4   1  -2 2.18062 1.18383   2
  -4  -1   2 1.57099 2.09337  15
  -4  -1   2 5.46790 2.17793   9
   3   1  -2 0.18556 0.73715   6
   3   1  -2 1.74689 1.23435   4
   3   1  -2 -0.5121 1.18295  10
   3   1  -2 0.35939 0.25145   3
   3   1  -2 -0.1629 1.03129   2
   3   1  -2 0.26157 0.74490  12
   3   1  -2 -0.1921 0.34591   1
   3   1  -2 0.36267 0.42660   1
  -3  -1   2 0.13284 0.32053   1
  -3  -1   2 0.07576 0.52281   1
   2   1  -2 200.867 14.6840   4
   2   1  -2 206.616 15.8296   2
   2   1  -2 189.776 10.1129   6
   2   1  -2 202.864 13.1259   3
   2   1  -2 200.725 15.2986  10
   2   1  -2 180.062 13.6147   1
   2   1  -2 201.673 10.0896  12
   2   1  -2 185.143 13.6684   1
  -2  -1   2 194.926 13.6932   1
   1   1  -2 1012.99 65.1413   1
   1   1  -2 961.827 69.1088   4
   1   1  -2 1008.27 72.0386  10
   1   1  -2 902.954 74.3536   2
   1   1  -2 1048.62 62.8807   3
   1   1  -2 978.093 65.1110   1
  -1  -1   2 1007.45 65.1554   1
  -1  -1   2 862.447 66.7643   7
  -1  -1   2 1011.25 65.1090   1
  -1  -1   2 804.093 68.7031  13
  -1  -1   2 890.712 62.8863   3
  -1  -1   2 816.951 74.5242   2
   0   1  -2 3413.17 227.412   3
   0   1  -2 3931.18 235.674   1
   0   1  -2 3652.35 235.556   1
   0   1  -2 3514.31 268.074   2
   0  -1   2 3497.23 235.524   1
   0  -1   2 3173.78 268.157   2
   0  -1   2 3159.62 241.212   7
   0  -1   2 3463.88 235.630   1
   0  -1   2 3270.32 248.270  13
   0  -1   2 3042.01 227.435   3
  -1   1  -2 8.34095 0.74031   1
  -1   1  -2 6.88043 0.68754   3
  -1   1  -2 8.35709 0.69603   1
   1  -1   2 8.31554 1.51014   2
   1  -1   2 8.03506 0.74411   1
   1  -1   2 7.40713 0.65956   3
  -2   1  -2 285.888 18.7022   1
  -2   1  -2 302.423 18.7205   1
   2  -1   2 244.144 18.6887   1
   2  -1   2 255.760 19.0436  11
   2  -1   2 267.533 18.6814   1
   2  -1   2 266.562 20.0036   5
   2  -1   2 223.691 18.0170   3
   2  -1   2 269.423 18.0052   3
   2  -1   2 315.377 21.7279   2
   3  -1   2 11.4356 1.12463   1
   3  -1   2 14.7216 2.29140  11
   3  -1   2 12.0293 2.93977   7
   3  -1   2 17.3735 2.18444   2
   3  -1   2 14.8422 2.46754   5
   3  -1   2 12.7848 1.02032   3
   3  -1   2 13.1252 3.04226  13
   4  -1   2 16.2884 3.13669  13
   4  -1   2 16.2607 2.37919   2
   4  -1   2 14.2287 1.17979   3
   4  -1   2 17.0724 2.72719  11
   4  -1   2 13.9939 3.28764   7
   4  -1   2 16.3384 2.82905   5
   5  -1   2 1.63169 1.00990  17
   5  -1   2 2.91160 1.63939   2
   5  -1   2 0.03104 2.80438  22
   5  -1   2 2.13208 1.84031  11
   5  -1   2 2.31710 1.95476   5
   5  -1   2 2.30551 2.50035  20
   5  -1   2 2.20739 0.44975   3
   5  -1   2 2.01689 1.83265  26
   5  -1   2 1.73999 2.36764  19
   5  -1   2 1.75866 1.66408  21
   5  -1   2 3.14903 1.34689  16
   6  -1   2 141.353 10.0274  16
   6  -1   2 116.697 12.8704  26
   6  -1   2 131.070 15.0900  20
   6  -1   2 140.726 9.80249  17
   6  -1   2 164.946 13.7108  21
   7  -1   2 92.1835 6.60352  16
   7  -1   2 93.1308 6.70823  17
   7  -1   2 100.702 9.57526  21
   7  -1   2 84.0557 10.2650  20
   8  -1   2 71.0591 5.07319  17
   8  -1   2 72.3926 7.39597  21
   8   0  -2 62.1830 4.59677  17
   8   0  -2 55.8977 7.18075  21
   8   0  -2 63.7569 7.78449  20
   7   0  -2 33.3695 2.92308  16
   7   0  -2 34.1625 4.87719  20
   7   0  -2 28.4536 3.89253  26
   7   0  -2 33.5684 2.94953  17
   7   0  -2 37.2984 5.47843  21
   6   0  -2 142.385 12.2214   2
   6   0  -2 139.915 14.2212  21
   6   0  -2 128.717 12.1690  19
   6   0  -2 132.935 9.76860   3
   6   0  -2 138.433 11.1942  11
   6   0  -2 159.829 10.3525  16
   6   0  -2 136.721 13.2915  26
   6   0  -2 157.706 10.1080  17
   6   0  -2 128.951 11.6773   5
   6   0  -2 164.298 15.6882  20
   5   0  -2 187.812 15.4563   2
   5   0  -2 180.800 16.8963  26
   5   0  -2 195.657 13.9132  11
   5   0  -2 179.885 12.8834  17
   5   0  -2 180.363 19.5868  20
   5   0  -2 182.243 13.1750  16
   5   0  -2 194.282 14.6047   5
   5   0  -2 195.170 12.6216   3
   4   0  -2 45.4256 3.24986   3
   4   0  -2 46.7490 4.32436   2
   4   0  -2 49.4742 4.10088  11
   4   0  -2 45.7821 4.27512   5
   3   0  -2 41.4711 2.51615   6
   3   0  -2 45.7767 3.83883   4
   3   0  -2 43.0804 3.95788  10
   3   0  -2 40.4776 2.50886  12
   3   0  -2 40.7856 3.80420   2
   3   0  -2 34.6591 2.98382   1
   3   0  -2 39.9332 3.07665   1
   3   0  -2 46.0194 2.87963   3
  -3   0   2 40.0258 3.10107   1
   2   0  -2 1758.65 138.456   3
   2   0  -2 2049.85 104.763   6
   2   0  -2 1970.51 143.330   1
   2   0  -2 2102.08 143.371   1
   2   0  -2 2066.37 104.287  12
   2   0  -2 2206.74 163.510   2
   2   0  -2 2183.73 158.657  10
   2   0  -2 2188.83 138.687   3
   2   0  -2 2079.77 152.210   4
  -2   0   2 2118.07 143.385   1
  -2   0   2 2143.64 143.345   1
   1   0  -2 196.972 14.7242   2
   1   0  -2 162.824 14.2424  10
   1   0  -2 170.866 13.6749   4
   1   0  -2 183.256 12.7564   1
   1   0  -2 195.071 12.7828   1
   1   0  -2 196.617 12.3168   3
  -1   0   2 184.513 12.7608   1
  -1   0   2 167.015 12.3158   3
  -1   0   2 194.993 12.7935   1
   0   0  -2 958.206 60.1904   1
   0   0  -2 870.431 58.1417   3
   0   0  -2 900.709 60.1912   1
   0   0  -2 835.142 68.7484   2
   0   0   2 796.566 68.7897   2
   0   0   2 963.635 60.1985   1
   0   0   2 851.889 60.1817   1
   0   0   2 796.462 58.1233   3
  -1   0  -2 931.715 58.3619   1
  -1   0  -2 751.387 66.7718   2
  -1   0  -2 892.007 58.3633   1
  -1   0  -2 820.902 56.3635   3
   1   0   2 942.314 66.8046   2
   1   0   2 767.470 58.2562  11
   1   0   2 832.057 56.3319   3
   1   0   2 815.785 61.1251   5
   1   0   2 810.879 58.3490   1
   1   0   2 852.146 58.3438   1
  -2   0  -2 12.1269 1.14983   1
  -2   0  -2 12.9115 1.05128   1
  -2   0  -2 13.2793 2.40967   2
  -2   0  -2 10.9503 0.97279   3
   2   0   2 10.6865 1.09407   1
   2   0   2 15.3245 2.18847   5
   2   0   2 10.0785 0.98397   1
   2   0   2 13.7595 1.98871  11
   2   0   2 11.5552 0.91757   3
   2   0   2 13.3735 1.73982   2
   3   0   2 4.75350 1.78231   5
   3   0   2 5.95250 0.64464   3
   3   0   2 6.45297 1.58479   2
   3   0   2 6.07110 1.79408  11
   4   0   2 200.025 15.5382   5
   4   0   2 172.741 15.7895   7
   4   0   2 224.121 16.7435   2
   4   0   2 173.929 16.2452  13
   4   0   2 199.498 14.8038  11
   4   0   2 205.872 13.4799   3
   5   0   2 79.0741 7.81327  21
   5   0   2 70.9936 6.86848   2
   5   0   2 68.2354 8.45952  20
   5   0   2 71.6796 6.46374  11
   5   0   2 72.2084 5.00620   3
   5   0   2 73.2980 6.80207   5
   5   0   2 63.5912 7.42471  26
   5   0   2 71.6594 5.27396  17
   5   0   2 72.0768 5.65160  16
   6   0   2 5.84847 2.14661  21
   6   0   2 3.50471 1.57035  16
   6   0   2 2.88380 1.38313  17
   6   0   2 3.30555 2.17412  26
   7   0   2 67.7455 7.33894  26
   7   0   2 78.4700 5.69553  16
   7   0   2 76.7995 8.03174  21
   7   0   2 79.9863 5.69796  17
   8   0   2 6.28109 1.04662  17
   8   0   2 10.0800 2.11873  21
   9  -1  -2 1.20078 2.05136  21
   9  -1  -2 2.13763 2.25679  20
   8  -1  -2 -0.4829 2.01869  21
   8  -1  -2 -1.1807 0.83900  17
   8  -1  -2 0.40971 2.00215  20
   7  -1  -2 1.01457 1.75782  19
   7  -1  -2 -1.2776 1.96172  20
   7  -1  -2 -1.6551 2.81894  21
   7  -1  -2 0.31281 0.83707  16
   7  -1  -2 0.69319 0.96953  17
   6  -1  -2 48.6559 4.47056   2
   6  -1  -2 43.4688 4.96667   5
   6  -1  -2 51.2636 3.74125  16
   6  -1  -2 40.9884 5.29473  18
   6  -1  -2 50.1162 3.61824  17
   6  -1  -2 45.2872 5.26093  19
   6  -1  -2 46.4043 3.27700   3
   6  -1  -2 45.4128 6.29133  20
   6  -1  -2 44.4889 5.92613  21
   6  -1  -2 41.2091 4.94593  26
   6  -1  -2 43.5626 4.67694  11
   5  -1  -2 231.946 14.4872   3
   5  -1  -2 203.746 17.4525   2
   5  -1  -2 209.223 15.7431  11
   5  -1  -2 205.708 16.5210   5
   4  -1  -2 526.713 41.2763   2
   4  -1  -2 534.269 38.7714   4
   4  -1  -2 500.754 38.0867   5
   4  -1  -2 507.512 36.3128  11
   4  -1  -2 525.353 34.7388   3
   4  -1  -2 522.999 40.3884  10
   3  -1  -2 101.389 7.45932   2
   3  -1  -2 82.0571 6.32169   1
   3  -1  -2 79.9042 6.73339   7
   3  -1  -2 104.908 7.11697   5
   3  -1  -2 97.7992 7.29359   4
   3  -1  -2 69.0549 7.64349   2
   3  -1  -2 101.311 6.76129  11
   3  -1  -2 91.5464 6.38626   1
   3  -1  -2 98.6415 7.60029  10
   3  -1  -2 74.2697 6.90426  13
  -3   1   2 93.5774 6.39880   1
  -3   1   2 96.1269 6.36201   1
   2  -1  -2 93.9942 7.45469   7
   2  -1  -2 99.9269 7.09636   1
   2  -1  -2 97.1789 7.07445   1
   2  -1  -2 94.6934 7.66435  13
   2  -1  -2 112.282 6.82839   3
   2  -1  -2 104.221 5.30114  12
   2  -1  -2 85.0932 8.32823   2
   2  -1  -2 91.3445 6.82325   3
   2  -1  -2 114.187 8.23805  10
   2  -1  -2 107.646 5.32582   6
   2  -1  -2 108.883 7.84259   4
   2  -1  -2 111.120 8.22388   2
  -2   1   2 102.486 7.11987   1
  -2   1   2 102.926 7.08337   1
   1  -1  -2 553.625 46.6950   4
   1  -1  -2 675.304 42.3748   3
   1  -1  -2 554.608 42.3613   3
   1  -1  -2 651.221 43.8616   1
   1  -1  -2 699.574 50.1319   2
   1  -1  -2 679.442 43.8709   1
   1  -1  -2 627.964 50.1644   2
   1  -1  -2 637.269 32.0429   6
   1  -1  -2 542.328 48.6617  10
   1  -1  -2 633.331 31.8987  12
  -1   1   2 698.016 43.8687   1
  -1   1   2 665.680 43.8761   1
   0  -1  -2 865.756 57.5380   1
   0  -1  -2 811.037 76.5912  14
   0  -1  -2 936.423 57.5419   1
   0  -1  -2 812.740 55.5731   3
   0  -1  -2 801.033 69.5352   8
   0  -1  -2 793.521 65.7967   2
   0   1   2 881.558 57.5335   1
   0   1   2 733.604 55.5461   3
   0   1   2 872.433 65.8018   2
   0   1   2 822.957 57.5337   1
  -1  -1  -2 57.1071 5.48401   2
  -1  -1  -2 64.6794 4.34841   1
  -1  -1  -2 58.5625 6.36557  14
  -1  -1  -2 59.7469 4.17031   3
  -1  -1  -2 61.5602 4.33619   1
  -1  -1  -2 61.1247 5.77145   8
   1   1   2 61.2075 4.30146   1
   1   1   2 57.8272 4.57365  11
   1   1   2 62.2203 4.12606   3
   1   1   2 56.6273 4.80168   5
   1   1   2 55.6921 4.34317   1
   1   1   2 62.7929 5.28896   2
  -2  -1  -2 661.115 57.2818   2
  -2  -1  -2 807.282 49.7752   1
  -2  -1  -2 707.576 66.2641  14
  -2  -1  -2 793.684 49.7427   1
  -2  -1  -2 689.439 48.0097   3
  -2  -1  -2 690.780 60.1367   8
   2   1   2 779.994 57.0817   2
   2   1   2 681.479 49.6716   1
   2   1   2 717.493 47.9453   3
   2   1   2 725.102 49.7896  11
   2   1   2 688.303 52.2007   5
   2   1   2 669.842 49.7303   1
   3   1   2 1408.40 102.925   5
   3   1   2 1370.00 98.1026  11
   3   1   2 1375.16 94.6999   3
   3   1   2 1529.60 112.388   2
   4   1   2 33.1835 3.69517  11
   4   1   2 34.3872 2.53081   3
   4   1   2 37.9036 4.07781   2
   4   1   2 32.2829 3.87400   5
   4   1   2 31.7434 4.61709  26
   5   1   2 8.61885 2.62395  26
   5   1   2 7.37531 2.18610   2
   5   1   2 8.55283 1.82999  16
   5   1   2 8.05659 0.84609   3
   5   1   2 8.88036 1.59832  17
   5   1   2 9.03235 2.66628   5
   5   1   2 8.42373 2.41761  11
   6   1   2 75.1546 7.71894  21
   6   1   2 65.6809 5.54511  16
   6   1   2 58.6755 7.35250  26
   6   1   2 66.6912 5.27084  17
   7   1   2 18.2070 3.05130  21
   7   1   2 16.0415 1.73150  17
   7   1   2 13.4019 1.82799  16
   7   1   2 11.0191 2.48350  26
   8   1   2 6.23446 0.98462  17
   8   1   2 6.98396 1.72524  21
   9  -2  -2 56.5663 6.09222  21
   9  -2  -2 58.3945 7.11402  20
   8  -2  -2 29.7304 2.27405  17
   8  -2  -2 16.4399 4.10001  21
   8  -2  -2 25.9978 4.30766  20
   8  -2  -2 25.4195 3.85889  19
   7  -2  -2 99.5985 10.2448  11
   7  -2  -2 131.391 13.0562  21
   7  -2  -2 135.385 8.90371  17
   7  -2  -2 140.439 14.3543  20
   7  -2  -2 132.001 11.4848  19
   7  -2  -2 105.637 10.8425   5
   6  -2  -2 534.963 42.6053   5
   6  -2  -2 578.992 38.3412   3
   6  -2  -2 554.071 52.8383  21
   6  -2  -2 557.128 48.2502  18
   6  -2  -2 650.659 58.8662  20
   6  -2  -2 569.216 45.5207   2
   6  -2  -2 530.914 40.5983  11
   6  -2  -2 585.610 39.5897  16
   6  -2  -2 606.454 38.9204  17
   6  -2  -2 554.085 46.4508  19
   5  -2  -2 37.1653 3.41921   2
   5  -2  -2 32.1332 3.89923   5
   5  -2  -2 39.3857 4.05867   4
   5  -2  -2 37.0475 3.75357  11
   5  -2  -2 39.8536 4.02433  10
   5  -2  -2 38.5348 2.62771   3
   4  -2  -2 15.0177 0.94659   3
   4  -2  -2 18.2188 2.44717  10
   4  -2  -2 10.9831 1.66086   2
   4  -2  -2 18.3802 2.21662  11
   4  -2  -2 10.6433 0.91682   3
   4  -2  -2 11.9680 1.05461   1
   4  -2  -2 16.3228 2.27653   5
   4  -2  -2 14.0411 1.41108   2
   4  -2  -2 17.5755 2.34204   4
  -4   2   2 10.7491 1.02580   1
   3  -2  -2 1150.96 80.7266   2
   3  -2  -2 941.059 75.0370  13
   3  -2  -2 1145.10 78.7327  10
   3  -2  -2 1149.92 68.3474   3
   3  -2  -2 1141.22 74.2834   5
   3  -2  -2 1127.14 70.8120  11
   3  -2  -2 911.746 70.7361   1
   3  -2  -2 1012.39 70.7610   1
   3  -2  -2 973.642 72.9299   7
   3  -2  -2 1072.01 75.5099   4
   3  -2  -2 865.591 68.3332   3
   3  -2  -2 970.391 80.8142   2
  -3   2   2 934.466 70.7495   1
  -3   2   2 989.945 70.7688   1
   2  -2  -2 191.531 12.6271  11
   2  -2  -2 181.894 12.4589   1
   2  -2  -2 166.886 13.1920   7
   2  -2  -2 192.875 14.3416   2
   2  -2  -2 177.740 14.1377  10
   2  -2  -2 184.679 12.0313   3
   2  -2  -2 187.153 13.2409   5
   2  -2  -2 186.522 13.5825   4
   2  -2  -2 176.758 13.5848  13
   2  -2  -2 167.915 12.4525   1
   2  -2  -2 172.357 14.2693   2
  -2   2   2 179.062 12.4749   1
  -2   2   2 175.994 12.4580   1
   1  -2  -2 553.423 34.9833   1
   1  -2  -2 530.071 33.7895   3
   1  -2  -2 526.518 34.9776   1
   1  -2  -2 426.636 37.3171   4
   1  -2  -2 541.588 40.0293   2
   1  -2  -2 521.100 47.0169  14
   1  -2  -2 483.365 40.0185   2
   1  -2  -2 478.694 42.6337   8
   1  -2  -2 447.659 33.7706   3
  -1   2   2 522.000 34.9804   1
  -1   2   2 527.415 34.9898   1
   0  -2  -2 18.3286 1.32819   3
   0  -2  -2 18.4275 2.22070   2
   0  -2  -2 18.0513 1.37701   1
   0  -2  -2 28.1513 3.99385  14
   0  -2  -2 25.2731 3.48002   8
   0  -2  -2 18.2353 1.38932   1
   0   2   2 15.4147 1.27294   3
   0   2   2 18.2504 2.16591   2
   0   2   2 16.3779 1.48759  11
   0   2   2 16.3338 1.56786   5
   0   2   2 17.1795 1.33941   1
   0   2   2 16.1448 1.41838   1
  -1  -2  -2 212.117 13.8649   1
  -1  -2  -2 199.879 13.3432   3
  -1  -2  -2 207.393 13.8416   1
  -1  -2  -2 189.750 16.3490   2
  -1  -2  -2 190.521 19.1462  14
  -1  -2  -2 190.165 17.3550   8
   1   2   2 206.095 14.6367   5
   1   2   2 191.722 13.7976   1
   1   2   2 196.872 16.1145   2
   1   2   2 187.653 13.2835   3
   1   2   2 207.977 13.9511  11
   1   2   2 179.912 13.8489   1
  -2  -2  -2 316.193 25.9727   2
  -2  -2  -2 310.751 29.9793  14
  -2  -2  -2 343.368 22.0548   1
  -2  -2  -2 322.371 21.2267   3
  -2  -2  -2 311.136 27.1930   8
  -2  -2  -2 328.158 22.0045   1
   2   2   2 335.420 25.5685   2
   2   2   2 304.606 21.1290   3
   2   2   2 273.816 21.9895   1
   2   2   2 334.038 22.2179  11
   2   2   2 288.076 21.9253   1
   2   2   2 322.124 23.2936   5
   3   2   2 58.9736 4.08090   3
   3   2   2 51.4196 5.13602   5
   3   2   2 59.9647 5.70894   2
   3   2   2 58.4995 4.96672  11
   4   2   2 31.8810 3.65871   2
   4   2   2 28.7065 4.01085  26
   4   2   2 27.5588 2.87562  16
   4   2   2 28.8668 3.38358   5
   4   2   2 29.7196 2.25706   3
   4   2   2 27.6388 3.16998  11
   5   2   2 69.8802 7.15444   2
   5   2   2 73.8909 7.93169  26
   5   2   2 76.7298 5.83278  16
   5   2   2 67.4298 6.39134  11
   5   2   2 62.5618 4.91243   3
   5   2   2 75.0229 5.44835  17
   5   2   2 64.2711 6.68197   5
   6   2   2 3.24640 1.62985  17
   6   2   2 3.72651 2.68018  26
   6   2   2 4.12343 1.88179  16
   6   2   2 3.19187 2.07940  21
   7   2   2 5.99928 2.72008  21
   7   2   2 3.47608 1.35130  17
   7   2   2 6.09035 2.12581  26
   7   2   2 9.39419 1.53898  16
   9  -3  -2 0.30063 1.87027  20
   9  -3  -2 2.50339 1.76106  21
   8  -3  -2 20.1133 3.76105  20
   8  -3  -2 22.9228 1.82311  17
   8  -3  -2 22.8366 4.10437  21
   8  -3  -2 22.6366 3.73568  19
   7  -3  -2 11.1429 3.71046  20
   7  -3  -2 9.49746 1.04838  17
   7  -3  -2 4.39417 3.19211  21
   7  -3  -2 7.73612 2.87073  19
   7  -3  -2 10.0057 2.57370  18
   6  -3  -2 35.6604 4.74834  19
   6  -3  -2 33.3763 3.95937   5
   6  -3  -2 39.1930 2.81047  17
   6  -3  -2 38.9716 5.69389  20
   6  -3  -2 40.0138 5.34305  18
   6  -3  -2 31.9910 3.73378  11
   6  -3  -2 35.4809 5.14345  21
   5  -3  -2 25.0025 3.21749  11
   5  -3  -2 25.1062 3.28290  10
   5  -3  -2 25.3798 3.19673   4
   5  -3  -2 25.3927 3.43044   5
   4  -3  -2 372.068 26.9663  10
   4  -3  -2 372.910 25.8829   4
   4  -3  -2 334.113 25.4226   5
   4  -3  -2 329.236 24.2178  11
   4  -3  -2 325.112 25.7562  13
   4  -3  -2 323.173 25.0338   7
   3  -3  -2 0.54753 1.39884   7
   3  -3  -2 0.18234 1.36011  13
   3  -3  -2 1.28308 0.88957   4
   3  -3  -2 1.08837 0.97525  11
   3  -3  -2 0.68353 0.88747  10
   3  -3  -2 -0.1189 0.97962   5
   2  -3  -2 19.4297 1.39043   3
   2  -3  -2 25.2082 2.84288  13
   2  -3  -2 19.4323 1.44657   1
   2  -3  -2 20.1050 2.09603   4
   2  -3  -2 18.4613 1.39349   3
   2  -3  -2 24.5770 2.80617   7
   2  -3  -2 21.1704 1.77942   2
   2  -3  -2 20.3842 1.44464   1
   2  -3  -2 22.8368 1.74757   2
   2  -3  -2 20.1539 2.17523  10
  -2   3   2 20.2392 1.46539   1
  -2   3   2 20.9893 1.46623   1
   1  -3  -2 9534.17 752.913   8
   1  -3  -2 9402.04 626.026   1
   1  -3  -2 8698.31 625.986   1
   1  -3  -2 9190.38 604.802   3
   1  -3  -2 9409.47 829.201  14
   1  -3  -2 9999.99 713.418   2
   1  -3  -2 8721.50 713.745   2
   1  -3  -2 8345.69 604.573   3
  -1   3   2 8750.79 626.050   1
  -1   3   2 8685.76 625.962   1
   0  -3  -2 820.692 74.6652  14
   0  -3  -2 839.506 53.7467   3
   0  -3  -2 834.797 55.6465   1
   0  -3  -2 838.475 67.7913   8
   0  -3  -2 872.229 55.6775   1
   0  -3  -2 803.413 63.8718   2
   0   3   2 751.011 63.6969   2
   0   3   2 719.844 53.6982   3
   0   3   2 817.863 55.6338   1
   0   3   2 750.220 55.6694   1
   0   3   2 798.094 55.3626  11
   0   3   2 817.038 58.0713   5
  -1  -3  -2 0.87478 0.32512   1
  -1  -3  -2 1.31141 0.45289   3
  -1  -3  -2 0.08947 3.21922   8
  -1  -3  -2 -0.8249 3.68074  14
  -1  -3  -2 0.13821 0.50579   1
  -1  -3  -2 -0.0171 1.93538   2
   1   3   2 0.38758 1.04331   5
   1   3   2 -0.2380 0.37677   1
   1   3   2 0.59503 0.41263   1
   1   3   2 0.73276 0.35015   3
   1   3   2 0.49545 0.97685  11
   1   3   2 0.08756 1.25010   2
  -2  -3  -2 62.3288 4.14427   3
  -2  -3  -2 64.2082 4.43051   1
  -2  -3  -2 54.6624 4.36098   1
  -2  -3  -2 58.2471 7.30229  14
  -2  -3  -2 52.1477 6.27266   2
  -2  -3  -2 57.4076 6.56984   8
   2   3   2 56.1050 5.55971   2
   2   3   2 58.9713 4.66769  11
   2   3   2 55.6333 4.00257   3
   2   3   2 62.0372 4.93209   5
   2   3   2 46.7103 4.18916   1
   3   3   2 44.3078 4.31728   5
   3   3   2 43.9280 3.20619   3
   3   3   2 44.4810 4.84400   2
   3   3   2 42.7934 4.07366  11
   4   3   2 221.529 19.1946  26
   4   3   2 181.550 13.8566   3
   4   3   2 212.817 17.6254   2
   4   3   2 204.996 16.0440   5
   4   3   2 219.212 14.8444  16
   4   3   2 197.655 15.2598  11
   5   3   2 87.4962 9.25208   5
   5   3   2 122.296 8.49322  16
   5   3   2 127.338 11.3486  26
   5   3   2 88.3017 8.82419  11
   6   3   2 60.8884 5.50219  16
   6   3   2 65.6482 7.25502  21
   6   3   2 58.4310 7.35549  26
   7   3   2 10.7159 2.00623  26
   7   3   2 17.9243 2.59156  21
   7   3   2 11.1360 1.47005  16
   9  -4  -2 48.3961 5.33039  19
   9  -4  -2 46.5986 6.14630  20
   9  -4  -2 58.0922 6.02564  21
   8  -4  -2 25.8815 3.99706  19
   8  -4  -2 21.2369 4.32708  21
   8  -4  -2 34.1515 4.73934  20
   7  -4  -2 1.05925 2.81956  18
   7  -4  -2 -1.7396 2.49767  19
   7  -4  -2 1.01025 0.55340  17
   7  -4  -2 0.79256 3.07272  20
   7  -4  -2 -0.1811 2.84250  21
   6  -4  -2 21.8708 3.03140  18
   6  -4  -2 17.2049 3.15570  19
   6  -4  -2 19.7446 4.05498  20
   6  -4  -2 15.6783 1.39770  17
   6  -4  -2 16.7721 2.51725  25
   6  -4  -2 15.7091 3.66377  21
   5  -4  -2 402.923 30.8848  10
   5  -4  -2 373.555 32.9761  18
   5  -4  -2 416.551 29.6728   4
   5  -4  -2 379.249 31.8063  19
   4  -4  -2 11.1599 2.40073  13
   4  -4  -2 13.8962 2.13039  10
   4  -4  -2 10.2789 2.31350   7
   4  -4  -2 15.0072 2.10558   4
   3  -4  -2 3.26520 1.85903   7
   3  -4  -2 3.21993 1.32303  10
   3  -4  -2 2.58408 1.27071   4
   3  -4  -2 1.19930 1.71357  13
   2  -4  -2 104.583 8.42250  10
   2  -4  -2 109.676 8.27151   2
   2  -4  -2 93.7843 7.12702   1
   2  -4  -2 113.175 8.11625   4
   2  -4  -2 107.269 10.9079  14
   2  -4  -2 111.198 9.92838   8
   2  -4  -2 98.6154 7.12398   1
   2  -4  -2 106.215 8.26197   7
   2  -4  -2 101.697 6.87744   3
   2  -4  -2 115.967 8.22032   2
   2  -4  -2 106.680 8.47347  13
   2  -4  -2 92.3744 6.87729   3
  -2   4   2 98.1451 7.14770   1
  -2   4   2 102.359 7.13665   1
   1  -4  -2 524.416 41.0894   8
   1  -4  -2 484.634 38.2313   2
   1  -4  -2 485.109 32.0729   3
   1  -4  -2 496.131 45.2173  14
   1  -4  -2 488.253 38.0779   2
   1  -4  -2 477.315 33.2278   1
   1  -4  -2 411.430 35.5316   4
   1  -4  -2 476.915 32.0599   3
   1  -4  -2 472.541 33.2091   1
  -1   4   2 495.092 33.2674   1
  -1   4   2 481.397 33.2111   1
   0  -4  -2 61.9468 4.52080   1
   0  -4  -2 64.5496 7.13106   8
   0  -4  -2 66.3079 8.00020  14
   0  -4  -2 62.2585 4.34862   3
   0  -4  -2 66.1592 4.58596   1
   0  -4  -2 63.2156 6.09524   2
   0   4   2 61.4020 4.51652   1
   0   4   2 58.9199 4.58983   1
  -1  -4  -2 167.242 17.1287  14
  -1  -4  -2 161.327 11.6759   1
  -1  -4  -2 170.749 11.2048   3
  -1  -4  -2 180.477 15.6153   8
  -1  -4  -2 168.787 14.3459   2
   1   4   2 175.024 12.3559   5
   1   4   2 173.141 11.7689  11
   1   4   2 133.762 11.6432   1
  -2  -4  -2 16.2397 1.54325   3
  -2  -4  -2 23.6731 5.37123  14
  -2  -4  -2 14.8439 3.50477   2
  -2  -4  -2 23.1903 4.81567   8
   2   4   2 14.9300 2.12030  11
   2   4   2 14.9761 2.23042   5
  -3  -4  -2 3.81515 3.04121  26
   3   4   2 3.72611 1.60417   5
   3   4   2 3.84372 1.54502  11
   3   4   2 4.35437 2.09399  26
   4   4   2 421.671 30.4700  11
   4   4   2 427.766 32.0010   5
   5   4   2 115.648 8.90451  16
   5   4   2 117.472 11.7174  26
   6   4   2 1.36566 1.40923  16
   6   4   2 1.57999 1.79295  21
   6   4   2 1.69366 2.06323  26
   7   4   2 24.4265 3.09116  26
   7   4   2 28.7854 3.27831  21
   7   4   2 25.7245 2.29720  16
   9  -5  -2 1.91663 1.61054  21
   9  -5  -2 0.12778 2.66017  20
   9  -5  -2 -0.4193 1.60425  19
   8  -5  -2 19.9222 3.45048  19
   8  -5  -2 15.9745 3.94900  20
   8  -5  -2 14.6806 3.74073  21
   7  -5  -2 49.9443 7.35295  20
   7  -5  -2 47.9055 5.31978  19
   7  -5  -2 45.3329 6.72598  21
   7  -5  -2 57.0744 6.30404  18
   6  -5  -2 -1.1896 2.93136  20
   6  -5  -2 -0.1111 2.20892  19
   6  -5  -2 1.60629 2.80464  21
   6  -5  -2 0.34002 1.85701  18
   6  -5  -2 2.55818 1.91490  25
   5  -5  -2 465.147 39.8101  18
   5  -5  -2 510.125 35.7615   4
   5  -5  -2 440.602 48.6367  20
   5  -5  -2 435.074 35.3030  25
   5  -5  -2 487.534 38.4471  19
   5  -5  -2 524.989 37.2964  10
   4  -5  -2 138.008 10.8028   4
   4  -5  -2 125.095 10.9856   7
   4  -5  -2 146.302 11.2869  10
   4  -5  -2 129.744 11.3023  13
   3  -5  -2 33.9341 4.23665  13
   3  -5  -2 31.8905 3.33315  10
   3  -5  -2 38.5043 4.15628   7
   3  -5  -2 31.7047 3.21128   4
   2  -5  -2 143.003 11.5129   2
   2  -5  -2 135.925 9.91329   1
   2  -5  -2 168.177 14.9798  14
   2  -5  -2 146.306 11.3243   7
   2  -5  -2 148.948 11.6221  13
   2  -5  -2 157.000 11.0425   4
   2  -5  -2 132.471 9.90149   1
   2  -5  -2 142.450 9.55955   3
   2  -5  -2 141.806 9.56262   3
   2  -5  -2 151.992 11.4309   2
   2  -5  -2 150.621 11.4901  10
   2  -5  -2 146.431 13.4007   8
  -2   5   2 127.301 9.90731   1
   1  -5  -2 339.938 30.3736  10
   1  -5  -2 410.070 26.2377   3
   1  -5  -2 431.341 34.1807   8
   1  -5  -2 346.742 29.1540   4
   1  -5  -2 417.274 31.5139   2
   1  -5  -2 444.203 37.7491  14
  -1   5   2 383.573 27.1920   1
   0  -5  -2 417.148 40.5291  14
   0  -5  -2 417.956 34.1953   2
   0  -5  -2 434.788 36.8056   8
   0  -5  -2 417.887 28.2652   3
  -1  -5  -2 16.9126 1.48492   3
  -1  -5  -2 22.0783 5.74632  14
  -1  -5  -2 21.5816 5.08212   8
  -1  -5  -2 17.0229 3.59377   2
  -2  -5  -2 176.781 16.7915   8
  -2  -5  -2 168.458 18.2422  14
  -2  -5  -2 168.629 11.6505   3
  -2  -5  -2 161.783 15.3511   2
  -3  -5  -2 222.487 23.0898  26
   3   5   2 256.606 22.5480  26
  -4  -5  -2 0.18469 4.33177  26
   4   5   2 -0.0300 2.98887  26
   5   5   2 37.1012 5.58187  26
   5   5   2 35.6584 4.24816  16
   6   5   2 1.07973 1.95954  26
   6   5   2 0.60675 1.35990  16
   6   5   2 0.01175 2.22723  21
   9  -6  -2 50.9781 5.95336  20
   9  -6  -2 45.5407 4.71469  19
   8  -6  -2 51.6284 5.77649  19
   8  -6  -2 47.2696 6.47026  20
   8  -6  -2 49.2039 5.84484  21
   7  -6  -2 46.0896 6.09269  21
   7  -6  -2 55.7107 6.11305  18
   7  -6  -2 45.5156 5.75054  19
   7  -6  -2 48.7703 7.38442  20
   6  -6  -2 45.4770 4.73630  19
   6  -6  -2 43.5079 5.51555  18
   6  -6  -2 40.1155 6.85031  20
   6  -6  -2 37.4184 6.10912  21
   6  -6  -2 44.1043 4.44677  25
   5  -6  -2 52.4019 6.00560   7
   5  -6  -2 69.0335 5.71359  10
   5  -6  -2 59.9333 5.20314  25
   5  -6  -2 51.3281 7.27354  22
   5  -6  -2 69.4060 5.48290   4
   5  -6  -2 52.8393 5.99489  24
   5  -6  -2 50.0356 7.28765  23
   5  -6  -2 53.2649 7.72911  20
   5  -6  -2 47.1939 6.91079  21
   5  -6  -2 63.3701 6.09559  18
   5  -6  -2 58.4586 5.89351  19
   5  -6  -2 47.0911 5.96619  13
   4  -6  -2 49.7601 5.94519  13
   4  -6  -2 59.8632 5.11391   4
   4  -6  -2 56.2451 5.96188   7
   4  -6  -2 57.1422 5.26346  10
   3  -6  -2 12.4933 3.06100   7
   3  -6  -2 15.5492 3.23456  13
   3  -6  -2 16.5313 2.09225   4
   3  -6  -2 17.6335 2.29956  10
   2  -6  -2 265.273 23.0329   8
   2  -6  -2 273.205 25.4670  14
   2  -6  -2 244.159 17.0812   3
   2  -6  -2 263.990 20.0827  10
   2  -6  -2 268.760 19.2789   4
   2  -6  -2 235.097 20.4436   2
   1  -6  -2 20.3371 2.46811  10
   1  -6  -2 31.9024 5.12380   8
   1  -6  -2 28.4770 5.42745  14
   1  -6  -2 21.6563 1.64856   3
   1  -6  -2 19.9784 2.36003   4
   1  -6  -2 22.6639 2.98194   2
   0  -6  -2 84.3437 7.55858   2
   0  -6  -2 58.0405 6.45270  10
   0  -6  -2 95.8220 9.30522   8
   0  -6  -2 89.2196 10.2203  14
   0  -6  -2 65.5607 6.26843   4
   0  -6  -2 77.9723 5.22122   3
  -1  -6  -2 51.7874 9.26424  14
  -1  -6  -2 51.6074 6.49924   2
  -1  -6  -2 50.5092 3.87537   3
  -1  -6  -2 58.2402 8.68941   8
  -1  -6  -2 58.8364 7.12018  26
  -2  -6  -2 5.29710 4.20190  26
  -2  -6  -2 7.93300 5.12996  14
  -2  -6  -2 5.42968 0.98592   3
  -2  -6  -2 2.40968 4.01721   8
  -2  -6  -2 2.91125 3.15719   2
  -3  -6  -2 2.05404 3.06291  26
   3   6   2 3.89714 2.42546  26
  -4  -6  -2 44.3441 6.56133  26
   4   6   2 37.8675 5.55126  26
  -5  -6  -2 35.4186 5.56768  26
   5   6   2 39.9515 5.37275  26
   6   6   2 12.3888 2.40524  26
   6   6   2 7.83680 1.81498  21
   6   6   2 14.4294 1.78809  16
   9  -7  -2 0.64487 2.30615  20
   8  -7  -2 2.08696 2.89780  21
   8  -7  -2 2.11398 1.77590  19
   8  -7  -2 2.72792 2.41284  20
   7  -7  -2 0.47819 2.17677  21
   7  -7  -2 0.14440 1.79131  19
   7  -7  -2 -0.5171 2.52461  18
   7  -7  -2 0.72735 2.49266  20
   6  -7  -2 11.1802 3.91007  22
   6  -7  -2 11.6166 2.93379  24
   6  -7  -2 9.31952 3.93459  20
   6  -7  -2 11.1008 2.74026  19
   6  -7  -2 7.13510 3.59884  23
   6  -7  -2 10.4355 2.86537  18
   6  -7  -2 9.42980 3.76705  21
   6  -7  -2 10.9712 2.23673  25
   5  -7  -2 30.0062 4.85365  13
   5  -7  -2 43.0073 4.15911  25
   5  -7  -2 27.8405 4.73381   7
   5  -7  -2 35.0432 5.41997  21
   5  -7  -2 30.1843 4.00317  10
   5  -7  -2 42.2164 4.96555  24
   5  -7  -2 49.6997 5.95089  22
   5  -7  -2 26.7213 3.81101   4
   5  -7  -2 44.1541 4.70202  18
   5  -7  -2 42.6649 6.12640  20
   5  -7  -2 48.1100 6.47337  23
   5  -7  -2 40.2325 4.70415  19
   4  -7  -2 96.2028 9.96586  22
   4  -7  -2 80.0786 10.2216  21
   4  -7  -2 97.9070 8.02378  25
   4  -7  -2 105.402 9.12679   7
   4  -7  -2 92.3970 8.89271  24
   4  -7  -2 99.0102 10.8237  23
   4  -7  -2 96.1760 9.17226  13
   4  -7  -2 103.130 8.85501  18
   3  -7  -2 14.5341 4.28022  22
   3  -7  -2 13.3822 2.86756  24
   3  -7  -2 15.0505 4.09362  23
   2  -7  -2 17.2642 4.82757   8
   2  -7  -2 11.0722 1.69267   2
   2  -7  -2 11.5633 0.90128   3
   2  -7  -2 14.3385 5.16128  14
   1  -7  -2 12.2652 5.29097  14
   1  -7  -2 8.54509 0.83467   3
   1  -7  -2 13.6329 4.82999   8
   1  -7  -2 9.58144 2.17562   2
   0  -7  -2 16.3870 4.08898  26
   0  -7  -2 20.8074 5.80018   8
   0  -7  -2 20.1820 2.29634  17
   0  -7  -2 22.4467 3.20349  16
   0  -7  -2 20.8370 6.39248  14
   0  -7  -2 20.3148 3.69399   2
   0  -7  -2 17.3420 1.58300   3
  -1  -7  -2 159.457 15.6774  26
  -1  -7  -2 137.094 11.4988  17
  -1  -7  -2 147.780 12.1316  16
  -1  -7  -2 173.401 11.1982   3
  -1  -7  -2 186.060 17.1929   8
  -1  -7  -2 174.782 14.9083   2
  -1  -7  -2 183.588 18.9975  14
  -2  -7  -2 -0.2304 4.60607  14
  -2  -7  -2 -0.7986 3.17964  16
  -2  -7  -2 0.84199 4.22858   8
  -2  -7  -2 -0.5012 4.24262  26
  -3  -7  -2 28.6480 6.12583  26
   3   7   2 26.2272 5.15211  26
  -4  -7  -2 168.017 16.5737  26
   4   7   2 165.253 16.1298  26
  -5  -7  -2 8.92657 3.01578  26
   5   7   2 6.63030 2.46498  26
   9  -8  -2 0.48601 1.43083  20
   8  -8  -2 62.4801 5.81733  19
   8  -8  -2 52.2994 7.40355  20
   8  -8  -2 70.3855 7.17658  21
   7  -8  -2 14.9780 2.28515  25
   7  -8  -2 15.1383 3.11229  19
   7  -8  -2 31.3973 4.10358  21
   7  -8  -2 15.3243 4.37789  20
   7  -8  -2 14.8176 2.96190  18
   6  -8  -2 2.18254 2.72272  22
   6  -8  -2 -0.1657 2.37885  21
   6  -8  -2 2.23571 3.32737  23
   6  -8  -2 0.82867 3.40358  20
   6  -8  -2 0.30167 1.80404  25
   6  -8  -2 1.76439 2.87369  24
   6  -8  -2 1.22146 1.76988  19
   6  -8  -2 1.43328 2.29758  18
   5  -8  -2 613.773 49.2019  24
   5  -8  -2 617.326 50.3248  18
   5  -8  -2 601.744 44.8257  25
   5  -8  -2 605.476 56.3903  23
   5  -8  -2 565.707 53.8808  22
   4  -8  -2 45.0168 4.78134  25
   4  -8  -2 55.6862 6.83186  23
   4  -8  -2 40.7374 5.50603  24
   4  -8  -2 38.4193 6.25102  21
   4  -8  -2 45.8036 6.60398  22
   3  -8  -2 0.24802 0.79405  17
   3  -8  -2 -0.3169 3.60801  23
   3  -8  -2 0.31138 2.33320  24
   3  -8  -2 -0.4109 2.57564  21
   3  -8  -2 0.00488 2.14848  25
   3  -8  -2 1.81515 3.97331  22
   2  -8  -2 24.2596 5.04582  22
   2  -8  -2 24.7586 2.44506  17
   2  -8  -2 21.6023 1.69664   3
   2  -8  -2 22.5420 2.31729  16
   2  -8  -2 33.4318 4.46048  23
   2  -8  -2 36.5032 7.55966  14
   2  -8  -2 23.6487 3.29208  25
   2  -8  -2 28.3854 6.28573   8
   2  -8  -2 23.4370 2.63716   2
   2  -8  -2 36.5914 3.96355  24
   1  -8  -2 -1.2077 2.17868  26
   1  -8  -2 2.48063 2.81846  24
   1  -8  -2 -1.4250 1.45124  17
   1  -8  -2 -0.1296 1.75226  16
   1  -8  -2 -2.2299 2.28297  25
   1  -8  -2 1.27514 3.96964   8
   1  -8  -2 1.10223 3.32486  23
   1  -8  -2 -1.8527 1.39931   2
   1  -8  -2 0.29061 4.34215  14
   0  -8  -2 132.864 10.9241  16
   0  -8  -2 141.254 10.3798  17
   0  -8  -2 139.809 9.78152   3
   0  -8  -2 155.570 13.2489   2
   0  -8  -2 160.699 16.9875  14
   0  -8  -2 135.868 12.6131  24
   0  -8  -2 167.842 15.4563   8
   0  -8  -2 129.514 14.0354  26
  -1  -8  -2 40.7341 3.88337  17
  -1  -8  -2 39.7641 7.55275   8
  -1  -8  -2 32.0375 5.83861  26
  -1  -8  -2 29.2510 2.61078   3
  -1  -8  -2 35.3626 4.54694  16
  -1  -8  -2 29.5489 5.43489   2
  -1  -8  -2 45.0785 8.72707  14
  -2  -8  -2 18.2986 5.27265  26
  -2  -8  -2 18.6685 4.09142  16
  -3  -8  -2 17.5458 4.35379  26
  -4  -8  -2 4.75515 3.00410  26
   4   8   2 4.66114 2.47779  26
  -5  -8  -2 3.68332 2.08785  26
   5   8   2 1.55090 1.83965  26
   8  -9  -2 79.3047 7.56748  21
   8  -9  -2 60.2836 8.41600  20
   7  -9  -2 -0.5823 1.31691  18
   7  -9  -2 0.54499 2.28853  20
   7  -9  -2 0.51634 2.24317  19
   7  -9  -2 3.63714 2.20419  21
   7  -9  -2 0.86982 3.09801  22
   6  -9  -2 8.40553 3.88625  23
   6  -9  -2 5.70785 2.82376  20
   6  -9  -2 8.85431 1.64322  25
   6  -9  -2 7.16511 3.47300  21
   6  -9  -2 6.17752 4.10405  22
   6  -9  -2 6.85224 2.99332  24
   5  -9  -2 0.60475 2.78045  24
   5  -9  -2 2.47596 4.11088  23
   5  -9  -2 1.18450 3.21716  21
   5  -9  -2 0.76943 1.98144  25
   5  -9  -2 2.45851 4.44671  22
   4  -9  -2 8.48305 3.33799  21
   4  -9  -2 14.1012 3.37662  24
   4  -9  -2 14.0459 4.64754  23
   4  -9  -2 7.79412 2.50675  25
   4  -9  -2 12.8503 4.92544  22
   3  -9  -2 75.3767 5.80957  17
   3  -9  -2 78.7916 10.2313  22
   3  -9  -2 98.1939 9.72138  23
   3  -9  -2 91.8117 8.27841  24
   3  -9  -2 78.0731 7.35031  25
   2  -9  -2 3.33018 1.78620  25
   2  -9  -2 2.82524 3.88919  14
   2  -9  -2 1.72875 0.79341   2
   2  -9  -2 1.63778 0.25228   3
   2  -9  -2 5.55499 3.81444   8
   2  -9  -2 3.54491 1.29033  17
   2  -9  -2 3.01343 0.86627  16
   2  -9  -2 3.54700 3.97455  23
   2  -9  -2 4.67546 2.89954  24
   1  -9  -2 4.75600 5.51781  14
   1  -9  -2 5.77846 2.41892  26
   1  -9  -2 4.47266 1.86250   2
   1  -9  -2 5.05753 3.77029  23
   1  -9  -2 5.52835 1.74500  16
   1  -9  -2 8.12657 2.36695  24
   1  -9  -2 3.96654 2.52624  25
   1  -9  -2 6.08562 1.83873  17
   1  -9  -2 5.83468 5.13090   8
   0  -9  -2 309.547 27.4404   8
   0  -9  -2 318.251 23.8734  24
   0  -9  -2 275.373 26.1391  26
   0  -9  -2 306.438 30.2786  14
   0  -9  -2 291.257 20.4253  16
   0  -9  -2 234.167 21.5767  25
   0  -9  -2 279.434 19.7089  17
  -1  -9  -2 40.3903 5.75565  26
  -1  -9  -2 43.5904 4.34572  16
  -1  -9  -2 32.7383 3.67861  17
  -2  -9  -2 0.37998 2.87755  26
  -2  -9  -2 0.01025 2.08568  16
  -3  -9  -2 -0.0988 3.71152  26
  -3  -9  -2 1.70476 2.72423  16
  -4  -9  -2 22.2771 2.60176  25
  -4  -9  -2 14.5712 3.62404  26
  -4  -9  -2 16.1171 2.34633  16
   4   9   2 9.79872 3.27166  26
   7 -10  -2 14.8777 2.86897  22
   7 -10  -2 9.36006 2.93694  21
   7 -10  -2 7.92389 3.16108  23
   6 -10  -2 12.4744 4.36098  22
   6 -10  -2 13.7085 2.75535  24
   6 -10  -2 15.6197 3.54376  23
   6 -10  -2 4.93587 3.15861  21
   5 -10  -2 16.9278 2.53581  25
   5 -10  -2 14.3482 5.03622  23
   5 -10  -2 14.5068 5.14899  22
   5 -10  -2 19.5248 3.65333  24
   4 -10  -2 43.0029 4.83120  25
   4 -10  -2 42.4103 5.99014  24
   4 -10  -2 53.9755 6.74127  23
   4 -10  -2 36.4218 6.90868  22
   3 -10  -2 98.7784 8.77641  24
   3 -10  -2 86.0988 8.07269  25
   3 -10  -2 92.2797 11.6866  23
   3 -10  -2 97.8298 11.4577  22
   3 -10  -2 90.8093 6.52412  17
   2 -10  -2 -1.3082 4.86096   8
   2 -10  -2 3.95448 5.73957  14
   2 -10  -2 5.57745 3.17843  24
   2 -10  -2 3.15788 4.24516  23
   2 -10  -2 5.62972 2.38868  25
   2 -10  -2 3.60841 1.40067  17
   1 -10  -2 99.5427 9.10315  24
   1 -10  -2 107.450 7.45857  17
   1 -10  -2 102.262 7.48446  16
   1 -10  -2 83.0136 9.64790  26
   1 -10  -2 96.0660 8.57027  25
   1 -10  -2 95.6031 11.2861  23
   0 -10  -2 5.04242 2.12188  17
   0 -10  -2 3.32708 2.14660  16
   0 -10  -2 5.23939 2.93669  26
   0 -10  -2 3.10403 2.78045  25
   0 -10  -2 7.02768 2.30162  24
  -1 -10  -2 1.48727 1.98161  25
  -1 -10  -2 -0.0455 2.34197  16
  -1 -10  -2 1.08565 2.13471  17
  -1 -10  -2 2.21982 3.10834  26
  -2 -10  -2 40.9727 4.57259  25
  -2 -10  -2 25.4600 4.73443  26
  -2 -10  -2 27.7768 3.64093  16
  -3 -10  -2 12.8868 2.11518  16
  -3 -10  -2 11.9287 3.34621  26
  -3 -10  -2 12.6433 2.09345  25
   7 -11  -2 13.9243 2.79993  23
   6 -11  -2 2.59804 3.55537  23
   6 -11  -2 1.84587 3.61697  22
   6 -11  -2 -0.6951 1.88497  24
   5 -11  -2 6.84768 4.44540  22
   5 -11  -2 3.60014 2.96365  24
   5 -11  -2 8.84896 4.27283  23
   5 -11  -2 6.09077 1.38724  25
   4 -11  -2 55.6218 6.23063  24
   4 -11  -2 52.1436 4.90170  25
   4 -11  -2 36.5191 6.96532  23
   3 -11  -2 5.23946 4.47066  23
   3 -11  -2 2.11581 2.21267  25
   3 -11  -2 3.61685 3.20282  24
   3 -11  -2 2.73408 0.71820  17
   2 -11  -2 8.86013 1.49856  17
   2 -11  -2 10.5253 3.35301  24
   2 -11  -2 4.42965 4.10862  23
   2 -11  -2 10.5336 2.05962  25
   1 -11  -2 3.36041 1.67483  17
   1 -11  -2 3.73812 2.37653  25
   1 -11  -2 4.59907 3.06961  24
   0 -11  -2 18.3901 3.48956  26
   0 -11  -2 31.3454 3.03247  16
   0 -11  -2 31.1188 3.56649  25
   0 -11  -2 33.4366 3.82008  24
   0 -11  -2 29.8311 2.87173  17
  -1 -11  -2 296.079 20.5447  25
  -1 -11  -2 233.731 24.1317  26
  -1 -11  -2 273.896 18.5650  17
  -1 -11  -2 269.243 18.8931  16
  -2 -11  -2 18.0152 1.95723  17
  -2 -11  -2 9.93775 2.64546  26
  -2 -11  -2 12.7829 1.95206  25
  -2 -11  -2 12.4778 2.04008  16
   6 -12  -2 5.65885 2.51584  23
   6 -12  -2 6.57724 1.94414  24
   5 -12  -2 29.1975 3.46948  24
   5 -12  -2 18.8720 3.95352  23
   4 -12  -2 19.2041 3.93237  24
   4 -12  -2 33.6602 4.92271  23
   4 -12  -2 33.8138 2.99682  25
   3 -12  -2 69.7737 9.26108  23
   3 -12  -2 81.7807 8.25365  24
   3 -12  -2 90.6230 6.79029  25
   2 -12  -2 7.85663 1.15602  17
   2 -12  -2 11.5812 1.88418  25
   2 -12  -2 5.09917 3.42493  23
   2 -12  -2 9.60904 2.48269  24
   1 -12  -2 35.6985 4.29392  24
   1 -12  -2 37.6338 3.01315  17
   1 -12  -2 36.6969 3.73847  25
   0 -12  -2 80.3783 6.88023  25
   0 -12  -2 87.0106 6.15398  17
  -1 -12  -2 7.64316 1.59230  25
  -1 -12  -2 8.57054 1.29149  17
   6 -13  -2 23.2311 3.44698  23
   5 -13  -2 1.68572 2.27385  23
   5 -13  -2 1.88105 2.21580  24
   4 -13  -2 -1.1907 3.22780  23
   4 -13  -2 1.98371 1.69807  24
   3 -13  -2 186.150 13.6688  24
   3 -13  -2 131.675 15.3402  23
   2 -13  -2 14.9937 2.99086  24
   2 -13  -2 22.3687 2.26977  25
   1 -13  -2 2.36656 1.40772  24
   1 -13  -2 2.29936 1.19678  25
   1 -13  -2 2.13845 0.71097  17
   0 -13  -2 58.8188 4.22109  17
   0 -13   3 18.2440 2.93496  24
   1 -13   3 29.0034 3.65480  24
   1 -13   3 30.0465 2.56221  17
   2 -13   3 28.6594 3.33409  24
   2 -13   3 19.6607 4.20284  23
   3 -13   3 0.28909 1.48267  24
   3 -13   3 0.76206 2.42103  23
   4 -13   3 45.3190 6.65420  23
   5 -13   3 13.9829 2.54091  23
  -2 -12   3 18.7635 2.46453  24
  -1 -12   3 2.70992 2.64603  24
  -1 -12   3 0.49329 1.71843  17
   0 -12   3 3.99627 2.24894  24
   0 -12   3 5.02503 1.36066  17
   1 -12   3 2.07290 2.23809  23
   1 -12   3 2.06303 1.09127  17
   1 -12   3 3.50751 2.13232  24
   2 -12   3 19.9613 3.45386  24
   2 -12   3 18.7839 4.47330  23
   3 -12   3 -0.8660 2.67428  23
   3 -12   3 0.25472 1.66933  24
   3 -12   3 0.47907 2.76940  22
   4 -12   3 117.379 11.0452  22
   4 -12   3 110.017 9.40677  24
   4 -12   3 91.8493 11.1225  23
   5 -12   3 41.6507 5.02892  23
   5 -12   3 25.0928 4.50184  22
   6 -12   3 0.16700 2.04825  22
  -2 -11   3 4.41948 2.62197  16
  -2 -11   3 3.95590 2.06498  17
  -2 -11   3 3.88146 2.68535  24
  -2 -11   3 4.52179 3.40664  26
  -1 -11   3 61.7956 7.54729  26
  -1 -11   3 70.8493 5.94818  16
  -1 -11   3 67.0760 6.54599  24
  -1 -11   3 54.9190 5.11292  17
   0 -11   3 186.153 19.1194  26
   0 -11   3 209.988 14.6825  17
   0 -11   3 216.685 14.9900  16
   0 -11   3 219.532 18.1145  24
   1 -11   3 0.95010 2.22733  24
   1 -11   3 2.20538 1.09210  16
   1 -11   3 3.17229 2.84601  23
   1 -11   3 1.64170 1.79752  17
   2 -11   3 51.9634 7.05149  22
   2 -11   3 48.5170 6.20387  24
   2 -11   3 51.5923 4.24411  17
   2 -11   3 56.7737 8.34048  23
   3 -11   3 37.4518 4.74265  24
   3 -11   3 46.9280 6.55154  23
   3 -11   3 35.7935 3.00127  17
   3 -11   3 35.1651 6.37475  22
   4 -11   3 -0.9805 2.18272  24
   4 -11   3 -0.7793 3.86450  23
   4 -11   3 -2.8223 2.98321  22
   5 -11   3 45.0849 6.10878  23
   5 -11   3 45.5272 6.47770  22
   6 -11   3 4.54718 2.63876  22
   6 -11   3 5.89460 3.10830  23
  -4 -10   3 13.3533 2.15181  25
  -3 -10   3 6.71508 2.74932  24
  -3 -10   3 7.68772 3.34357  16
  -3 -10   3 10.0887 4.43645  26
  -2 -10   3 9.95717 2.84193  24
  -2 -10   3 4.95677 4.22380  26
  -2 -10   3 9.27210 3.53748  16
  -1 -10   3 65.1366 6.79198  16
  -1 -10   3 72.4571 8.66766  26
  -1 -10   3 67.3962 6.11856  17
  -1 -10   3 65.5312 7.88634  24
   0 -10   3 86.9518 7.07266  16
   0 -10   3 83.2030 8.99701  26
   0 -10   3 77.8317 6.67753  17
   0 -10   3 73.6981 8.72190  24
   1 -10   3 38.3768 6.45092  22
   1 -10   3 50.2790 6.63742  23
   1 -10   3 44.8994 4.58599  16
   1 -10   3 50.5073 6.36048  24
   1 -10   3 47.9013 8.76979   8
   1 -10   3 48.2910 5.91974  26
   1 -10   3 42.2132 9.32724  14
   1 -10   3 52.3430 4.47713  17
   2 -10   3 7.22420 4.72064  22
   2 -10   3 9.12599 4.46491  23
   2 -10   3 4.32044 3.08772  24
   2 -10   3 5.43642 1.54413  17
   3 -10   3 -0.3754 2.95255  23
   3 -10   3 2.30605 2.85820  24
   3 -10   3 0.86193 0.92957  17
   3 -10   3 -1.3383 4.61508  22
   4 -10   3 130.672 13.8490  23
   4 -10   3 122.009 13.6919  22
   4 -10   3 124.211 13.5130  21
   5 -10   3 268.560 24.9342  23
   5 -10   3 260.101 24.1351  22
   5 -10   3 236.281 24.2054  21
   6 -10   3 3.27079 2.29643  23
   6 -10   3 3.99237 2.62256  21
   6 -10   3 3.25721 2.88526  22
   7 -10   3 56.1408 6.96960  22
   7 -10   3 59.1811 6.32716  21
   5   9  -3 -0.7473 1.58137  26
  -5  -9   3 -1.4735 2.21837  26
   4   9  -3 108.699 11.8619  26
  -4  -9   3 130.009 13.0425  26
  -3  -9   3 8.60719 3.53479  24
  -3  -9   3 14.5573 5.25096  26
  -3  -9   3 11.5707 4.09624  16
  -2  -9   3 11.2648 3.85434  16
  -2  -9   3 7.59116 4.68071  26
  -2  -9   3 12.1529 3.05218  24
  -1  -9   3 100.419 12.9117   8
  -1  -9   3 103.478 10.9901  26
  -1  -9   3 100.021 9.37527  24
  -1  -9   3 95.7995 7.55020  17
  -1  -9   3 87.7370 13.9160  14
  -1  -9   3 93.8217 8.12101  16
   0  -9   3 31.1970 8.74442  14
   0  -9   3 51.5137 5.86199  24
   0  -9   3 30.9603 8.10219   8
   0  -9   3 45.6405 6.32139  26
   0  -9   3 44.5757 4.31132  17
   0  -9   3 45.3104 5.11042  16
   0  -9   3 34.0559 5.63513   2
   0  -9   3 37.5798 5.81533  23
   1  -9   3 142.458 13.5559  23
   1  -9   3 117.850 11.5990  24
   1  -9   3 124.296 11.3374   2
   1  -9   3 117.631 13.0646  22
   1  -9   3 130.778 14.0833   8
   1  -9   3 117.863 9.41594  16
   1  -9   3 131.597 12.2895  26
   1  -9   3 126.171 15.5428  14
   1  -9   3 118.210 9.14892  17
   2  -9   3 -0.0412 3.13087   7
   2  -9   3 -1.4280 2.80670  24
   2  -9   3 1.12851 1.36966  17
   2  -9   3 0.71248 3.63322  23
   2  -9   3 1.71510 3.23087  13
   2  -9   3 1.50911 4.19385  22
   2  -9   3 0.08092 1.16915  16
   2  -9   3 0.32057 0.20238   3
   2  -9   3 0.42685 1.19962   2
   3  -9   3 121.956 11.5345  13
   3  -9   3 114.404 12.9016  22
   3  -9   3 121.527 12.8171  21
   3  -9   3 103.961 10.9024  24
   3  -9   3 120.803 11.2608   7
   3  -9   3 143.298 13.3522  23
   3  -9   3 116.007 8.42273  17
   4  -9   3 2.58031 3.96589  21
   4  -9   3 0.67871 0.66511  17
   4  -9   3 0.62918 3.10260  22
   4  -9   3 0.79112 2.50914  13
   4  -9   3 1.21513 2.51705   7
   4  -9   3 0.24754 2.86197  23
   5  -9   3 9.03796 4.37671  21
   5  -9   3 12.4766 4.75938  22
   5  -9   3 12.4683 4.24549  23
   6  -9   3 21.2807 4.55952  21
   6  -9   3 22.5632 4.81793  22
   6  -9   3 13.5984 3.88765  23
   7  -9   3 -0.2578 2.07261  21
   7  -9   3 0.11618 2.15983  22
   5   8  -3 7.31623 2.50334  26
  -5  -8   3 9.05278 3.76369  26
   4   8  -3 3.32964 3.23033  26
  -4  -8   3 3.68513 4.82868  26
  -3  -8   3 32.4918 6.48114  26
  -2  -8   3 21.8424 3.57933  16
  -2  -8   3 25.3946 4.66493  26
  -2  -8   3 18.7187 1.93551   3
  -2  -8   3 20.0464 4.71457   2
   1   8  -3 3.00972 1.15438   6
   1   8  -3 0.92507 1.05374  12
  -1  -8   3 2.89724 2.14412  16
  -1  -8   3 1.60492 0.57104   3
  -1  -8   3 4.33831 3.47529  26
  -1  -8   3 2.83838 2.06695  17
  -1  -8   3 1.80369 3.11641   2
   0   8  -3 17.4824 1.95590   6
   0   8  -3 16.3919 1.95696  12
   0  -8   3 22.3789 4.23748   2
   0  -8   3 21.6827 3.96969  26
   0  -8   3 16.9918 1.53414   3
   0  -8   3 18.1613 3.96366  23
   0  -8   3 18.5165 2.62844  17
   0  -8   3 19.0936 3.14641  16
   1  -8   3 307.476 27.3666  26
   1  -8   3 323.275 28.1503   8
   1  -8   3 338.376 24.5797  13
   1  -8   3 268.804 25.3465  24
   1  -8   3 265.360 21.3935  16
   1  -8   3 351.715 24.0410   7
   1  -8   3 290.556 20.9292  17
   1  -8   3 313.531 20.3722   3
   1  -8   3 329.756 25.3604   2
   1  -8   3 305.947 30.8700  14
   1  -8   3 292.492 27.9997  22
   1  -8   3 296.618 29.0214  23
   2  -8   3 -0.6272 1.42160  17
   2  -8   3 2.88647 3.10622  13
   2  -8   3 0.71456 1.16798  16
   2  -8   3 5.09464 3.22609   7
   2  -8   3 1.95632 3.58420  22
   2  -8   3 2.82158 3.13316  21
   2  -8   3 0.56855 0.26487   3
   2  -8   3 1.49633 2.78899  24
   2  -8   3 0.28515 1.13669   2
   2  -8   3 2.78533 3.60092  23
   3  -8   3 6.33343 2.80365  24
   3  -8   3 5.52251 3.70901  21
   3  -8   3 11.7025 3.99700  13
   3  -8   3 10.0685 4.15880  22
   3  -8   3 12.1700 4.01101   7
   3  -8   3 11.3714 1.58282  17
   3  -8   3 11.2892 3.94423  23
   4  -8   3 48.0679 6.81396  21
   4  -8   3 40.0321 7.23162  20
   4  -8   3 43.0197 3.54008  17
   4  -8   3 59.9372 7.15772  22
   4  -8   3 47.7002 6.53900   7
   4  -8   3 49.6473 7.40276  23
   4  -8   3 53.0039 6.94608  13
   5  -8   3 89.5411 9.13272  22
   5  -8   3 65.6529 9.61025  20
   5  -8   3 88.4786 9.82607  23
   5  -8   3 82.2098 9.13223  21
   6  -8   3 19.9850 4.70158  21
   6  -8   3 24.4169 4.28351  20
   6  -8   3 12.1056 4.37965  22
   7  -8   3 1.97753 3.24531  21
   7  -8   3 1.10644 2.07992  20
   7  -8   3 0.99852 2.30769  22
   8  -8   3 45.8919 5.06435  21
   6   7  -3 0.64370 1.75423  26
   6   7  -3 1.65279 1.25171  16
   5   7  -3 52.7963 6.33397  26
  -5  -7   3 52.1282 7.34760  26
   4   7  -3 54.9653 7.29699  26
  -4  -7   3 54.6265 8.31616  26
   3   7  -3 142.185 8.87709  12
   3   7  -3 183.000 15.4948  26
   3   7  -3 144.975 8.90324   6
  -3  -7   3 165.580 16.6206  26
   2   7  -3 60.8204 3.84786  12
   2   7  -3 57.8791 3.82964   6
  -2  -7   3 56.1217 6.21263  16
  -2  -7   3 56.8313 7.99162   2
  -2  -7   3 52.4696 4.23845   3
  -2  -7   3 62.0048 8.11324   9
  -2  -7   3 59.9202 8.29408  26
  -2  -7   3 67.3354 8.98003  15
   1   7  -3 166.125 8.74322   6
   1   7  -3 163.571 8.74200  12
  -1  -7   3 169.444 15.1799  15
  -1  -7   3 168.472 15.5611  26
  -1  -7   3 160.227 10.8698   3
  -1  -7   3 154.137 14.1985   9
  -1  -7   3 170.126 14.8847   2
  -1  -7   3 117.061 12.0542  16
   0  -7   3 435.950 36.4346  16
   0  -7   3 525.098 38.5912   7
   0  -7   3 552.360 40.1860   9
   0  -7   3 580.378 42.2991  15
   0  -7   3 538.108 39.6919  13
   0  -7   3 542.064 42.6185   2
   0  -7   3 500.378 34.9006   3
   0  -7   3 536.118 46.5136  26
   1  -7   3 12.7960 2.82203   2
   1  -7   3 11.7062 1.03875   3
   1  -7   3 11.9591 3.45747   7
   1  -7   3 11.9569 3.40752  13
   2  -7   3 53.2007 4.91431   2
   2  -7   3 36.4461 3.67142  17
   2  -7   3 41.4235 4.08120  16
   2  -7   3 39.6964 6.00871  21
   2  -7   3 49.6159 6.10539  13
   2  -7   3 49.5829 3.25023   3
   2  -7   3 51.2892 6.02525   7
   2  -7   3 54.3046 6.45289  23
   3  -7   3 3.83663 3.25722  23
   3  -7   3 4.67446 3.82597  22
   3  -7   3 2.28019 3.33929  21
   3  -7   3 1.52801 3.21703  20
   3  -7   3 3.36777 2.89803  13
   3  -7   3 2.67091 2.88707   7
   4  -7   3 143.687 13.4197  23
   4  -7   3 122.960 8.77435  17
   4  -7   3 144.910 13.2402  22
   4  -7   3 118.877 13.1046  21
   4  -7   3 144.176 12.3232  13
   4  -7   3 94.8691 13.8319  20
   4  -7   3 156.490 12.2011   7
   5  -7   3 69.5406 8.07845  21
   5  -7   3 79.3383 8.88351  23
   5  -7   3 49.0222 9.03843  20
   5  -7   3 79.7609 8.11723  13
   5  -7   3 78.1797 7.87276   7
   5  -7   3 77.0254 9.09258  22
   6  -7   3 -1.3206 3.71505  22
   6  -7   3 1.40884 2.60580  21
   6  -7   3 0.47035 2.39516  20
   7  -7   3 39.8312 4.73352  21
   7  -7   3 22.9256 4.70227  20
   8  -7   3 2.59277 1.79828  21
   8  -7   3 1.79814 1.60101  20
   7   6  -3 1.66770 0.87271  16
   7   6  -3 1.79357 1.30722  26
   6   6  -3 -0.0539 1.30718  16
   6   6  -3 2.18922 2.76395  26
   5   6  -3 181.314 19.0063  20
   5   6  -3 191.921 17.3046  26
  -5  -6   3 153.073 18.2539  26
   4   6  -3 347.449 28.2444  26
  -4  -6   3 281.754 25.2955   9
  -4  -6   3 269.783 26.5058  15
  -4  -6   3 299.527 29.0757  26
   3   6  -3 125.604 12.6371  26
   3   6  -3 129.229 7.35965  12
   3   6  -3 126.843 7.36364   6
  -3  -6   3 134.256 12.8874  15
  -3  -6   3 134.675 13.9493  26
  -3  -6   3 129.273 12.1023   9
   2   6  -3 20.5348 2.04751   6
   2   6  -3 21.7079 2.12195  12
  -2  -6   3 21.0027 5.26278  15
  -2  -6   3 19.9881 1.84328   3
  -2  -6   3 24.7485 4.76987  26
  -2  -6   3 20.3983 4.71628   2
  -2  -6   3 25.7134 5.12483   9
   1   6  -3 38.5803 2.76183  12
   1   6  -3 39.7816 2.76065   6
  -1  -6   3 40.5993 3.10405   3
  -1  -6   3 47.7837 6.06609   2
  -1  -6   3 51.3300 5.97650   9
  -1  -6   3 57.4232 7.09677  15
   0  -6   3 83.2567 5.94686   3
   0  -6   3 90.4710 8.04569  13
   0  -6   3 87.8759 7.82340   7
   0  -6   3 91.4244 8.96461  15
   0  -6   3 81.2505 8.16349   2
   0  -6   3 91.1463 8.46239   9
   1  -6   3 8.71609 2.83175   7
   1  -6   3 6.40834 2.95785  15
   1  -6   3 6.30220 2.65788   9
   1  -6   3 5.26363 0.61840   3
   1  -6   3 4.27758 2.62255  13
   1  -6   3 5.96280 2.11364   2
   2  -6   3 3.19951 2.61552  13
   2  -6   3 2.10230 2.57681   7
   2  -6   3 1.29742 0.28438   3
   2  -6   3 0.19357 1.18997   2
   3  -6   3 5.74176 0.48505   3
   3  -6   3 6.39723 3.57479  22
   3  -6   3 6.31156 2.62081  13
   3  -6   3 3.62754 3.18746  20
   3  -6   3 5.79640 1.13279  17
   3  -6   3 6.88167 2.68369   7
   3  -6   3 4.31848 1.18095   2
   4  -6   3 143.654 15.0951  23
   4  -6   3 149.595 14.9727  21
   4  -6   3 128.283 16.3995  20
   4  -6   3 134.076 12.9349  19
   4  -6   3 173.626 13.7457  13
   4  -6   3 186.707 13.5646   7
   4  -6   3 151.278 10.3363  17
   4  -6   3 155.438 14.7571  22
   5  -6   3 58.3823 6.91913   7
   5  -6   3 55.8713 3.98808  17
   5  -6   3 48.4130 6.46696  21
   5  -6   3 55.7227 7.59997  22
   5  -6   3 45.9911 6.96572  20
   6  -6   3 16.7475 1.46615  17
   6  -6   3 11.0339 3.95586  20
   6  -6   3 9.98994 4.08540  22
   6  -6   3 11.7661 4.12983  21
   7  -6   3 3.48091 2.49248  22
   7  -6   3 0.67818 2.93234  20
   7  -6   3 4.39623 2.45397  21
   8  -6   3 -1.8780 1.53577  21
   8  -6   3 -0.3168 1.55118  20
   7   5  -3 33.9217 4.30525  21
   6   5  -3 28.1880 3.90478  20
   6   5  -3 25.6820 3.00599  16
   6   5  -3 21.4611 4.24049  26
   5   5  -3 20.8512 4.02011  26
   4   5  -3 264.616 14.3091  12
   4   5  -3 260.327 14.3380   6
   4   5  -3 294.364 24.4964  26
  -4  -5   3 269.644 23.3905  15
  -4  -5   3 233.366 25.2764  26
  -4  -5   3 265.568 22.1666   9
   3   5  -3 16.0499 3.13288  26
   3   5  -3 18.2760 1.97900  12
   3   5  -3 15.6317 1.92956   6
  -3  -5   3 19.2808 4.85592  15
  -3  -5   3 16.8743 4.59851  26
  -3  -5   3 20.0791 4.58104   9
   2   5  -3 24.0723 2.06826  12
   2   5  -3 25.2993 2.05264   6
  -2  -5   3 30.2702 4.90853   9
  -2  -5   3 29.0285 5.21477  15
  -2  -5   3 23.5182 2.02666   3
  -2  -5   3 28.3756 4.44859   2
  -1  -5   3 0.09552 2.64258   9
  -1  -5   3 1.09263 1.66740   7
  -1  -5   3 1.34362 0.46167   3
  -1  -5   3 1.05841 2.41123   2
  -1  -5   3 0.32926 1.58373  13
  -1  -5   3 -0.0440 2.83414  15
   0  -5   3 320.012 21.1117   3
   0  -5   3 332.895 24.1750  13
   0  -5   3 289.954 25.8368   2
   0  -5   3 306.902 25.5313  15
   0  -5   3 319.994 24.3695   9
   0  -5   3 312.911 23.4366   7
   1  -5   3 416.756 29.9878  13
   1  -5   3 388.870 26.2160   3
   1  -5   3 400.424 29.1056   7
   1  -5   3 390.214 31.1703  15
   1  -5   3 391.562 29.7315   9
   1  -5   3 368.396 31.6704   2
   2  -5   3 37.7163 4.90457  13
   2  -5   3 30.6523 3.61189   2
   2  -5   3 31.5635 2.27433   3
   2  -5   3 34.4338 4.71571   7
   3  -5   3 52.5947 6.25490  13
   3  -5   3 48.1313 4.89253   2
   3  -5   3 49.9234 6.08583   7
   3  -5   3 56.1917 3.67613   3
   4  -5   3 75.5997 7.61560   7
   4  -5   3 66.0928 4.92596  17
   4  -5   3 74.2334 8.09930  22
   4  -5   3 70.4321 5.56825   2
   4  -5   3 68.4640 7.86750  21
   4  -5   3 86.3068 7.94399  13
   4  -5   3 54.0423 8.57838  20
   4  -5   3 55.9513 6.81803  19
   5  -5   3 23.6882 4.64043   7
   5  -5   3 20.7414 2.00519  17
   5  -5   3 27.1549 4.58981  22
   5  -5   3 15.8718 4.29337  20
   5  -5   3 17.9569 3.61381  19
   5  -5   3 22.2447 4.24545  21
   5  -5   3 21.0263 4.63843  13
   6  -5   3 -0.3473 3.16248  20
   6  -5   3 1.50010 2.36121  21
   6  -5   3 2.33600 3.57409  22
   6  -5   3 1.13364 0.79637  17
   7  -5   3 0.05535 2.16633  21
   7  -5   3 -0.0076 2.92120  20
   7  -5   3 -0.4962 3.25420  22
   7  -5   3 -0.0996 0.55993  17
   8  -5   3 57.6682 6.64236  20
   7   4  -3 19.7733 3.05927  21
   7   4  -3 20.6664 3.44547  20
   7   4  -3 20.1675 2.28327  16
   7   4  -3 14.2235 2.72560  26
   7   4  -3 20.1464 2.06259  17
   6   4  -3 39.0309 4.23621  16
   6   4  -3 37.8826 5.76678  20
   6   4  -3 41.5935 5.84738  26
   5   4  -3 39.6103 4.64409  26
   5   4  -3 36.5927 3.89108  16
   5   4  -3 25.4893 4.25365   5
   5   4  -3 28.6995 4.17254  11
   5   4  -3 32.4977 4.89313   2
   4   4  -3 107.503 10.7428   2
   4   4  -3 127.288 6.97029  12
   4   4  -3 123.127 11.6408  26
   4   4  -3 121.451 6.93854   6
   4   4  -3 113.595 8.28843   3
  -4  -4   3 133.531 12.2622  15
  -4  -4   3 127.803 11.4354   9
   3   4  -3 14.2470 1.54591   6
   3   4  -3 12.0990 1.14369   3
   3   4  -3 15.1378 1.56577  12
   3   4  -3 12.8964 2.32828   2
  -3  -4   3 11.3199 3.64210   9
  -3  -4   3 12.5856 3.94647  15
   2   4  -3 361.931 17.9241  12
   2   4  -3 367.488 17.9874   6
   2   4  -3 337.764 28.1014   2
   2   4  -3 304.753 24.2276   1
   2   4  -3 359.587 23.2705   3
  -2  -4   3 372.439 26.9390   9
  -2  -4   3 334.774 24.2943   1
  -2  -4   3 386.397 28.2842  15
  -2  -4   3 323.359 28.7331   2
  -2  -4   3 336.647 23.3098   3
   1   4  -3 186.945 12.8262   3
   1   4  -3 182.014 13.4041   1
   1   4  -3 179.467 13.3405   1
   1   4  -3 188.172 15.6757   2
  -1  -4   3 173.220 16.2097   2
  -1  -4   3 187.575 13.4544   1
  -1  -4   3 212.449 15.4684   9
  -1  -4   3 191.664 12.8566   3
  -1  -4   3 197.450 14.3404   7
  -1  -4   3 195.750 16.1119  15
  -1  -4   3 192.354 13.3296   1
  -1  -4   3 204.087 14.7580  13
   0   4  -3 8.47303 0.96097   1
   0   4  -3 8.13705 0.91407   1
   0  -4   3 9.84420 2.41956   7
   0  -4   3 8.74422 2.39194  13
   0  -4   3 7.49509 1.02822   1
   0  -4   3 9.71967 0.89844   1
   0  -4   3 9.34551 2.72732   9
   0  -4   3 7.60925 2.39561   2
   0  -4   3 8.92299 2.91285  15
   0  -4   3 10.0468 0.82086   3
  -1   4  -3 317.987 20.9281   1
  -1   4  -3 314.478 20.9205   1
   1  -4   3 329.556 23.2106  13
   1  -4   3 294.646 24.4667   2
   1  -4   3 269.591 20.8735   1
   1  -4   3 290.570 23.9837  15
   1  -4   3 299.250 22.4763   7
   1  -4   3 299.823 22.8947   9
   1  -4   3 296.016 20.9610   1
   1  -4   3 302.534 20.1554   3
   2  -4   3 2.97415 1.46995   2
   2  -4   3 3.48002 2.44755   7
   2  -4   3 3.24303 2.45365  13
   2  -4   3 3.12059 0.39119   3
   3  -4   3 4.54475 0.46753   3
   3  -4   3 5.75755 1.65621   2
   3  -4   3 3.63066 2.07762  13
   3  -4   3 4.34746 2.17948   7
   4  -4   3 3.80329 1.37806   2
   4  -4   3 4.25755 0.44763   3
   4  -4   3 3.20023 2.79782  21
   4  -4   3 4.94266 2.91308  13
   4  -4   3 4.98447 1.34631  16
   4  -4   3 4.67620 3.09608  22
   4  -4   3 5.46061 3.00670   7
   4  -4   3 2.98020 2.52268  19
   4  -4   3 4.59006 1.01907  17
   4  -4   3 5.04101 2.41594  20
   5  -4   3 75.5460 4.47375   3
   5  -4   3 66.3287 4.89081  17
   5  -4   3 67.9765 7.83181  21
   5  -4   3 60.6388 4.81326  16
   5  -4   3 56.4068 5.63935   2
   5  -4   3 57.7071 7.96519  20
   5  -4   3 81.2472 7.79533   7
   5  -4   3 69.4968 8.12292  22
   5  -4   3 55.3165 6.43307  19
   5  -4   3 81.7990 7.59434  13
   6  -4   3 175.654 16.2591  22
   6  -4   3 172.671 11.5440  17
   6  -4   3 169.879 16.4383  21
   6  -4   3 144.119 18.0567  20
   7  -4   3 3.39622 2.17173  20
   7  -4   3 3.80661 0.84185  17
   7  -4   3 4.26516 3.27159  22
   7  -4   3 3.79503 2.26247  21
   8  -4   3 13.3405 2.61012  20
   8  -4   3 16.8778 2.73977  21
   8   3  -3 0.96269 0.63682  16
   8   3  -3 1.33040 0.76911  17
   7   3  -3 1.12478 0.99418  17
   7   3  -3 2.96598 1.91076  21
   7   3  -3 1.09264 1.53726  16
   7   3  -3 0.48667 2.18855  26
   7   3  -3 -0.4675 2.46622  20
   6   3  -3 19.8989 3.66907  26
   6   3  -3 19.3946 2.27385  17
   6   3  -3 20.4276 2.72219  16
   6   3  -3 26.0875 3.95047  20
   5   3  -3 37.4695 4.67425  26
   5   3  -3 24.7029 3.89748   2
   5   3  -3 27.1803 2.32452   3
   5   3  -3 36.6357 3.44769  16
   5   3  -3 32.4319 3.73145   5
   5   3  -3 33.4598 3.56504  11
   4   3  -3 86.9907 6.11108   3
   4   3  -3 89.7324 8.15923   2
   4   3  -3 85.2041 5.14346   6
   4   3  -3 86.3631 5.14610  12
   4   3  -3 89.3593 8.72759  26
  -4  -3   3 87.1841 9.22487  15
  -4  -3   3 88.3828 8.77856   9
   3   3  -3 28.1655 3.57275   2
   3   3  -3 33.3750 2.31043   3
   3   3  -3 34.4874 2.33882  12
   3   3  -3 33.2508 2.32861   6
   3   3  -3 23.7438 2.42551   1
  -3  -3   3 39.8960 4.98841   9
  -3  -3   3 36.5235 5.20272  15
   2   3  -3 329.385 25.0080   1
   2   3  -3 377.749 18.5641   6
   2   3  -3 339.579 25.0813   1
   2   3  -3 360.590 18.4841  12
   2   3  -3 378.896 24.1133   3
   2   3  -3 379.080 29.0208   2
  -2  -3   3 324.489 24.1326   3
  -2  -3   3 376.986 25.1549   1
  -2  -3   3 405.327 27.7083   9
  -2  -3   3 411.711 29.0164  15
  -2  -3   3 303.969 29.4038   2
  -2  -3   3 355.571 25.0208   1
   1   3  -3 358.559 25.1764   1
   1   3  -3 366.020 24.2238   3
   1   3  -3 362.050 29.0244   2
   1   3  -3 366.685 25.1398   1
  -1  -3   3 323.145 29.3683   2
  -1  -3   3 355.335 26.1579   7
  -1  -3   3 350.501 24.2423   3
  -1  -3   3 361.738 25.2155   1
  -1  -3   3 377.287 25.1217   1
  -1  -3   3 390.270 28.8035  15
  -1  -3   3 343.820 26.8918  13
  -1  -3   3 387.633 27.5299   9
   0   3  -3 255.372 17.6586   1
   0   3  -3 239.947 16.9904   3
   0  -3   3 278.998 17.7152   1
   0  -3   3 255.794 19.2901  13
   0  -3   3 247.852 16.9964   3
   0  -3   3 246.345 18.7334   7
   0  -3   3 271.586 20.3201  15
   0  -3   3 240.805 17.6073   1
   0  -3   3 249.478 20.7821   2
   0  -3   3 253.193 19.3723   9
  -1   3  -3 533.444 34.8353   1
  -1   3  -3 556.278 34.8290   1
   1  -3   3 494.204 33.5992   3
   1  -3   3 510.897 34.8639   1
   1  -3   3 511.057 33.6023   3
   1  -3   3 544.819 37.6372  13
   1  -3   3 466.579 39.0364  15
   1  -3   3 470.202 34.7976   1
   1  -3   3 457.073 37.3060   9
   1  -3   3 550.735 36.5854   7
   1  -3   3 439.684 40.1444   2
  -2   3  -3 98.3887 6.66484   1
  -2   3  -3 102.391 6.67394   1
   2  -3   3 91.5649 8.20021   2
   2  -3   3 101.943 8.55466  13
   2  -3   3 99.3446 8.27936   7
   2  -3   3 81.9512 6.63572   1
   2  -3   3 88.0455 6.67593   1
   2  -3   3 96.8623 6.37862   3
   3  -3   3 578.793 42.7463  13
   3  -3   3 569.855 41.5035   7
   3  -3   3 550.165 37.7023   3
   3  -3   3 567.346 45.1399   2
   4  -3   3 99.7367 9.16735  13
   4  -3   3 99.5747 8.89917   7
   4  -3   3 89.9125 6.30683   3
   4  -3   3 93.6798 8.30242   2
   5  -3   3 138.436 8.15159   3
   5  -3   3 130.680 12.1918  21
   5  -3   3 112.875 12.1863  22
   5  -3   3 126.734 10.4430   2
   5  -3   3 136.933 11.5583  13
   5  -3   3 91.3484 10.6974  19
   5  -3   3 113.227 8.46613  17
   5  -3   3 137.300 11.2647   7
   5  -3   3 107.053 11.2820  26
   5  -3   3 117.173 8.74161  16
   5  -3   3 110.566 13.3807  20
   6  -3   3 13.0932 3.85434  20
   6  -3   3 14.8515 3.75995  22
   6  -3   3 11.0439 1.30234  16
   6  -3   3 13.3299 1.59649  17
   6  -3   3 14.7515 3.60032  21
   7  -3   3 37.4420 5.43275  21
   7  -3   3 39.6694 2.92424  17
   7  -3   3 28.2063 4.91555  20
   8  -3   3 4.29082 1.83467  21
   8   2  -3 17.2514 2.70341  21
   8   2  -3 14.7045 1.38540  16
   8   2  -3 15.6517 2.85144  20
   8   2  -3 18.7751 2.04029  17
   7   2  -3 15.0744 3.45852  21
   7   2  -3 15.4862 2.17596  16
   7   2  -3 17.2723 2.09542  17
   7   2  -3 26.0589 3.82828  20
   7   2  -3 14.4730 2.93837  26
   6   2  -3 98.7787 7.15974  16
   6   2  -3 101.642 9.35711  26
   6   2  -3 83.3625 8.06841  11
   6   2  -3 79.6496 8.44249   5
   6   2  -3 94.1553 6.98637  17
   6   2  -3 96.6260 10.6442  20
   5   2  -3 127.723 9.85280   5
   5   2  -3 125.650 9.36081  11
   5   2  -3 105.518 8.05697   3
   5   2  -3 109.500 10.3610   2
   5   2  -3 133.683 11.2959  26
   5   2  -3 107.857 8.36363  17
   5   2  -3 124.913 8.72368  16
   4   2  -3 47.3921 3.09397   6
   4   2  -3 46.6960 3.10323  12
   4   2  -3 46.4845 4.76550   2
   4   2  -3 46.2716 3.31752   3
  -4  -2   3 43.4475 5.46328   9
  -4  -2   3 43.4692 5.74933  15
   3   2  -3 0.67705 0.85259  12
   3   2  -3 0.20865 1.25311   2
   3   2  -3 0.45617 0.36688   3
   3   2  -3 0.81415 0.86104   6
   3   2  -3 0.13728 0.39633   1
  -3  -2   3 1.46195 2.44082  15
  -3  -2   3 1.21448 2.40859   9
  -3  -2   3 0.24333 0.48037   1
   2   2  -3 30.8568 2.78959  10
   2   2  -3 31.6504 2.16312   3
   2   2  -3 26.3495 2.29066   1
   2   2  -3 30.5700 2.37400   1
   2   2  -3 32.3985 2.10074  12
   2   2  -3 30.8204 2.05012   6
   2   2  -3 30.4804 2.67583   4
   2   2  -3 28.1671 3.21113   2
  -2  -2   3 27.0754 4.08448   2
  -2  -2   3 26.8830 2.18975   3
  -2  -2   3 28.2734 2.43909   1
  -2  -2   3 31.3322 2.31797   1
   1   2  -3 0.78573 0.25310   3
   1   2  -3 0.53340 0.42271   1
   1   2  -3 0.82384 0.36339   1
   1   2  -3 0.56090 1.17844   2
   1   2  -3 1.12253 0.55122   4
   1   2  -3 1.05266 0.56408  10
  -1  -2   3 0.44484 1.01311  13
  -1  -2   3 0.25221 0.53657   1
  -1  -2   3 -0.9854 1.81659   2
  -1  -2   3 0.48899 0.27772   3
  -1  -2   3 0.58372 0.29860   1
  -1  -2   3 0.54457 1.00606   7
   0   2  -3 242.677 16.0381   1
   0   2  -3 237.274 18.6082   2
   0   2  -3 245.793 16.0659   1
   0   2  -3 222.691 15.4650   3
   0  -2   3 245.811 17.0494   7
   0  -2   3 217.289 16.0240   1
   0  -2   3 244.341 17.5484  13
   0  -2   3 234.072 16.0853   1
   0  -2   3 197.621 18.7823   2
   0  -2   3 219.164 15.4607   3
  -1   2  -3 202.368 13.6691   1
  -1   2  -3 213.550 13.6677   1
  -1   2  -3 172.760 13.1728   3
   1  -2   3 196.168 13.6826   1
   1  -2   3 198.396 13.1575   3
   1  -2   3 193.118 16.0856   2
   1  -2   3 193.469 15.3747  13
   1  -2   3 197.703 14.9508   7
  -2   2  -3 49.4183 3.46829   1
  -2   2  -3 49.8073 3.46790   1
   2  -2   3 47.8142 4.63930   2
   2  -2   3 46.0706 3.45823   1
   2  -2   3 47.5939 5.38269  13
   2  -2   3 42.4968 3.44279   1
   2  -2   3 46.4547 5.21130   7
   2  -2   3 48.6698 3.28072   3
   3  -2   3 633.290 52.6406   2
   3  -2   3 650.291 49.6378  13
   3  -2   3 687.355 44.1252   3
   3  -2   3 665.523 48.2671   7
   4  -2   3 78.1285 5.25836   3
   4  -2   3 80.5081 7.68006  13
   4  -2   3 72.5764 6.98559   2
   4  -2   3 71.1856 7.27583   7
   5  -2   3 51.7309 3.23322   3
   5  -2   3 42.8861 5.79754  21
   5  -2   3 40.3317 5.12674  26
   5  -2   3 36.3625 5.74321  13
   5  -2   3 39.7728 5.79669   7
   5  -2   3 43.7706 4.00286  16
   5  -2   3 39.9924 6.29639  20
   5  -2   3 35.4170 5.33993  19
   5  -2   3 46.2297 5.98740  22
   5  -2   3 45.8254 3.60929  17
   5  -2   3 44.6858 4.77765   2
   6  -2   3 8.34846 3.34120  20
   6  -2   3 9.72995 3.48059  22
   6  -2   3 9.11991 1.69828  16
   6  -2   3 11.8674 1.65091  17
   6  -2   3 16.0780 2.96132  21
   6  -2   3 8.16015 2.31534  26
   7  -2   3 -1.1038 2.68124  21
   7  -2   3 0.79653 0.99176  17
   8  -2   3 7.78659 0.97525  17
   8  -2   3 11.0608 2.22096  21
   8   1  -3 3.08418 1.17883  17
   8   1  -3 3.48441 2.16955  20
   8   1  -3 5.84880 2.01872  21
   7   1  -3 80.2850 9.50687  20
   7   1  -3 81.8548 8.24501  26
   7   1  -3 85.7404 6.17350  16
   7   1  -3 80.3628 8.64039  21
   7   1  -3 80.5905 6.14527  17
   6   1  -3 23.8582 3.39813  11
   6   1  -3 24.7411 3.42156  26
   6   1  -3 22.0454 2.35025  16
   6   1  -3 23.5653 3.94492  21
   6   1  -3 24.0205 4.06403  20
   6   1  -3 21.5764 2.36840  17
   6   1  -3 22.8793 3.50633   5
   6   1  -3 18.2722 3.06197   2
   5   1  -3 29.4912 2.63609  16
   5   1  -3 27.5671 2.62970  17
   5   1  -3 27.4376 3.35692  11
   5   1  -3 29.8876 3.43799   2
   5   1  -3 28.5982 2.22870   3
   5   1  -3 30.5773 4.69034  20
   5   1  -3 30.5697 3.90270   5
   5   1  -3 32.5399 3.82846  26
   4   1  -3 12.8187 1.50817   6
   4   1  -3 14.1580 1.19795   3
   4   1  -3 13.8246 1.54295  12
   4   1  -3 13.7985 2.10296   2
   3   1  -3 15.3506 1.89455  10
   3   1  -3 13.8305 1.32554   6
   3   1  -3 15.1698 1.35936  12
   3   1  -3 8.90402 1.08317   1
   3   1  -3 13.2723 1.96236   2
   3   1  -3 11.2502 1.17610   1
   3   1  -3 14.9119 1.80733   4
   3   1  -3 12.8935 1.02721   3
  -3  -1   3 11.9276 1.16644   1
  -3  -1   3 11.7092 1.28769   1
   2   1  -3 32.2827 2.56264   1
   2   1  -3 34.8370 2.61638   1
   2   1  -3 34.0878 3.05735   4
   2   1  -3 36.4192 2.17586   6
   2   1  -3 36.6303 2.43370   3
   2   1  -3 34.8658 2.18278  12
   2   1  -3 36.8035 3.45486   2
   2   1  -3 36.2335 3.20231  10
  -2  -1   3 33.5240 2.67555   1
  -2  -1   3 29.4581 4.04443   2
  -2  -1   3 31.0107 2.45643   3
  -2  -1   3 35.0511 2.57542   1
   1   1  -3 168.849 13.1936   4
   1   1  -3 178.733 12.3277   1
   1   1  -3 187.380 12.3712   1
   1   1  -3 201.284 11.9018   3
   1   1  -3 200.673 14.3785   2
   1   1  -3 156.471 13.7342  10
  -1  -1   3 175.766 12.3329   1
  -1  -1   3 167.901 12.8419   7
  -1  -1   3 171.084 11.8986   3
  -1  -1   3 160.749 13.2068  13
  -1  -1   3 144.854 14.4977   2
  -1  -1   3 193.837 12.3965   1
   0   1  -3 310.403 20.7170   3
   0   1  -3 344.176 21.4787   1
   0   1  -3 314.811 21.4539   1
   0   1  -3 317.404 24.7255   2
   0  -1   3 311.180 21.4516   1
   0  -1   3 302.143 21.4781   1
   0  -1   3 274.415 24.8578   2
   0  -1   3 295.113 20.6999   3
  -1   1  -3 193.714 12.2675   1
  -1   1  -3 196.337 12.2662   1
  -1   1  -3 173.674 14.3684   2
  -1   1  -3 152.258 11.8110   3
   1  -1   3 171.902 14.4350   2
   1  -1   3 163.915 12.2396   1
   1  -1   3 165.187 11.7840   3
   1  -1   3 186.635 12.2645   1
  -2   1  -3 28.8897 2.14234   1
  -2   1  -3 27.8972 2.09687   1
   2  -1   3 27.8486 1.96532   3
   2  -1   3 26.6151 3.20419   2
   2  -1   3 24.6518 2.08739   1
   3  -1   3 6.66911 2.70949  13
   3  -1   3 6.14919 2.58804   7
   3  -1   3 5.27825 0.54493   3
   3  -1   3 5.79967 1.66535   2
   4  -1   3 5.22372 2.93610  13
   4  -1   3 5.41257 2.86747   7
   4  -1   3 7.12610 0.73927   3
   4  -1   3 7.39651 1.89731   2
   5  -1   3 363.944 27.8001   7
   5  -1   3 329.887 32.2078  26
   5  -1   3 377.403 25.2066  16
   5  -1   3 411.140 24.1898   3
   5  -1   3 374.495 24.6344  17
   5  -1   3 359.832 29.4161   2
   5  -1   3 297.174 32.4460  22
   5  -1   3 295.594 36.9818  20
   5  -1   3 360.727 28.6246  13
   5  -1   3 412.028 33.4580  21
   6  -1   3 0.81959 1.28227  16
   6  -1   3 0.39736 1.19142  17
   6  -1   3 2.24265 2.81020  21
   6  -1   3 0.11439 1.76816  26
   7  -1   3 -0.2153 2.63476  21
   7  -1   3 -0.6217 1.07990  17
   8  -1   3 76.2172 8.33697  21
   8  -1   3 90.9726 5.96162  17
   9   0  -3 16.6189 2.87997  20
   9   0  -3 15.9299 1.38562  17
   8   0  -3 41.9892 5.08201  21
   8   0  -3 43.1298 3.39433  17
   8   0  -3 39.7378 5.62701  20
   7   0  -3 3.19311 1.21028  17
   7   0  -3 3.73326 1.28195  16
   7   0  -3 2.96413 2.11372  21
   7   0  -3 3.22185 2.91313  20
   7   0  -3 2.25045 1.76846  26
   6   0  -3 37.0583 4.24952   5
   6   0  -3 33.3260 3.95228   2
   6   0  -3 38.9629 2.84643   3
   6   0  -3 37.8916 4.68147  19
   6   0  -3 40.3912 3.39919  16
   6   0  -3 35.8900 5.08327  18
   6   0  -3 41.7544 4.52743  26
   6   0  -3 46.4253 5.33419  20
   6   0  -3 36.7736 4.00191  11
   6   0  -3 38.9268 3.21009  17
   6   0  -3 36.4695 5.27416  21
   5   0  -3 9.43354 2.19193   5
   5   0  -3 4.90699 1.37242   2
   5   0  -3 6.28206 1.86237  11
   5   0  -3 7.98388 2.55675  20
   5   0  -3 7.96764 1.29447  16
   5   0  -3 5.22925 0.68511   3
   5   0  -3 8.64624 1.76786  26
   5   0  -3 8.07108 1.18862  17
   4   0  -3 1.74059 1.03638   2
   4   0  -3 0.94171 1.43548  10
   4   0  -3 0.92873 0.33986   3
   4   0  -3 1.48503 1.41261   4
   3   0  -3 45.9055 2.82477   3
   3   0  -3 39.4518 3.00426   1
   3   0  -3 33.3061 2.92545   1
   3   0  -3 39.2881 2.39736   6
   3   0  -3 41.7580 3.87153  10
   3   0  -3 40.3620 2.39830  12
   3   0  -3 37.7724 3.69249   4
   3   0  -3 43.1773 3.80491   2
  -3   0   3 40.4842 2.97771   1
  -3   0   3 37.6617 3.04410   1
   2   0  -3 64.3592 4.92030   4
   2   0  -3 58.2944 3.30200   6
   2   0  -3 64.6654 5.12435  10
   2   0  -3 57.8154 3.29882  12
   2   0  -3 67.7897 4.10748   3
   2   0  -3 56.8272 4.25861   1
   2   0  -3 60.8362 5.12577   2
  -2   0   3 62.1162 4.28424   1
  -2   0   3 49.2447 4.10280   3
  -2   0   3 60.3663 4.34601   1
   1   0  -3 10.4304 0.84866   3
   1   0  -3 10.3668 0.89069   1
   1   0  -3 11.5886 1.61596  10
   1   0  -3 10.9169 0.93280   1
   1   0  -3 11.6248 1.58374   2
   1   0  -3 12.3117 1.56336   4
  -1   0   3 9.90020 1.93432   2
  -1   0   3 8.90374 0.83237   3
  -1   0   3 9.25477 0.96306   1
  -1   0   3 10.1768 0.90889   1
   0   0  -3 3.00638 0.46685   1
   0   0  -3 3.67757 1.02077   2
   0   0  -3 2.83967 0.44230   3
   0   0  -3 2.78558 0.39296   1
   0   0   3 3.03600 0.46602   1
   0   0   3 2.70485 1.13299   2
   0   0   3 2.83483 0.41415   1
   0   0   3 2.63215 0.38456   3
  -1   0  -3 284.362 19.9043   3
  -1   0  -3 315.024 20.6292   1
  -1   0  -3 272.525 23.9024   2
  -1   0  -3 331.925 20.6405   1
   1   0   3 300.056 20.6125   1
   1   0   3 265.545 20.6029   1
   1   0   3 276.317 19.8558   3
   1   0   3 330.202 23.9669   2
  -2   0  -3 27.6450 2.14868   1
  -2   0  -3 29.7962 2.19440   1
   2   0   3 22.4619 2.10878   1
   2   0   3 26.1572 2.07239   1
   2   0   3 25.8114 2.86580  11
   2   0   3 31.6966 3.06472   2
   2   0   3 27.4186 1.96489   3
   2   0   3 28.8753 3.05313   5
   3   0   3 2.76809 1.69150   5
   3   0   3 2.30540 1.55867  11
   3   0   3 2.60006 0.45291   3
   3   0   3 1.31997 1.42174   2
   4   0   3 83.3286 8.22132   7
   4   0   3 78.8113 8.86742  26
   4   0   3 85.2250 7.73355   5
   4   0   3 106.929 8.34193   2
   4   0   3 89.2699 8.96329  21
   4   0   3 93.6804 6.11855   3
   4   0   3 82.5339 7.32110  11
   4   0   3 84.5283 6.77447  16
   4   0   3 79.2406 8.36278  13
   5   0   3 136.649 12.5263  21
   5   0   3 128.503 8.67445   3
   5   0   3 127.543 11.3237   2
   5   0   3 118.666 8.97088  17
   5   0   3 133.030 9.44921  16
   5   0   3 113.081 12.2132  26
   6   0   3 5.22560 2.84675  21
   6   0   3 3.41433 1.42034  17
   6   0   3 4.65236 1.25769  16
   6   0   3 2.55338 1.66021  26
   7   0   3 9.96665 1.90944  26
   7   0   3 11.2443 1.43123  16
   7   0   3 14.1839 1.59080  17
   7   0   3 23.3783 3.10363  21
   8   0   3 1.25511 1.35263  21
   8   0   3 0.60090 0.47986  17
   9  -1  -3 5.22417 2.12883  20
   8  -1  -3 51.2246 6.23360  19
   8  -1  -3 62.5570 6.85501  21
   8  -1  -3 60.0854 7.67285  20
   8  -1  -3 69.7701 4.65065  17
   7  -1  -3 -2.3115 2.60422  21
   7  -1  -3 2.29994 2.16047  20
   7  -1  -3 -0.0394 0.93347  17
   7  -1  -3 -0.5894 2.40553  19
   6  -1  -3 94.1722 9.95969  18
   6  -1  -3 97.8939 9.74596  26
   6  -1  -3 110.061 7.38379  17
   6  -1  -3 108.606 7.56295  16
   6  -1  -3 112.357 9.24947  19
   6  -1  -3 97.3168 8.49432  11
   6  -1  -3 106.320 10.6424  21
   6  -1  -3 120.152 11.8656  20
   6  -1  -3 97.7611 8.85931   2
   6  -1  -3 101.491 8.97585   5
   6  -1  -3 99.9598 7.12533   3
   5  -1  -3 130.492 10.5576   4
   5  -1  -3 129.442 8.73732   3
   5  -1  -3 132.926 10.3853   5
   5  -1  -3 137.105 11.0378  10
   5  -1  -3 133.214 9.88040  11
   5  -1  -3 116.456 10.6505   2
   4  -1  -3 72.9319 5.84425  11
   4  -1  -3 74.0752 6.42894   4
   4  -1  -3 72.7097 6.40846   2
   4  -1  -3 80.7377 5.16916   3
   4  -1  -3 72.1471 6.13610   5
   4  -1  -3 74.0051 6.67681  10
   3  -1  -3 16.2158 1.25074  12
   3  -1  -3 16.3458 1.76075   2
   3  -1  -3 12.6508 1.09567   3
   3  -1  -3 19.9723 2.30278   4
   3  -1  -3 14.6378 1.21252   1
   3  -1  -3 15.9640 2.12319   2
   3  -1  -3 14.9649 1.23312   6
   3  -1  -3 19.1885 2.35613  10
   3  -1  -3 12.9487 1.16402   1
   3  -1  -3 16.2616 1.11874   3
  -3   1   3 14.1455 1.27681   1
  -3   1   3 15.3272 1.20480   1
   2  -1  -3 59.8974 5.97242   2
   2  -1  -3 76.3242 5.87647   2
   2  -1  -3 68.7324 3.70602   6
   2  -1  -3 69.2283 5.79777  10
   2  -1  -3 70.1264 5.57054   4
   2  -1  -3 68.2058 3.68935  12
   2  -1  -3 65.1908 4.89160   1
   2  -1  -3 72.2099 4.72163   3
   2  -1  -3 71.4230 4.91757   1
  -2   1   3 72.3577 4.95512   1
  -2   1   3 66.5339 4.90384   1
   1  -1  -3 179.326 14.9528  10
   1  -1  -3 177.599 14.3500   4
   1  -1  -3 204.913 12.7666   3
   1  -1  -3 194.454 13.2133   1
   1  -1  -3 202.134 15.3341   2
  -1   1   3 194.939 13.2326   1
  -1   1   3 196.930 13.2210   1
  -1   1   3 168.179 12.7379   3
   0  -1  -3 627.421 40.6890   3
   0  -1  -3 572.252 48.3321   2
   0  -1  -3 642.284 42.1297   1
   0  -1  -3 673.257 42.1363   1
   0   1   3 632.878 42.1271   1
   0   1   3 574.372 42.1169   1
   0   1   3 552.894 40.6448   3
   0   1   3 593.948 48.3583   2
  -1  -1  -3 206.249 13.6409   1
  -1  -1  -3 204.803 13.1472   3
  -1  -1  -3 188.905 16.1502   2
  -1  -1  -3 206.636 13.6276   1
   1   1   3 174.962 13.7753  11
   1   1   3 195.522 13.5957   1
   1   1   3 212.752 16.0397   2
   1   1   3 173.789 14.4508   5
   1   1   3 183.326 13.6129   1
   1   1   3 193.305 13.0785   3
  -2  -1  -3 32.3093 4.05395   2
  -2  -1  -3 30.2329 2.26473   1
  -2  -1  -3 24.7438 2.06899   3
  -2  -1  -3 28.3615 2.20058   1
   2   1   3 23.2420 2.89389   5
   2   1   3 25.4773 1.97455   3
   2   1   3 22.1063 2.16152   1
   2   1   3 35.4660 3.44405   2
   2   1   3 25.8439 2.78219  11
   2   1   3 27.8505 2.13471   1
   3   1   3 229.200 17.8881   5
   3   1   3 226.212 15.8298   3
   3   1   3 232.758 17.0535  11
   3   1   3 256.570 19.5376   2
   4   1   3 57.0398 5.53419   2
   4   1   3 50.5283 6.12177  26
   4   1   3 46.0226 4.06982  17
   4   1   3 49.8030 3.61660   3
   4   1   3 49.2066 4.86169  11
   4   1   3 52.2098 4.47290  16
   4   1   3 50.8960 5.14489   5
   5   1   3 14.3162 1.38320   3
   5   1   3 16.9657 3.35965  26
   5   1   3 16.9653 2.12633  17
   5   1   3 14.2931 3.06535  21
   5   1   3 16.2075 2.33472  16
   5   1   3 12.5587 2.78166   2
   6   1   3 30.1458 4.03196  21
   6   1   3 28.5979 2.94747  16
   6   1   3 28.0027 2.68924  17
   6   1   3 26.1652 4.15775  26
   7   1   3 13.8628 1.70922  16
   7   1   3 12.0885 2.34131  26
   7   1   3 13.6072 1.60507  17
   7   1   3 21.1413 2.93798  21
   9  -2  -3 2.30207 2.73035  20
   8  -2  -3 9.47859 1.13470  17
   8  -2  -3 10.2331 3.06571  19
   8  -2  -3 10.4068 2.64645  21
   8  -2  -3 16.4733 3.34524  20
   7  -2  -3 106.924 10.7183  21
   7  -2  -3 109.862 7.19311  17
   7  -2  -3 106.055 9.56083  19
   7  -2  -3 82.4401 8.34347  11
   7  -2  -3 118.709 11.9713  20
   7  -2  -3 81.2543 8.76153   5
   7  -2  -3 92.6857 9.92105  18
   6  -2  -3 131.573 10.8880   5
   6  -2  -3 124.562 8.80048   3
   6  -2  -3 133.735 9.15832  16
   6  -2  -3 120.537 10.2622  11
   6  -2  -3 121.288 12.9474  21
   6  -2  -3 131.989 11.7716  18
   6  -2  -3 141.925 11.5499  19
   6  -2  -3 135.528 14.1959  20
   6  -2  -3 135.260 9.07264  17
   6  -2  -3 130.887 10.6499   2
   5  -2  -3 33.2139 2.32431   3
   5  -2  -3 37.1561 3.61611   4
   5  -2  -3 32.5433 3.39463  11
   5  -2  -3 33.9920 3.67703  10
   5  -2  -3 32.0875 3.02237   2
   5  -2  -3 31.1227 3.57929   5
   4  -2  -3 147.701 11.8210  10
   4  -2  -3 145.071 9.64089   3
   4  -2  -3 146.905 10.5403  11
   4  -2  -3 143.323 11.5647   2
   4  -2  -3 145.301 11.0606   5
   4  -2  -3 128.978 11.7488   2
   4  -2  -3 146.233 11.3482   4
   3  -2  -3 1497.12 102.737   4
   3  -2  -3 1479.48 93.1261   3
   3  -2  -3 1487.02 109.986   2
   3  -2  -3 1538.50 100.963   5
   3  -2  -3 1215.41 96.3828   1
   3  -2  -3 1222.43 93.1092   3
   3  -2  -3 1518.56 107.083  10
   3  -2  -3 1535.05 96.2572  11
   3  -2  -3 1399.03 96.4081   1
   3  -2  -3 1277.79 110.089   2
  -3   2   3 1348.00 96.4316   1
  -3   2   3 1283.67 96.3980   1
   2  -2  -3 39.4252 3.77496  10
   2  -2  -3 44.3136 3.71136   2
   2  -2  -3 40.8130 3.64116   4
   2  -2  -3 45.2313 2.86286   3
   2  -2  -3 37.0332 2.84460   3
   2  -2  -3 41.3277 2.96674   1
   2  -2  -3 44.2748 3.69516   2
   2  -2  -3 42.4873 2.96899   1
  -2   2   3 40.6211 3.00905   1
  -2   2   3 40.9957 2.97201   1
   1  -2  -3 4459.47 373.046   4
   1  -2  -3 5419.26 340.204   3
   1  -2  -3 5308.04 352.087   1
   1  -2  -3 5484.95 400.831   2
   1  -2  -3 5190.94 401.551   2
   1  -2  -3 4415.51 339.821   3
  -1   2   3 5142.44 352.042   1
  -1   2   3 5387.57 352.059   1
   0  -2  -3 87.9614 5.82561   3
   0  -2  -3 95.7171 9.24244  14
   0  -2  -3 83.4239 7.53719   2
   0  -2  -3 91.5949 6.06416   1
   0  -2  -3 93.6124 8.35555   8
   0  -2  -3 89.4057 6.04637   1
   0   2   3 70.5308 5.75850   3
   0   2   3 89.9476 7.41565   2
   0   2   3 84.9091 6.02811   1
   0   2   3 79.2510 6.04849   1
  -1  -2  -3 512.327 32.8455   3
  -1  -2  -3 503.155 39.4822   2
  -1  -2  -3 520.449 34.0260   1
  -1  -2  -3 529.274 34.0512   1
  -1  -2  -3 525.914 45.9006  14
  -1  -2  -3 523.619 41.6498   8
   1   2   3 424.641 33.9992   1
   1   2   3 466.662 33.9721   1
   1   2   3 437.690 33.9962  11
   1   2   3 469.241 32.7629   3
   1   2   3 459.671 35.6811   5
   1   2   3 528.195 39.2777   2
  -2  -2  -3 61.8535 4.30285   3
  -2  -2  -3 67.6587 6.54721   8
  -2  -2  -3 62.6744 4.49723   1
  -2  -2  -3 65.9990 7.21198  14
  -2  -2  -3 60.0117 6.47070   2
   2   2   3 59.8666 4.90590  11
   2   2   3 63.9157 5.84543   2
   2   2   3 57.6825 4.16955   3
   2   2   3 51.9046 4.37671   1
   2   2   3 58.7850 5.14949   5
   3   2   3 11.9799 2.16646   5
   3   2   3 9.42829 1.00211   3
   3   2   3 14.2450 2.62112   2
   3   2   3 11.2325 1.97361  11
   4   2   3 15.1314 2.79000  11
   4   2   3 12.0468 2.78767   5
   4   2   3 15.7577 2.95677  26
   4   2   3 18.0279 3.03181   2
   4   2   3 15.2319 1.39695   3
   4   2   3 16.8957 2.18763  16
   5   2   3 1.53323 1.54313  17
   5   2   3 -0.0616 2.73890  26
   5   2   3 1.39483 1.86307  16
   6   2   3 69.8966 7.58071  26
   6   2   3 67.3578 5.43968  17
   6   2   3 72.9178 7.55046  21
   6   2   3 77.0084 5.79367  16
   7   2   3 27.1962 2.36174  16
   7   2   3 26.5668 2.39123  17
   7   2   3 24.9612 3.13896  26
   9  -3  -3 38.5988 4.37926  19
   9  -3  -3 52.4845 6.31677  20
   8  -3  -3 46.1798 5.83882  21
   8  -3  -3 47.1984 6.67273  20
   8  -3  -3 39.9049 4.86172  19
   7  -3  -3 8.50586 3.07402  21
   7  -3  -3 3.74993 2.63220   5
   7  -3  -3 5.48517 2.51247  11
   7  -3  -3 15.8603 3.89689  20
   7  -3  -3 11.3891 2.96385  19
   7  -3  -3 12.9345 1.30038  17
   7  -3  -3 15.8961 3.51486  18
   6  -3  -3 2.93177 2.27780  19
   6  -3  -3 0.96785 2.54635  21
   6  -3  -3 3.86460 2.77198  18
   6  -3  -3 1.43291 1.80951   5
   6  -3  -3 3.03004 2.76829  20
   6  -3  -3 3.90091 2.00578  25
   6  -3  -3 2.38635 1.72195  11
   6  -3  -3 3.63479 0.73750  17
   5  -3  -3 1.53577 1.42953   5
   5  -3  -3 0.67559 1.12601   4
   5  -3  -3 1.37557 1.31723  11
   5  -3  -3 0.95230 1.18046  10
   4  -3  -3 400.002 29.7980   4
   4  -3  -3 403.021 31.0512  10
   4  -3  -3 391.184 29.2389   5
   4  -3  -3 392.334 27.8670  11
   3  -3  -3 4.93985 1.07800   5
   3  -3  -3 4.07496 1.45341   4
   3  -3  -3 4.41879 1.67085  13
   3  -3  -3 3.28196 0.30841   3
   3  -3  -3 3.13534 0.32129   1
   3  -3  -3 2.86425 1.63338   7
   3  -3  -3 3.70704 0.96413  11
   3  -3  -3 3.75074 0.56433   2
   3  -3  -3 3.43922 1.45830  10
   3  -3  -3 4.78698 0.58006   2
   3  -3  -3 3.15263 0.29830   3
   3  -3  -3 3.97474 0.32427   1
  -3   3   3 3.31331 0.36740   1
  -3   3   3 3.24724 0.35707   1
   2  -3  -3 135.538 11.5649  10
   2  -3  -3 155.857 9.62934   3
   2  -3  -3 157.411 11.5875   2
   2  -3  -3 132.157 9.96189   1
   2  -3  -3 121.667 9.60993   3
   2  -3  -3 140.050 11.1110   4
   2  -3  -3 164.376 11.5892   2
   2  -3  -3 148.130 9.97162   1
  -2   3   3 142.987 9.98800   1
  -2   3   3 138.001 9.98632   1
   1  -3  -3 1089.19 90.8625  14
   1  -3  -3 882.813 65.4239   3
   1  -3  -3 1027.39 77.5046   2
   1  -3  -3 1024.89 67.7655   1
   1  -3  -3 969.854 67.7560   1
   1  -3  -3 861.986 72.2481   4
   1  -3  -3 1121.58 65.4673   3
   1  -3  -3 1027.60 82.4304   8
   1  -3  -3 931.712 77.5165   2
  -1   3   3 949.390 67.7795   1
  -1   3   3 922.990 67.7477   1
   0  -3  -3 474.088 31.1370   1
   0  -3  -3 471.805 30.0452   3
   0  -3  -3 469.644 38.4205   8
   0  -3  -3 478.550 42.3694  14
   0  -3  -3 465.570 31.1186   1
   0  -3  -3 475.091 36.0776   2
   0   3   3 399.427 29.9770   3
   0   3   3 403.210 31.1232   1
   0   3   3 425.196 35.8708   2
   0   3   3 441.398 31.0913   1
  -1  -3  -3 3.92627 0.58058   1
  -1  -3  -3 3.97774 1.74661   2
  -1  -3  -3 3.82586 0.64818   3
  -1  -3  -3 3.49153 3.11712  14
  -1  -3  -3 5.41900 2.95067   8
  -1  -3  -3 3.57798 0.64195   1
   1   3   3 4.73632 1.38547   2
   1   3   3 2.89387 0.59917   1
   1   3   3 3.54267 0.53217   3
   1   3   3 3.07393 0.52158   1
   1   3   3 3.91941 1.21780  11
   1   3   3 3.30906 1.30114   5
  -2  -3  -3 137.829 13.4310  14
  -2  -3  -3 131.639 8.65467   3
  -2  -3  -3 130.159 11.6255   2
  -2  -3  -3 136.450 12.1103   8
   2   3   3 114.701 9.25140  11
   2   3   3 115.884 8.49654   3
   2   3   3 127.630 10.9776   2
   2   3   3 118.390 9.73765   5
   3   3   3 9.45910 1.01841   3
   3   3   3 9.65188 3.00763  26
   3   3   3 9.91278 2.11185  11
   3   3   3 8.43013 2.13683   5
   3   3   3 10.9272 2.53019   2
   4   3   3 -0.2275 2.66054  26
   4   3   3 0.97573 1.92469  16
   4   3   3 -0.8422 1.50007  11
   4   3   3 -0.4691 1.69334   5
   5   3   3 33.0889 4.86686  26
   5   3   3 30.4477 3.42317  16
   6   3   3 3.85932 2.18438  26
   6   3   3 4.37101 1.53514  16
   6   3   3 5.04763 2.52783  21
   7   3   3 5.30828 2.26380  21
   7   3   3 5.52012 1.42865  26
   7   3   3 6.49650 1.01152  16
   7   3   3 5.99258 1.08401  17
   9  -4  -3 6.65118 2.44985  20
   9  -4  -3 6.31389 2.02305  19
   8  -4  -3 -0.0110 2.71704  19
   8  -4  -3 2.57159 3.10081  20
   8  -4  -3 2.05592 2.79294  21
   7  -4  -3 104.895 11.6728  21
   7  -4  -3 122.384 10.5297  19
   7  -4  -3 110.622 7.78823  17
   7  -4  -3 124.351 13.2517  20
   7  -4  -3 117.503 11.0217  18
   6  -4  -3 95.0114 9.13759  18
   6  -4  -3 97.7508 7.78986  25
   6  -4  -3 88.1863 10.8093  20
   6  -4  -3 97.3289 6.36657  17
   6  -4  -3 96.5821 8.58297  10
   6  -4  -3 98.9001 8.64163  19
   6  -4  -3 89.4269 8.16630   4
   6  -4  -3 70.6869 9.56604  21
   5  -4  -3 40.2350 4.49270  11
   5  -4  -3 42.7258 4.77277   5
   5  -4  -3 56.5834 5.33556  10
   5  -4  -3 56.7184 5.12983   4
   5  -4  -3 62.4916 4.95759  25
   5  -4  -3 54.1469 5.73928  18
   5  -4  -3 55.0219 5.36674  19
   4  -4  -3 253.398 20.5062  13
   4  -4  -3 249.348 19.9481   7
   4  -4  -3 290.754 21.4188  10
   4  -4  -3 279.659 20.5364   4
   3  -4  -3 250.999 19.9484  10
   3  -4  -3 253.420 19.1497   4
   2  -4  -3 33.1396 3.36741   4
   2  -4  -3 37.5943 2.96542   2
   2  -4  -3 30.4443 2.28439   3
   2  -4  -3 31.0053 2.38671   1
   2  -4  -3 36.3333 3.11034   2
   2  -4  -3 33.5209 2.37997   1
   2  -4  -3 34.7975 2.29293   3
   2  -4  -3 33.6967 3.49402  10
  -2   4   3 33.0720 2.43132   1
  -2   4   3 31.3257 2.39082   1
   1  -4  -3 21.5319 3.05731  10
   1  -4  -3 33.5366 4.99639   8
   1  -4  -3 26.2430 2.96309   2
   1  -4  -3 24.0469 1.93592   1
   1  -4  -3 37.9134 5.74378  14
   1  -4  -3 25.2895 1.92175   1
   1  -4  -3 23.0412 2.92362   4
   1  -4  -3 26.5317 1.85180   3
  -1   4   3 23.9731 1.91453   1
  -1   4   3 23.2088 1.98531   1
   0  -4  -3 61.2805 5.89337   2
   0  -4  -3 64.0772 6.89669   8
   0  -4  -3 61.6137 4.08251   3
   0  -4  -3 57.8654 4.27990   1
   0  -4  -3 67.3637 7.73729  14
   0   4   3 48.1072 4.26736   1
  -1  -4  -3 715.277 57.1418   8
  -1  -4  -3 602.389 46.3826   1
  -1  -4  -3 669.519 62.8639  14
  -1  -4  -3 691.245 53.8766   2
  -1  -4  -3 679.602 44.7753   3
  -2  -4  -3 169.317 17.2036  14
  -2  -4  -3 158.822 14.7219   2
  -2  -4  -3 161.423 15.5060   8
  -3  -4  -3 2.81283 3.88143  26
   3   4   3 4.93063 2.92894  26
   4   4   3 93.8434 10.3485  26
   5   4   3 2.13837 3.37886  26
   5   4   3 1.35797 1.61569  16
   6   4   3 1.31287 1.85576  16
   6   4   3 0.34026 1.55930  21
   6   4   3 2.68329 2.72174  26
   9  -5  -3 9.68450 2.15860  19
   9  -5  -3 12.4497 2.87120  20
   8  -5  -3 33.6086 4.20364  19
   8  -5  -3 32.2864 5.15033  20
   7  -5  -3 3.88921 3.04154  21
   7  -5  -3 2.22186 2.93329  18
   7  -5  -3 -0.1781 2.46294  19
   7  -5  -3 4.91750 3.36907  20
   6  -5  -3 37.8311 4.04468  25
   6  -5  -3 39.6282 4.30277  24
   6  -5  -3 33.6265 4.61887  19
   6  -5  -3 34.2253 4.20998  10
   6  -5  -3 33.6676 4.03403   4
   6  -5  -3 19.0771 4.53131  21
   6  -5  -3 36.9809 5.92755  20
   6  -5  -3 41.9762 5.01663  18
   5  -5  -3 0.47063 1.93131  19
   5  -5  -3 1.04996 2.36592  24
   5  -5  -3 1.51585 1.29478  10
   5  -5  -3 1.37327 2.13539  18
   5  -5  -3 1.92099 1.25207   4
   5  -5  -3 2.38899 1.70439  25
   5  -5  -3 1.22931 2.76283  20
   4  -5  -3 119.951 10.8632  13
   4  -5  -3 146.183 11.0912  10
   4  -5  -3 132.871 10.5839   4
   4  -5  -3 125.783 10.6660   7
   3  -5  -3 19.3306 2.65915  10
   3  -5  -3 18.8098 2.53923   4
   2  -5  -3 645.991 53.2224  14
   2  -5  -3 511.496 37.4863   3
   2  -5  -3 590.667 44.5629   2
   2  -5  -3 531.816 43.4586  10
   2  -5  -3 585.969 37.4925   3
   2  -5  -3 598.527 48.1893   8
   2  -5  -3 587.336 44.4339   2
   2  -5  -3 573.516 41.7449   4
  -2   5   3 475.421 38.8140   1
   1  -5  -3 238.799 19.8697   4
   1  -5  -3 226.873 20.6685  10
   1  -5  -3 277.744 17.5819   3
   1  -5  -3 274.556 25.9547  14
   1  -5  -3 267.566 21.3479   2
   1  -5  -3 289.664 23.6000   8
   0  -5  -3 2.15272 1.91391   2
   0  -5  -3 1.02005 3.17466   8
   0  -5  -3 0.73918 0.42405   3
   0  -5  -3 1.54180 3.64183  14
  -1  -5  -3 569.841 54.4121  14
  -1  -5  -3 581.649 46.4391   2
  -1  -5  -3 610.014 49.4889   8
  -1  -5  -3 535.780 38.2653   3
  -2  -5  -3 258.096 24.0860  14
  -2  -5  -3 252.958 21.7654   8
  -2  -5  -3 197.737 21.9654  26
  -3  -5  -3 51.2614 7.34469  26
   3   5   3 47.2021 6.72279  26
  -4  -5  -3 7.70871 4.54137  26
   4   5   3 7.74484 3.64299  26
   5   5   3 6.52829 1.86596  16
   5   5   3 5.40771 2.68456  26
   6   5   3 184.537 17.2986  21
   9  -6  -3 -0.0481 2.71448  20
   9  -6  -3 0.35961 1.63775  19
   8  -6  -3 7.01390 2.12384  18
   8  -6  -3 6.96982 2.19121  19
   8  -6  -3 7.94609 2.89235  20
   7  -6  -3 60.8726 5.91998  19
   7  -6  -3 69.4144 6.87167  18
   7  -6  -3 46.6016 7.07169  21
   7  -6  -3 58.2919 8.21627  20
   7  -6  -3 58.6342 5.52646  25
   6  -6  -3 73.3335 7.85220  24
   6  -6  -3 62.3269 8.71513  21
   6  -6  -3 93.4984 8.12563  18
   6  -6  -3 87.7636 7.76426  19
   6  -6  -3 79.0316 7.19078   4
   6  -6  -3 75.9490 10.0093  20
   6  -6  -3 82.8442 7.53413  10
   6  -6  -3 82.0591 6.66207  25
   5  -6  -3 25.0505 4.52210  22
   5  -6  -3 32.0440 3.59752  19
   5  -6  -3 26.2261 3.52284  18
   5  -6  -3 29.3529 3.53715  25
   5  -6  -3 17.2410 4.24167  23
   5  -6  -3 27.8859 3.09541   4
   5  -6  -3 28.8275 3.22341  10
   5  -6  -3 25.6409 4.73914  20
   5  -6  -3 29.7366 3.71303  24
   5  -6  -3 17.5032 3.92326  21
   4  -6  -3 40.5937 3.97418  10
   4  -6  -3 37.8185 3.78920   4
   3  -6  -3 643.397 47.6444   4
   3  -6  -3 639.243 49.6556  10
   2  -6  -3 538.172 42.9586   8
   2  -6  -3 540.264 47.3450  14
   2  -6  -3 490.071 36.8009   4
   2  -6  -3 471.024 39.2663   2
   2  -6  -3 489.249 38.3570  10
   2  -6  -3 466.879 32.9538   3
   1  -6  -3 119.137 7.82964   3
   1  -6  -3 104.497 9.21237   4
   1  -6  -3 123.499 13.3072  14
   1  -6  -3 118.403 10.0625   2
   1  -6  -3 100.230 9.56716  10
   1  -6  -3 130.776 12.1058   8
   0  -6  -3 312.441 27.7987  14
   0  -6  -3 289.951 25.0174   8
   0  -6  -3 306.464 22.8137   2
   0  -6  -3 284.089 18.2980   3
   0  -6  -3 235.467 20.6538   4
   0  -6  -3 223.217 21.4763  10
  -1  -6  -3 89.5114 10.0733   8
  -1  -6  -3 67.9278 9.53650  26
  -1  -6  -3 87.5352 11.1065  14
  -1  -6  -3 87.4149 8.90620   2
  -1  -6  -3 90.2361 5.95269   3
  -1  -6  -3 62.2217 7.37791  16
  -2  -6  -3 37.7984 8.39486  14
  -2  -6  -3 30.3549 5.96580  26
  -2  -6  -3 38.7397 7.54528   8
  -3  -6  -3 84.4865 10.4237  26
   3   6   3 76.3098 9.32596  26
  -4  -6  -3 49.2820 7.75942  26
   4   6   3 61.3783 7.91117  26
  -5  -6  -3 1.47921 3.49210  26
   5   6   3 3.44921 3.16051  26
   6   6   3 31.0987 3.75253  26
   9  -7  -3 4.10538 2.55579  20
   9  -7  -3 3.35035 2.14073  19
   8  -7  -3 41.7237 6.25051  20
   8  -7  -3 50.0870 5.04400  18
   8  -7  -3 47.6553 5.41877  19
   7  -7  -3 55.8303 6.40977  19
   7  -7  -3 55.0376 8.40411  20
   7  -7  -3 50.8120 7.21973  21
   7  -7  -3 64.1767 5.33137  25
   7  -7  -3 73.2568 6.85498  18
   6  -7  -3 95.0606 9.32988  10
   6  -7  -3 94.0044 8.93461   4
   6  -7  -3 111.260 11.5959  23
   6  -7  -3 86.4567 12.3491  20
   6  -7  -3 87.7960 11.0532  21
   6  -7  -3 108.018 9.91879  24
   6  -7  -3 130.851 9.82404  18
   6  -7  -3 111.470 9.69935  19
   6  -7  -3 118.110 8.81032  25
   5  -7  -3 116.181 9.64355  18
   5  -7  -3 99.4169 9.23832  19
   5  -7  -3 105.473 8.68731   4
   5  -7  -3 94.7025 11.5037  23
   5  -7  -3 120.038 8.66089  25
   5  -7  -3 86.4282 10.7664  21
   5  -7  -3 104.323 9.02944  10
   5  -7  -3 91.8988 11.1387  22
   5  -7  -3 99.7559 9.56649  24
   4  -7  -3 53.6860 7.52348  22
   4  -7  -3 51.7001 4.68273   4
   4  -7  -3 53.6763 5.21170  25
   4  -7  -3 37.1540 6.30800  21
   4  -7  -3 56.6860 7.71065  23
   4  -7  -3 52.7629 5.12767  18
   4  -7  -3 54.6454 4.91230  10
   4  -7  -3 49.4873 5.66586  24
   3  -7  -3 24.4454 2.95901  10
   3  -7  -3 29.8541 3.64562  24
   3  -7  -3 29.2623 5.12513  22
   3  -7  -3 26.0646 2.87184   4
   3  -7  -3 28.9198 5.05964  23
   3  -7  -3 27.5652 3.33465  25
   3  -7  -3 24.0052 2.15714  17
   2  -7  -3 0.85569 1.06198   2
   2  -7  -3 2.43202 4.17559  14
   2  -7  -3 -0.0160 3.52805  22
   2  -7  -3 1.74868 1.24290  16
   2  -7  -3 0.70203 2.06671  25
   2  -7  -3 2.12782 3.78840   8
   2  -7  -3 2.64115 1.11741  17
   2  -7  -3 0.93027 0.25749   3
   1  -7  -3 33.9828 4.01086   2
   1  -7  -3 32.2486 3.87084  25
   1  -7  -3 28.6929 3.50097  16
   1  -7  -3 29.7263 3.23984  17
   1  -7  -3 29.6708 4.29676  26
   1  -7  -3 48.2708 7.14804   8
   1  -7  -3 43.7349 7.67574  14
   1  -7  -3 32.4913 2.40987   3
   0  -7  -3 6.88082 2.01698  17
   0  -7  -3 4.77583 3.15417  26
   0  -7  -3 4.99327 2.50526  24
   0  -7  -3 5.94717 2.68478   2
   0  -7  -3 7.39982 2.62910  16
   0  -7  -3 6.40612 0.87286   3
   0  -7  -3 2.83766 5.00413  14
   0  -7  -3 5.17199 4.72876   8
  -1  -7  -3 20.5701 4.00350   2
  -1  -7  -3 20.1403 6.16916   8
  -1  -7  -3 17.7969 3.90744  26
  -1  -7  -3 17.9941 6.82515  14
  -1  -7  -3 15.7756 1.65805   3
  -1  -7  -3 17.4633 2.94913  16
  -2  -7  -3 201.049 15.2951  16
  -2  -7  -3 185.820 20.1637   8
  -2  -7  -3 220.273 19.8433  26
  -3  -7  -3 101.154 10.8996  26
   3   7   3 95.0684 10.4454  26
  -4  -7  -3 112.532 11.5930  26
   4   7   3 106.191 11.1679  26
   5   7   3 72.9996 6.67518  21
   5   7   3 54.3876 6.90601  26
   8  -8  -3 20.0441 2.74694  19
   8  -8  -3 17.3344 3.45733  20
   7  -8  -3 63.7926 5.14561  25
   7  -8  -3 47.2839 5.81247  19
   7  -8  -3 50.7898 5.36495  24
   7  -8  -3 64.9884 6.03837  18
   7  -8  -3 41.7159 6.06059  21
   7  -8  -3 45.4976 7.48107  20
   6  -8  -3 4.13838 3.37194  20
   6  -8  -3 1.33164 3.47172  23
   6  -8  -3 3.24151 2.33016  18
   6  -8  -3 2.28735 2.46756  19
   6  -8  -3 2.18215 2.14152  25
   6  -8  -3 0.35827 3.61027  22
   6  -8  -3 3.03414 2.98682  21
   6  -8  -3 4.82958 3.01956  24
   5  -8  -3 46.7424 6.41591  22
   5  -8  -3 37.1909 4.69604  24
   5  -8  -3 37.2327 4.63440  18
   5  -8  -3 34.7437 5.40762  21
   5  -8  -3 40.8569 4.58871  25
   5  -8  -3 30.5493 5.74927  23
   4  -8  -3 44.4152 5.57154  23
   4  -8  -3 38.3651 4.45605  24
   4  -8  -3 38.3103 5.39761  22
   4  -8  -3 20.8499 4.64087  21
   4  -8  -3 33.2154 4.28994  18
   4  -8  -3 36.2216 3.92572  25
   3  -8  -3 28.4460 3.79766  25
   3  -8  -3 32.8474 5.71532  22
   3  -8  -3 33.3742 4.19774  24
   3  -8  -3 31.8490 2.63637  17
   3  -8  -3 38.7822 5.93498  23
   2  -8  -3 48.8148 4.66094   2
   2  -8  -3 52.7181 9.45929  14
   2  -8  -3 52.3502 3.99876  16
   2  -8  -3 45.1962 3.40761   3
   2  -8  -3 47.6881 8.39585   8
   2  -8  -3 53.7408 3.99327  17
   2  -8  -3 62.0926 7.28970  23
   2  -8  -3 52.2150 5.90393  24
   2  -8  -3 43.3843 5.25926  25
   1  -8  -3 31.1515 6.42881   8
   1  -8  -3 24.4000 3.47924  25
   1  -8  -3 21.6182 3.69172  26
   1  -8  -3 35.4596 7.52796  14
   1  -8  -3 26.3442 3.75029  24
   1  -8  -3 19.4385 3.30862   2
   1  -8  -3 29.0809 2.74298  17
   1  -8  -3 20.1952 1.77219   3
   1  -8  -3 21.3127 4.56508  23
   1  -8  -3 23.5321 2.76484  16
   0  -8  -3 2.70790 0.64854   3
   0  -8  -3 6.98577 4.74395  14
   0  -8  -3 3.11666 2.49874  16
   0  -8  -3 3.27807 2.53460  24
   0  -8  -3 2.75450 3.73144   8
   0  -8  -3 4.70777 3.28454  26
   0  -8  -3 4.15473 1.97930  17
   0  -8  -3 2.40898 2.24952   2
  -1  -8  -3 -0.8954 2.60307  26
  -1  -8  -3 1.93589 2.82574  16
  -1  -8  -3 -0.6042 5.35326  14
  -1  -8  -3 0.92164 5.00906   8
  -1  -8  -3 1.06891 2.09001  17
  -2  -8  -3 34.7108 4.22005  16
  -2  -8  -3 36.3928 5.69043  26
  -3  -8  -3 6.57725 2.39068  16
  -3  -8  -3 7.82230 3.32493  26
  -4  -8  -3 -1.3257 3.23001  26
   4   8   3 0.09148 3.10085  26
   8  -9  -3 102.513 8.60719  19
   8  -9  -3 94.9773 10.9266  20
   7  -9  -3 12.8101 1.79934  25
   7  -9  -3 11.6454 2.03334  18
   7  -9  -3 5.83213 2.71808  20
   7  -9  -3 7.47301 2.51900  19
   7  -9  -3 8.94715 2.32582  24
   6  -9  -3 1.40802 2.08058  18
   6  -9  -3 2.20858 3.78205  22
   6  -9  -3 2.10238 3.12433  24
   6  -9  -3 1.05631 2.60206  23
   6  -9  -3 -0.6346 2.66659  21
   6  -9  -3 0.71381 2.00572  25
   5  -9  -3 0.50459 1.60072  25
   5  -9  -3 1.81866 4.25211  22
   5  -9  -3 -0.2233 2.77693  24
   5  -9  -3 1.93232 2.79223  21
   5  -9  -3 -1.5920 3.98279  23
   4  -9  -3 2.22874 4.28642  22
   4  -9  -3 3.70207 2.51898  25
   4  -9  -3 2.36004 2.86061  24
   4  -9  -3 5.52100 4.61654  23
   3  -9  -3 33.7286 2.96811  17
   3  -9  -3 34.6140 6.22515  22
   3  -9  -3 37.6601 4.39224  25
   3  -9  -3 49.2816 5.10414  24
   3  -9  -3 34.9804 6.41568  23
   2  -9  -3 12.8647 1.36335  16
   2  -9  -3 15.5342 4.54171  23
   2  -9  -3 12.9920 2.88910  25
   2  -9  -3 9.22892 0.81882   3
   2  -9  -3 8.26446 1.45545   2
   2  -9  -3 17.4157 1.86911  17
   2  -9  -3 15.1157 3.30980  24
   1  -9  -3 1.47260 1.66097  16
   1  -9  -3 3.56002 2.13221  24
   1  -9  -3 1.14305 1.58050   2
   1  -9  -3 3.00623 4.81140   8
   1  -9  -3 2.16103 1.88571  25
   1  -9  -3 3.53199 5.23771  14
   1  -9  -3 1.19667 3.68274  23
   1  -9  -3 4.48937 1.83311  17
   1  -9  -3 0.60340 2.13219  26
   0  -9  -3 5.57967 2.19835  17
   0  -9  -3 3.58402 3.06910  26
   0  -9  -3 4.30772 6.33001  14
   0  -9  -3 4.12816 2.06713  24
   0  -9  -3 2.90852 2.06043  25
   0  -9  -3 2.14342 2.39156  16
   0  -9  -3 0.27860 5.16727   8
  -1  -9  -3 4.33118 3.55807  26
  -1  -9  -3 1.67964 2.17844  17
  -1  -9  -3 2.49814 2.61140  16
  -1  -9  -3 3.68433 2.11024  25
  -2  -9  -3 7.85339 2.94622  16
  -2  -9  -3 7.42321 3.93792  26
  -3  -9  -3 41.9186 4.47157  25
  -3  -9  -3 47.9573 4.55200  16
  -3  -9  -3 45.0552 5.99112  26
  -4  -9  -3 24.9935 3.12333  25
  -4  -9  -3 22.0715 3.44140  26
   7 -10  -3 9.66745 2.27026  24
   7 -10  -3 10.4666 1.88668  25
   7 -10  -3 6.01204 3.09993  23
   6 -10  -3 113.458 8.67704  25
   6 -10  -3 88.0095 10.7861  22
   6 -10  -3 100.883 11.3768  23
   6 -10  -3 121.067 10.2184  24
   5 -10  -3 0.80802 2.16062  25
   5 -10  -3 -0.5848 2.03845  24
   5 -10  -3 -1.4024 2.87982  23
   5 -10  -3 0.64765 3.01468  22
   4 -10  -3 3.59997 2.21636  24
   4 -10  -3 0.33231 2.48950  25
   4 -10  -3 2.57013 4.43618  22
   4 -10  -3 3.71802 3.35411  23
   3 -10  -3 183.415 14.9215  24
   3 -10  -3 162.361 13.7672  25
   3 -10  -3 173.337 18.1566  23
   3 -10  -3 168.687 11.8079  17
   2 -10  -3 95.5407 8.43227  25
   2 -10  -3 93.5779 11.1104  23
   2 -10  -3 109.068 9.41089  24
   2 -10  -3 103.239 7.36128  17
   1 -10  -3 -1.4970 1.28836  16
   1 -10  -3 -1.0100 1.68248  26
   1 -10  -3 0.94031 1.21905  17
   1 -10  -3 -0.4866 2.38409  25
   1 -10  -3 -0.9009 2.00737  24
   0 -10  -3 11.0324 3.16141  26
   0 -10  -3 9.60916 2.91332  25
   0 -10  -3 9.97854 2.36870  17
   0 -10  -3 16.3962 2.57870  16
   0 -10  -3 13.4751 3.03510  24
  -1 -10  -3 12.0749 3.71365  26
  -1 -10  -3 19.4359 2.86190  25
  -1 -10  -3 16.9765 2.96455  16
  -1 -10  -3 26.6376 2.64583  17
  -2 -10  -3 125.757 9.00206  16
  -2 -10  -3 118.517 9.53001  25
  -2 -10  -3 109.283 11.5627  26
  -3 -10  -3 25.9203 2.53393  16
  -3 -10  -3 21.2084 3.09290  26
  -3 -10  -3 12.6196 2.18259  25
   7 -11  -3 63.6736 6.31461  24
   6 -11  -3 41.4872 5.05527  24
   6 -11  -3 33.2676 3.07019  25
   6 -11  -3 23.6204 4.40003  23
   5 -11  -3 2.94292 4.17485  23
   5 -11  -3 0.31002 2.02232  24
   5 -11  -3 2.43114 1.93279  25
   4 -11  -3 2.46103 2.19465  24
   4 -11  -3 3.30898 1.77206  25
   4 -11  -3 5.06457 3.31739  23
   3 -11  -3 15.7583 4.89269  23
   3 -11  -3 14.6118 1.45218  17
   3 -11  -3 14.4498 3.55167  24
   3 -11  -3 18.0792 2.59551  25
   2 -11  -3 55.0430 4.98751  25
   2 -11  -3 53.1951 4.06138  17
   2 -11  -3 40.1731 6.70693  23
   2 -11  -3 53.1675 5.70904  24
   1 -11  -3 77.9869 5.92312  17
   1 -11  -3 73.4617 6.65908  25
   1 -11  -3 78.0628 7.78082  24
   0 -11  -3 23.7094 2.30208  16
   0 -11  -3 11.3579 2.53798  26
   0 -11  -3 15.5072 2.28521  17
   0 -11  -3 20.3797 2.60655  25
  -1 -11  -3 1.56368 1.98724  26
  -1 -11  -3 3.45696 1.63874  25
  -1 -11  -3 1.77943 1.22514  17
  -1 -11  -3 1.99376 1.63892  16
  -2 -11  -3 53.8984 5.10592  17
  -2 -11  -3 71.7688 5.80810  25
  -2 -11  -3 85.4587 5.43699  16
  -2 -11  -3 72.0892 7.01936  26
   6 -12  -3 1.00314 2.29976  23
   6 -12  -3 -0.2988 1.61534  24
   5 -12  -3 94.1772 11.1335  23
   5 -12  -3 111.270 9.47598  24
   5 -12  -3 106.529 8.29848  25
   4 -12  -3 13.8224 2.00302  25
   4 -12  -3 8.97957 3.26938  23
   4 -12  -3 13.3370 2.58807  24
   3 -12  -3 1.73811 2.03659  25
   3 -12  -3 4.05647 2.09821  24
   3 -12  -3 2.28457 2.66591  23
   2 -12  -3 166.935 13.7077  25
   2 -12  -3 172.277 15.2877  24
   2 -12  -3 188.727 12.2348  17
   1 -12  -3 27.0492 3.04732  25
   1 -12  -3 23.9587 3.16350  24
   1 -12  -3 21.7096 2.30520  17
   0 -12  -3 -0.4163 1.11488  17
   0 -12  -3 -0.4731 1.97651  25
  -1 -12  -3 123.861 9.09727  25
  -1 -12  -3 108.332 8.11962  17
   5 -13  -3 1.94848 1.62413  24
   4 -13  -3 17.9246 3.28846  24
   4 -13  -3 25.6296 3.91414  23
   4 -13  -3 27.0865 2.68301  25
   3 -13  -3 81.6463 6.34281  25
   3 -13  -3 75.8586 7.15755  24
   2 -13  -3 1.56550 1.93053  24
   2 -13  -3 1.64566 1.14611  25
   1 -13  -3 16.7059 1.29967  17
   1 -13  -3 11.2603 2.09301  25
   0 -13   4 47.3387 4.53120  24
   0 -13   4 43.9052 3.51923  17
   1 -13   4 23.2949 3.06304  24
   1 -13   4 24.1313 2.03312  17
   2 -13   4 14.2353 2.81701  23
   2 -13   4 13.1015 2.16139  24
   3 -13   4 10.5140 2.78931  23
   3 -13   4 9.56290 1.68760  24
   4 -13   4 1.24788 2.14449  23
  -2 -12   4 0.15887 1.35184  24
  -1 -12   4 5.73307 1.83363  17
  -1 -12   4 5.72953 1.18585  16
  -1 -12   4 3.54311 2.05231  24
   0 -12   4 10.3580 1.68667  17
   0 -12   4 6.55031 2.96945  24
   1 -12   4 38.9718 3.68429  17
   1 -12   4 44.7291 4.72747  24
   1 -12   4 40.3433 5.47911  23
   2 -12   4 2.30358 2.43691  24
   2 -12   4 1.82519 1.04138  17
   2 -12   4 2.84855 2.77634  23
   3 -12   4 13.4188 4.25154  23
   3 -12   4 12.3345 2.52576  24
   3 -12   4 11.9683 3.94772  22
   4 -12   4 5.65530 2.73170  23
   4 -12   4 2.13059 3.78711  22
   5 -12   4 13.6352 3.01801  22
   5 -12   4 9.06158 3.29936  23
  -3 -11   4 -0.0565 1.27013  24
  -2 -11   4 21.1137 4.13006  26
  -2 -11   4 25.8069 3.18043  24
  -2 -11   4 12.4941 2.67062  17
  -2 -11   4 17.5166 3.12084  16
  -1 -11   4 121.024 8.96259  16
  -1 -11   4 94.2040 8.23059  17
  -1 -11   4 109.237 11.3506  26
  -1 -11   4 127.994 10.3092  24
   0 -11   4 116.424 10.3032  24
   0 -11   4 95.3270 10.3869  26
   0 -11   4 103.158 8.12150  16
   0 -11   4 109.021 7.90604  17
   1 -11   4 70.3654 7.79214  23
   1 -11   4 58.8400 4.59047  16
   1 -11   4 64.3150 7.11004  24
   1 -11   4 62.0424 4.96784  17
   2 -11   4 3.73311 1.50533  17
   2 -11   4 6.11276 4.16331  22
   2 -11   4 3.96734 4.18820  23
   2 -11   4 3.05737 2.73307  24
   3 -11   4 0.48729 0.95910  17
   3 -11   4 1.14163 1.71981  24
   3 -11   4 0.39461 2.98332  22
   3 -11   4 0.05608 2.85332  23
   4 -11   4 5.47523 4.08242  23
   4 -11   4 6.07681 3.33193  22
   5 -11   4 10.3999 4.32506  22
   5 -11   4 18.2544 3.41122  23
   6 -11   4 3.35492 3.23202  22
   6 -11   4 7.67024 2.74215  23
  -3 -10   4 64.5659 8.72957  26
  -3 -10   4 68.3030 7.06219  24
  -3 -10   4 64.4455 6.90475  16
  -2 -10   4 5.42430 3.69201  24
  -2 -10   4 6.31043 3.30787  16
  -2 -10   4 9.55947 4.28568  26
  -1 -10   4 112.411 11.0341  26
  -1 -10   4 96.5324 7.97379  17
  -1 -10   4 100.694 8.67126  16
  -1 -10   4 85.4872 10.0576  24
   0 -10   4 72.9791 8.12055  24
   0 -10   4 66.5972 6.56138  16
   0 -10   4 68.9554 6.15576  17
   0 -10   4 78.8534 8.43842  26
   1 -10   4 4.96851 1.98945  17
   1 -10   4 5.21061 4.14930  23
   1 -10   4 7.03525 2.18905  16
   1 -10   4 3.78023 2.77010  26
   1 -10   4 6.01467 3.32382  24
   2 -10   4 15.1016 4.88074  22
   2 -10   4 20.4974 2.44842  17
   2 -10   4 29.5209 4.72198  23
   2 -10   4 20.0758 3.82292  24
   3 -10   4 42.8516 3.57182  17
   3 -10   4 38.5523 5.22701  24
   3 -10   4 48.2447 6.83322  23
   3 -10   4 35.0699 6.31839  22
   4 -10   4 211.371 20.6192  21
   4 -10   4 193.372 19.8847  22
   4 -10   4 225.003 21.1436  23
   5 -10   4 120.267 12.7503  23
   5 -10   4 115.200 12.4652  21
   5 -10   4 118.183 12.7363  22
   6 -10   4 18.8235 3.92813  22
   6 -10   4 33.5786 4.32796  23
   6 -10   4 37.7113 4.40809  21
   7 -10   4 2.52211 2.50870  22
   7 -10   4 1.75335 2.01954  21
   5   9  -4 24.7362 3.53401  26
  -5  -9   4 24.2687 4.02305  26
   4   9  -4 31.6510 4.79013  26
  -4  -9   4 29.4163 3.82026  24
  -4  -9   4 30.0008 6.01098  26
  -3  -9   4 46.7974 7.15432  26
  -3  -9   4 40.6156 5.17249  24
  -3  -9   4 40.4286 5.56589  16
  -2  -9   4 6.35703 2.81219  16
  -2  -9   4 7.40440 4.63658  26
  -1  -9   4 -2.6765 5.99476  14
  -1  -9   4 0.31261 2.29180  17
  -1  -9   4 6.71925 4.03540  26
  -1  -9   4 2.83748 3.76343  24
  -1  -9   4 1.99979 5.59787   8
  -1  -9   4 5.24808 3.31447  16
   0  -9   4 0.61882 2.19394  26
   0  -9   4 2.03861 1.87839  16
   0  -9   4 -1.0676 3.33812  23
   0  -9   4 -0.5259 4.58723   8
   0  -9   4 1.89353 5.50430  14
   0  -9   4 1.76294 1.47237  17
   0  -9   4 -0.2571 3.27678  24
   1  -9   4 159.443 15.2150  23
   1  -9   4 131.307 12.6551  24
   1  -9   4 152.674 10.7816  16
   1  -9   4 158.007 13.7998  26
   1  -9   4 134.831 12.8904   2
   1  -9   4 132.626 15.4130   8
   1  -9   4 146.370 17.1326  14
   1  -9   4 134.014 12.5457   7
   1  -9   4 123.370 14.2663  22
   1  -9   4 148.829 10.3614  17
   1  -9   4 137.609 12.8568  13
   2  -9   4 145.913 12.3897  13
   2  -9   4 138.112 9.43431  17
   2  -9   4 126.965 11.8802  24
   2  -9   4 128.381 13.5208  22
   2  -9   4 111.083 10.9712   2
   2  -9   4 136.378 11.9756   7
   2  -9   4 122.648 9.34235  16
   2  -9   4 151.761 14.2747  23
   3  -9   4 96.0782 11.0298  13
   3  -9   4 102.006 10.0736  24
   3  -9   4 108.645 7.89799  17
   3  -9   4 109.526 12.1761  22
   3  -9   4 124.568 12.5470  23
   3  -9   4 111.898 11.0936   7
   3  -9   4 114.407 12.0880  21
   4  -9   4 231.306 23.6493  21
   4  -9   4 238.990 16.6709  17
   4  -9   4 245.203 22.9244  22
   4  -9   4 264.901 24.1743  23
   5  -9   4 219.505 19.5530  22
   5  -9   4 185.569 20.0441  21
   5  -9   4 208.973 20.4188  23
   6  -9   4 9.09847 3.04224  22
   6  -9   4 4.48411 2.59084  21
   7  -9   4 7.76083 2.89180  21
   7  -9   4 21.3163 3.07959  22
   5   8  -4 8.14796 2.55009  26
  -5  -8   4 10.7683 3.74787  26
   4   8  -4 121.512 12.3335  26
  -4  -8   4 129.432 13.2668  26
  -3  -8   4 53.0028 7.55784  26
   2   8  -4 13.0287 1.87697  12
   2   8  -4 7.72068 1.67810   6
  -2  -8   4 22.7972 5.24240  26
  -2  -8   4 15.2962 4.04392  16
  -2  -8   4 15.6409 4.96357   2
   1   8  -4 45.1355 3.05437   6
   1   8  -4 46.5070 3.10847  12
  -1  -8   4 51.2484 7.57573  15
  -1  -8   4 38.1715 6.32274   2
  -1  -8   4 39.8198 3.20704   3
  -1  -8   4 41.2862 4.99918  16
  -1  -8   4 40.3789 6.49527   9
  -1  -8   4 35.7434 3.95714  17
  -1  -8   4 50.7911 6.93123  26
   0  -8   4 183.673 16.3128  26
   0  -8   4 155.323 16.9118  23
   0  -8   4 181.320 15.5218   2
   0  -8   4 164.570 14.1672   7
   0  -8   4 158.030 14.4155  13
   0  -8   4 157.717 12.7459  16
   0  -8   4 172.696 12.2086  17
   0  -8   4 170.827 11.5375   3
   1  -8   4 187.896 19.7618  22
   1  -8   4 188.878 22.4380  14
   1  -8   4 198.985 14.2395   3
   1  -8   4 229.420 20.9911  23
   1  -8   4 240.492 18.3879   2
   1  -8   4 234.268 17.5653   7
   1  -8   4 204.324 15.2894  16
   1  -8   4 184.242 18.0329  24
   1  -8   4 248.468 19.7948  26
   1  -8   4 195.945 14.8228  17
   1  -8   4 207.052 20.5427   8
   1  -8   4 247.233 18.1027  13
   2  -8   4 18.6579 4.05377  24
   2  -8   4 27.0084 4.13028  26
   2  -8   4 30.9508 5.14106  22
   2  -8   4 29.4559 3.76209   2
   2  -8   4 35.4363 5.34600  13
   2  -8   4 29.2827 4.90130  21
   2  -8   4 35.6348 5.58009  23
   2  -8   4 29.7384 3.04362  16
   2  -8   4 30.9290 2.96018  17
   2  -8   4 38.7557 5.50001   7
   2  -8   4 29.7708 2.17247   3
   3  -8   4 23.5978 5.07725  13
   3  -8   4 20.7818 4.86602   7
   3  -8   4 22.4705 2.40929  17
   3  -8   4 28.4960 5.11373  23
   3  -8   4 18.9813 4.60518  21
   3  -8   4 29.5378 5.32744  22
   4  -8   4 9.42278 3.43817  13
   4  -8   4 7.22211 4.00217  23
   4  -8   4 9.04477 3.51870  22
   4  -8   4 7.06311 1.32557  17
   4  -8   4 8.24161 3.33092   7
   4  -8   4 9.16070 3.30302  21
   5  -8   4 27.9970 5.44047  22
   5  -8   4 23.3963 5.08869  21
   5  -8   4 22.0799 4.87402  23
   5  -8   4 22.6378 4.49142  20
   6  -8   4 27.1690 4.21290  22
   6  -8   4 16.3590 4.38960  21
   7  -8   4 1.78621 2.13605  22
   7  -8   4 3.30820 2.21735  21
   6   7  -4 0.27252 1.66421  26
   6   7  -4 0.31054 1.17602  16
   5   7  -4 7.26730 2.14518  20
   5   7  -4 7.35927 2.60200  26
  -5  -7   4 5.93615 3.75577  26
   4   7  -4 2.17293 2.16327  26
  -4  -7   4 -0.7248 3.47565  26
   3   7  -4 42.2154 3.39752   6
   3   7  -4 42.7682 3.38306  12
   3   7  -4 47.6824 6.16800  26
  -3  -7   4 53.9972 7.48386  26
  -3  -7   4 30.1868 6.69525   9
  -3  -7   4 41.6398 7.88443  15
   2   7  -4 32.0025 2.61832  12
   2   7  -4 29.2555 2.52434   6
  -2  -7   4 25.8864 2.38684   3
  -2  -7   4 33.0141 5.63233  26
  -2  -7   4 34.9721 6.86720  15
  -2  -7   4 31.8334 6.21030   9
  -2  -7   4 27.3945 4.47617  16
  -2  -7   4 29.8296 5.80648   2
   1   7  -4 36.0071 2.73941   6
   1   7  -4 33.7005 2.72594  12
  -1  -7   4 33.3424 2.65767   3
  -1  -7   4 29.1035 6.34039  15
  -1  -7   4 28.5602 3.55729  17
  -1  -7   4 34.4863 4.55006  16
  -1  -7   4 48.9396 5.94327  26
  -1  -7   4 35.5930 5.75885   2
  -1  -7   4 31.4849 5.92357   9
   0  -7   4 63.8834 6.10806  13
   0  -7   4 58.2586 6.70047   2
   0  -7   4 47.3299 5.65565  16
   0  -7   4 48.8707 4.79844  17
   0  -7   4 60.1532 7.44164  15
   0  -7   4 51.9776 6.85848  26
   0  -7   4 64.2335 5.99739   7
   0  -7   4 57.5182 4.00425   3
   0  -7   4 48.8674 7.15687  23
   0  -7   4 62.4819 7.02726   9
   1  -7   4 140.312 11.5394  13
   1  -7   4 133.367 8.54079   3
   1  -7   4 105.905 9.51498  16
   1  -7   4 136.112 12.1566  26
   1  -7   4 114.563 12.6053  21
   1  -7   4 127.604 11.4593   2
   1  -7   4 154.503 11.4250   7
   1  -7   4 114.248 9.00100  17
   1  -7   4 112.330 13.0902  23
   2  -7   4 21.0164 2.54210  16
   2  -7   4 21.3823 3.81946  24
   2  -7   4 27.9331 4.87237  13
   2  -7   4 21.2923 4.33644  21
   2  -7   4 17.3845 3.03714   2
   2  -7   4 24.7606 1.74113   3
   2  -7   4 22.1572 4.55942   7
   2  -7   4 20.1480 3.17745  26
   2  -7   4 25.6287 4.67175  23
   2  -7   4 25.6268 4.63678  22
   3  -7   4 4.85879 3.49670  21
   3  -7   4 5.21198 3.67399  23
   3  -7   4 6.84346 0.54772   3
   3  -7   4 4.43806 3.41613  20
   3  -7   4 6.60738 1.38937  17
   3  -7   4 7.70071 3.57715  13
   3  -7   4 4.66518 1.25221  16
   3  -7   4 5.43669 3.40261   7
   3  -7   4 3.65584 1.18905   2
   3  -7   4 7.76750 4.04919  22
   4  -7   4 23.2794 4.62400  20
   4  -7   4 27.0856 5.21114  22
   4  -7   4 29.7161 5.52533  13
   4  -7   4 26.2421 5.22969   7
   4  -7   4 23.9738 2.38005  17
   4  -7   4 26.3839 4.29787  21
   4  -7   4 25.0277 4.79774  23
   5  -7   4 32.5715 6.11388  20
   5  -7   4 43.1450 6.64064  21
   5  -7   4 47.2266 6.92185  23
   5  -7   4 52.3281 7.51167  22
   5  -7   4 44.9491 3.35944  17
   6  -7   4 7.76823 4.19909  22
   6  -7   4 4.41479 3.55282  20
   6  -7   4 6.90494 2.77551  21
   7  -7   4 -1.7500 2.01928  22
   7  -7   4 -0.6808 2.54277  21
   7  -7   4 -1.5707 2.58424  20
   8  -7   4 20.4689 2.78482  21
   6   6  -4 114.150 8.47961  16
   6   6  -4 108.899 11.0083  26
   6   6  -4 113.474 12.2577  20
   5   6  -4 17.5967 3.88642  26
  -5  -6   4 16.7435 5.65302  26
   4   6  -4 9.55010 3.16570  26
   4   6  -4 4.64879 1.61284   6
   4   6  -4 7.61783 1.75833  12
  -4  -6   4 2.74771 4.76743  15
  -4  -6   4 11.6715 5.05631  26
  -4  -6   4 8.24339 4.71982   9
   3   6  -4 298.413 16.6052  12
   3   6  -4 327.249 28.5122  26
   3   6  -4 301.457 16.6854   6
  -3  -6   4 336.388 25.9560   9
  -3  -6   4 305.347 29.3002  26
  -3  -6   4 318.546 27.1861  15
   2   6  -4 22.6416 2.10010  12
   2   6  -4 20.3851 1.99874   6
  -2  -6   4 17.3770 1.73818   3
  -2  -6   4 18.7610 4.69137   2
  -2  -6   4 22.7716 4.80782  26
  -2  -6   4 21.4489 4.37208   9
  -2  -6   4 25.0179 4.93734  15
  -1  -6   4 34.3408 2.64925   3
  -1  -6   4 36.8673 5.55056   2
  -1  -6   4 40.3554 5.69455   9
  -1  -6   4 37.4892 6.05756  15
  -1  -6   4 32.3103 4.27423   7
  -1  -6   4 32.2637 4.34575  13
   0  -6   4 114.634 10.0078  13
   0  -6   4 107.492 10.6463   2
   0  -6   4 111.598 7.78544   3
   0  -6   4 115.288 10.3442   9
   0  -6   4 114.953 9.75592   7
   0  -6   4 120.243 11.0602  15
   1  -6   4 178.824 15.7102   2
   1  -6   4 177.781 12.3313   3
   1  -6   4 177.433 15.7363  15
   1  -6   4 177.500 14.9352   9
   1  -6   4 200.365 15.3231  13
   1  -6   4 192.377 14.8597   7
   2  -6   4 23.1825 3.46425   2
   2  -6   4 25.2577 4.55325   7
   2  -6   4 24.3110 1.82459   3
   2  -6   4 28.4397 4.76070  13
   3  -6   4 0.27816 3.01107  21
   3  -6   4 -0.2373 1.15255   2
   3  -6   4 -1.1280 3.20594  23
   3  -6   4 -0.5878 2.80167  13
   3  -6   4 -2.0437 2.95721  20
   3  -6   4 -0.5932 1.19331  16
   3  -6   4 0.76444 2.90228   7
   3  -6   4 0.33466 1.05985  17
   3  -6   4 2.71559 3.39101  22
   3  -6   4 0.55773 0.25353   3
   4  -6   4 238.409 16.2135  17
   4  -6   4 222.279 22.4893  21
   4  -6   4 242.138 19.9700  13
   4  -6   4 229.571 22.0422  22
   4  -6   4 254.044 19.5691   7
   4  -6   4 231.948 22.8335  23
   5  -6   4 -0.1809 0.92356  17
   5  -6   4 -4.2088 2.84105  13
   5  -6   4 0.47124 3.69028  22
   5  -6   4 2.52224 2.49616  21
   5  -6   4 -0.8609 3.14711   7
   5  -6   4 -0.6615 3.24991  20
   6  -6   4 6.03337 3.60377  21
   6  -6   4 9.82237 1.13333  17
   6  -6   4 11.3728 4.12386  22
   6  -6   4 1.48259 3.40817  20
   7  -6   4 1.13331 3.17581  22
   7  -6   4 -0.1134 1.93800  21
   7  -6   4 -0.4739 2.69601  20
   8  -6   4 2.41602 1.47929  21
   7   5  -4 76.8122 8.62795  20
   6   5  -4 4.44439 2.77408  20
   6   5  -4 10.2718 1.86834  16
   6   5  -4 13.2783 2.76079  26
   5   5  -4 34.6342 4.77912  26
   4   5  -4 34.3052 3.07930   6
   4   5  -4 38.9404 5.35422  26
   4   5  -4 35.1897 3.10581  12
  -4  -5   4 44.3971 6.84917  26
  -4  -5   4 46.2942 7.53303  15
  -4  -5   4 44.9274 7.07282   9
   3   5  -4 4.60723 1.28917   6
   3   5  -4 5.50085 2.32686  26
   3   5  -4 7.40451 1.44848  12
  -3  -5   4 3.31843 3.57293   9
  -3  -5   4 6.31074 4.20045  15
  -3  -5   4 7.59034 4.04745  26
   2   5  -4 15.5323 1.78325  12
   2   5  -4 17.1152 1.80009   6
  -2  -5   4 13.9004 1.38890   3
  -2  -5   4 12.9321 3.83244   2
  -2  -5   4 14.2739 3.76054  15
  -2  -5   4 16.5554 4.33154   9
  -1  -5   4 256.253 21.0661  15
  -1  -5   4 244.238 19.2375  13
  -1  -5   4 221.992 21.0277   2
  -1  -5   4 269.681 20.1645   9
  -1  -5   4 255.690 16.8434   3
  -1  -5   4 246.047 18.7284   7
   0  -5   4 595.432 46.5477  15
   0  -5   4 582.066 39.3923   3
   0  -5   4 607.682 44.1613  13
   0  -5   4 599.578 42.9053   7
   0  -5   4 586.813 44.4293   9
   0  -5   4 562.988 47.5399   2
   1  -5   4 2.88897 0.47187   3
   1  -5   4 1.84013 2.35909  15
   1  -5   4 4.53238 2.01411   2
   1  -5   4 3.13241 2.50222  13
   1  -5   4 5.34215 2.31940   9
   1  -5   4 4.86028 2.63305   7
   2  -5   4 59.8262 4.02670   3
   2  -5   4 54.2054 6.29280   7
   2  -5   4 58.1819 6.50225  13
   2  -5   4 51.9130 5.85183   2
   3  -5   4 13.5465 1.08060   3
   3  -5   4 12.9199 2.45081   2
   3  -5   4 12.3286 3.65620  13
   3  -5   4 17.2198 4.08783  22
   3  -5   4 13.6063 3.74873   7
   4  -5   4 7.26287 3.59381   7
   4  -5   4 4.90409 3.44198  22
   4  -5   4 6.87062 0.58604   3
   4  -5   4 6.22950 3.44658  13
   4  -5   4 5.12427 3.87337  23
   4  -5   4 5.62361 1.20818  17
   4  -5   4 8.00956 3.14188  21
   4  -5   4 6.74277 3.35929  20
   4  -5   4 4.49857 1.41060   2
   4  -5   4 5.35668 1.28737  16
   5  -5   4 10.6778 4.05527  13
   5  -5   4 14.3443 4.20076  22
   5  -5   4 10.3118 3.85696  20
   5  -5   4 10.9060 3.98603   7
   5  -5   4 18.1041 1.94814  17
   5  -5   4 13.2640 3.78392  21
   6  -5   4 28.0409 4.30380  21
   6  -5   4 15.1790 4.49452  20
   6  -5   4 33.2367 4.56254  22
   6  -5   4 27.2887 2.31211  17
   7  -5   4 0.66590 0.48366  17
   7  -5   4 -0.2336 3.05078  22
   7  -5   4 0.72728 1.98143  20
   7  -5   4 -0.2691 2.80896  21
   8  -5   4 15.4138 2.44793  21
   7   4  -4 50.0302 4.28964  16
   7   4  -4 44.6911 3.93399  17
   7   4  -4 46.0108 5.83990  20
   7   4  -4 47.0191 5.73938  26
   6   4  -4 0.78499 2.78833  20
   6   4  -4 -0.4004 1.78096  26
   6   4  -4 -0.1789 1.30271  16
   5   4  -4 24.1781 2.61897  16
   5   4  -4 23.6217 3.39008  26
   5   4  -4 16.0858 3.31855   2
  -5  -4   4 9.33216 5.21751  15
  -5  -4   4 8.98640 4.79413   9
   4   4  -4 14.4392 2.86949  26
   4   4  -4 11.7938 1.81159   6
   4   4  -4 10.3724 1.76206  12
   4   4  -4 10.2242 2.66687   2
   4   4  -4 10.5313 1.10985   3
  -4  -4   4 15.0449 4.41394   9
  -4  -4   4 10.2396 4.53984  15
   3   4  -4 409.067 27.2347   3
   3   4  -4 424.089 21.1274   6
   3   4  -4 412.783 21.0297  12
   3   4  -4 359.352 32.8648   2
  -3  -4   4 420.154 31.7354   9
  -3  -4   4 407.387 33.1894  15
   2   4  -4 146.720 8.13839   6
   2   4  -4 154.993 8.15764  12
   2   4  -4 145.005 10.1597   3
   2   4  -4 149.845 12.7765   2
  -2  -4   4 146.013 10.1892   3
  -2  -4   4 128.718 13.2301   2
  -2  -4   4 169.633 13.6570  15
  -2  -4   4 164.583 12.9440   9
   1   4  -4 126.860 9.94171   1
  -1  -4   4 139.930 12.5784   2
  -1  -4   4 149.371 12.5048  15
  -1  -4   4 137.774 11.1161  13
  -1  -4   4 155.024 11.9435   9
  -1  -4   4 146.068 10.8668   7
  -1  -4   4 140.327 9.51274   3
  -1  -4   4 136.425 10.0330   1
   0   4  -4 555.215 38.8374   1
   0  -4   4 562.939 42.0252   9
   0  -4   4 555.784 37.4399   3
   0  -4   4 572.922 43.9938  15
   0  -4   4 561.436 41.8074  13
   0  -4   4 559.465 45.1270   2
   0  -4   4 553.558 38.9005   1
   0  -4   4 559.811 40.6304   7
   1  -4   4 0.36432 1.57002  13
   1  -4   4 0.10186 1.70810   9
   1  -4   4 0.54130 0.24688   3
   1  -4   4 0.73975 1.84921  15
   1  -4   4 0.72323 1.78125   2
   1  -4   4 0.81156 1.65742   7
   2  -4   4 0.79356 1.54166   2
   2  -4   4 0.96748 2.38978   7
   2  -4   4 0.82107 2.47475  13
   2  -4   4 0.91205 0.31746   3
   3  -4   4 65.4273 6.82806  13
   3  -4   4 60.0348 3.98653   3
   3  -4   4 47.1080 5.61311   2
   3  -4   4 53.8715 6.40186   7
   4  -4   4 8.35836 2.90264  13
   4  -4   4 7.69033 2.70935  22
   4  -4   4 6.71884 3.35270   7
   4  -4   4 4.64746 1.43035  16
   4  -4   4 7.48409 1.52364  17
   4  -4   4 4.38565 1.51719   2
   4  -4   4 5.58668 2.80503  21
   4  -4   4 5.50661 3.15731  20
   4  -4   4 6.98955 0.65459   3
   4  -4   4 4.21457 1.91949  26
   5  -4   4 6.83523 3.02788  13
   5  -4   4 6.17681 0.56012   3
   5  -4   4 5.93526 3.22636  20
   5  -4   4 6.60773 2.99378   7
   5  -4   4 4.34194 1.19304  16
   5  -4   4 6.77867 3.57799  22
   5  -4   4 8.07148 1.55928  17
   5  -4   4 3.31776 1.32949   2
   5  -4   4 6.05866 3.07444  21
   6  -4   4 3.71607 1.14193  17
   6  -4   4 0.67957 3.08626  20
   6  -4   4 -2.7917 3.02490  22
   6  -4   4 4.01230 2.26732  21
   7  -4   4 1.60557 1.90888  20
   7  -4   4 2.85958 0.74820  17
   7  -4   4 0.49913 2.89425  22
   7  -4   4 1.49111 2.74495  21
   8  -4   4 13.1886 2.30661  21
   8   3  -4 9.06144 2.04195  20
   7   3  -4 7.30278 1.46367  16
   7   3  -4 3.77829 1.49022  17
   7   3  -4 2.88765 2.28715  21
   7   3  -4 6.02285 2.34585  20
   7   3  -4 6.16846 2.47210  26
   6   3  -4 3.32863 1.48389  17
   6   3  -4 4.46300 2.31455  20
   6   3  -4 2.41677 1.78221  16
   6   3  -4 3.47225 2.47361  26
   5   3  -4 204.944 13.7197  16
   5   3  -4 185.229 16.2766   2
   5   3  -4 173.186 12.8993   3
   5   3  -4 206.391 17.6398  26
  -5  -3   4 184.293 16.3482   9
  -5  -3   4 175.107 17.1639  15
   4   3  -4 237.358 22.1815  26
   4   3  -4 237.459 13.1186   6
   4   3  -4 247.887 20.4904   2
   4   3  -4 235.899 13.0732  12
   4   3  -4 256.770 16.6128   3
  -4  -3   4 249.630 20.1360   9
  -4  -3   4 245.008 21.0798  15
   3   3  -4 5.90731 1.04462  12
   3   3  -4 4.81326 0.63513   3
   3   3  -4 5.67731 1.00114   6
   3   3  -4 5.14343 1.52786   2
  -3  -3   4 3.46153 2.33711  15
  -3  -3   4 5.26616 2.34289   9
   2   3  -4 298.298 16.1469  12
   2   3  -4 314.379 16.2236   6
   2   3  -4 344.608 20.9734   3
   2   3  -4 335.560 25.3810   2
   2   3  -4 292.011 21.7630   1
   2   3  -4 296.784 21.8182   1
  -2  -3   4 308.252 20.9952   3
  -2  -3   4 274.495 25.8511   2
  -2  -3   4 307.042 21.8983   1
  -2  -3   4 332.539 21.7822   1
   1   3  -4 36.9495 2.56616   3
   1   3  -4 36.1683 2.77304   1
   1   3  -4 34.4938 2.72255   1
   1   3  -4 35.2300 3.75999   2
  -1  -3   4 35.5149 2.57942   3
  -1  -3   4 33.8273 2.84679   1
  -1  -3   4 31.6514 4.46184   2
  -1  -3   4 33.6568 3.55271  13
  -1  -3   4 36.5465 2.69367   1
  -1  -3   4 32.8160 3.44877   7
   0   3  -4 134.769 8.43089   1
   0   3  -4 125.114 8.38484   1
   0   3  -4 130.002 10.0988   2
   0   3  -4 100.226 8.82307   4
   0   3  -4 115.427 8.05580   3
   0   3  -4 98.8673 9.19259  10
   0  -3   4 127.641 9.54702   7
   0  -3   4 127.856 9.80134  13
   0  -3   4 122.246 8.05524   3
   0  -3   4 124.228 8.37278   1
   0  -3   4 104.201 10.2675   2
   0  -3   4 122.585 8.45317   1
  -1   3  -4 77.4225 5.40636   1
  -1   3  -4 80.7699 5.38738   1
   1  -3   4 74.4326 5.14835   3
   1  -3   4 69.7412 6.59123  15
   1  -3   4 83.0391 7.19002  13
   1  -3   4 71.5755 5.44077   1
   1  -3   4 65.5380 6.94892   2
   1  -3   4 70.4602 6.29257   9
   1  -3   4 79.0405 6.93305   7
   2  -3   4 26.2882 1.94474   3
   2  -3   4 33.5157 4.17575   7
   2  -3   4 23.7381 3.42034   2
   2  -3   4 29.2631 4.08900  13
   3  -3   4 47.9693 6.03726  13
   3  -3   4 41.8326 4.61297   2
   3  -3   4 49.7993 5.91907   7
   3  -3   4 42.2102 3.03954   3
   4  -3   4 1.69048 2.74422   7
   4  -3   4 1.98493 3.12269  22
   4  -3   4 3.29295 3.04004  13
   4  -3   4 1.85833 0.37248   3
   4  -3   4 1.95673 1.09846  17
   4  -3   4 2.47061 2.04063  26
   4  -3   4 1.12848 2.75055  20
   4  -3   4 3.90896 2.54659  21
   4  -3   4 1.81092 1.45761   2
   4  -3   4 1.77008 1.36701  16
   5  -3   4 141.645 11.6474   7
   5  -3   4 119.526 9.08227  16
   5  -3   4 119.770 11.8300  26
   5  -3   4 96.2073 13.6926  20
   5  -3   4 128.511 10.9511   2
   5  -3   4 142.741 12.6703  21
   5  -3   4 145.678 12.0627  13
   5  -3   4 118.689 8.83064  17
   5  -3   4 120.964 12.7477  22
   5  -3   4 131.537 8.46217   3
   6  -3   4 22.9631 4.64866  22
   6  -3   4 38.3279 4.96495  21
   6  -3   4 34.3428 2.78796  17
   6  -3   4 19.5211 4.52811  20
   6  -3   4 31.3306 2.47877  16
   7  -3   4 15.1734 3.15813  22
   7  -3   4 12.6857 2.69949  21
   7  -3   4 15.2534 1.67251  17
   8  -3   4 2.71355 1.55267  21
   8   2  -4 26.4511 2.30786  17
   7   2  -4 10.8140 1.91704  16
   7   2  -4 11.5707 1.82896  17
   7   2  -4 7.10008 2.54836  26
   7   2  -4 20.4906 3.53397  20
   6   2  -4 319.046 30.7035  20
   6   2  -4 299.148 26.4344  26
   6   2  -4 292.374 20.1655  17
   6   2  -4 277.174 21.6474  11
   6   2  -4 256.087 22.6147   5
   6   2  -4 294.027 20.6125  16
   5   2  -4 12.7072 2.49289  26
   5   2  -4 7.45895 2.11670   2
   5   2  -4 9.14777 1.58150  17
   5   2  -4 12.1413 1.66910  16
   5   2  -4 10.0582 1.07804   3
  -5  -2   4 7.72708 3.43739   9
  -5  -2   4 11.3387 3.83165  15
   4   2  -4 103.532 6.76966   3
   4   2  -4 92.4876 5.62421  12
   4   2  -4 87.3542 8.64495   2
   4   2  -4 97.7381 5.66877   6
  -4  -2   4 102.224 9.74450  15
  -4  -2   4 97.5564 9.23333   9
   3   2  -4 22.6033 2.50616  10
   3   2  -4 22.4789 2.42252   4
   3   2  -4 23.7347 1.71958   3
   3   2  -4 25.2367 1.90564  12
   3   2  -4 25.0130 2.98136   2
   3   2  -4 18.3908 1.85727   1
   3   2  -4 23.2649 1.86725   6
   2   2  -4 166.384 8.95917   6
   2   2  -4 176.130 13.2633  10
   2   2  -4 168.102 11.8880   1
   2   2  -4 161.034 8.92717  12
   2   2  -4 175.443 13.9768   2
   2   2  -4 156.284 11.8288   1
   2   2  -4 183.013 11.3891   3
   2   2  -4 177.206 12.7353   4
  -2  -2   4 180.575 11.8534   1
  -2  -2   4 158.023 11.4033   3
  -2  -2   4 164.063 11.9457   1
  -2  -2   4 140.271 14.3878   2
   1   2  -4 329.392 22.0499   1
   1   2  -4 323.784 23.4025   4
   1   2  -4 316.266 24.3854  10
   1   2  -4 343.198 21.2348   3
  -1  -2   4 324.521 21.2398   3
  -1  -2   4 300.850 23.5894  13
  -1  -2   4 312.894 22.0022   1
  -1  -2   4 285.273 22.9064   7
  -1  -2   4 275.601 25.8018   2
  -1  -2   4 331.322 22.1011   1
   0   2  -4 19.8087 1.54755   3
   0   2  -4 21.9806 1.64831   1
   0   2  -4 19.0788 2.53508   2
   0   2  -4 20.9772 1.66269   1
   0  -2   4 24.6100 3.08827   7
   0  -2   4 18.8183 1.65966   1
   0  -2   4 18.4979 1.52305   3
   0  -2   4 19.1330 1.61785   1
   0  -2   4 23.5735 3.14290  13
   0  -2   4 20.5881 2.87487   2
  -1   2  -4 14.6785 1.25870   1
  -1   2  -4 15.9262 1.26998   1
  -1   2  -4 17.2511 2.40711   2
  -1   2  -4 11.1243 1.15403   3
   1  -2   4 14.2534 3.07990   7
   1  -2   4 12.5125 1.20613   1
   1  -2   4 13.2751 1.28911   1
   1  -2   4 15.4651 3.17657  13
   1  -2   4 16.1653 2.68044   2
   1  -2   4 13.1885 1.12399   3
   2  -2   4 128.862 11.1821  13
   2  -2   4 139.987 10.9628   7
   2  -2   4 139.740 11.2282   2
   2  -2   4 130.131 8.75706   3
   2  -2   4 119.883 9.14608   1
   3  -2   4 26.4961 1.96565   3
   3  -2   4 27.7535 4.18791   7
   3  -2   4 26.0787 3.39327   2
   3  -2   4 26.8249 4.19764  13
   4  -2   4 2.87131 1.19196  17
   4  -2   4 4.16224 2.22636  26
   4  -2   4 4.48474 3.10448  13
   4  -2   4 4.24744 1.54350  16
   4  -2   4 3.60620 0.52650   3
   4  -2   4 3.28302 1.66852   2
   4  -2   4 4.54473 2.48116  21
   4  -2   4 5.17087 3.07648   7
   5  -2   4 0.41526 0.37073   3
   5  -2   4 0.25124 2.54903   7
   5  -2   4 0.62809 2.67509  20
   5  -2   4 -0.2942 2.57657  13
   5  -2   4 -1.2141 2.44142  21
   5  -2   4 -1.2822 2.33407  26
   5  -2   4 0.69768 1.17379  17
   5  -2   4 -0.1600 1.39417  16
   5  -2   4 -0.8189 3.04360  22
   5  -2   4 0.36463 1.40664   2
   6  -2   4 77.4533 7.99644  21
   6  -2   4 67.2223 7.10874  26
   6  -2   4 66.7976 5.43929  16
   6  -2   4 72.6540 5.31017  17
   6  -2   4 59.6822 8.36060  22
   7  -2   4 13.4171 2.67404  21
   7  -2   4 13.6646 1.49190  17
   8  -2   4 3.55194 1.91665  21
   8   1  -4 5.68664 1.03646  17
   8   1  -4 7.37000 2.56715  20
   7   1  -4 26.9115 4.02176  26
   7   1  -4 27.2686 2.85670  17
   7   1  -4 32.6827 2.96779  16
   7   1  -4 28.9435 5.04593  20
   6   1  -4 10.8530 2.73360  20
   6   1  -4 8.12166 0.95224   3
   6   1  -4 7.42748 1.65231  16
   6   1  -4 9.71205 2.32528  26
   6   1  -4 10.1362 2.42373   5
   6   1  -4 5.36817 1.75443   2
   6   1  -4 10.5740 1.55289  17
   6   1  -4 7.75475 2.09419  11
   5   1  -4 0.33479 1.22704  16
   5   1  -4 1.10432 1.90871  19
   5   1  -4 1.19792 0.99362  17
   5   1  -4 0.48879 1.20455   2
   5   1  -4 0.27822 0.38292   3
   5   1  -4 2.27061 1.59531  26
  -5  -1   4 1.52934 2.69054  15
  -5  -1   4 -2.2513 2.22977   9
   4   1  -4 74.0084 6.62872  10
   4   1  -4 76.7375 4.42767  12
   4   1  -4 77.8835 6.41630   4
   4   1  -4 66.6090 6.71475   2
   4   1  -4 75.9181 4.43151   6
   4   1  -4 76.0451 5.20493   3
   3   1  -4 180.020 15.1638   1
   3   1  -4 220.711 16.4772   4
   3   1  -4 224.715 17.7615   2
   3   1  -4 237.847 14.6361   3
   3   1  -4 223.607 17.1718  10
   3   1  -4 228.287 11.4087   6
   3   1  -4 224.007 11.3589  12
  -3  -1   4 206.314 15.2103   1
   2   1  -4 105.130 5.64483   6
   2   1  -4 98.5011 7.33101   1
   2   1  -4 110.403 8.05916   4
   2   1  -4 114.949 8.41001  10
   2   1  -4 113.739 7.05392   3
   2   1  -4 100.599 5.62258  12
   2   1  -4 102.113 7.36150   1
   2   1  -4 101.162 8.70313   2
  -2  -1   4 86.5539 9.23111   2
  -2  -1   4 101.449 7.43111   1
  -2  -1   4 93.2577 7.05601   3
  -2  -1   4 100.886 7.32724   1
   1   1  -4 27.3117 1.93302   1
   1   1  -4 21.4343 2.31922   4
   1   1  -4 26.8045 2.83939   2
   1   1  -4 21.8743 2.42327  10
   1   1  -4 25.0959 1.88604   1
   1   1  -4 26.1278 1.77407   3
  -1  -1   4 22.8970 1.76196   3
  -1  -1   4 23.1147 1.89573   1
  -1  -1   4 20.6745 2.62351  13
  -1  -1   4 21.3102 3.34534   2
  -1  -1   4 23.2612 1.98009   1
  -1  -1   4 22.5689 2.59905   7
   0   1  -4 460.128 30.9268   1
   0   1  -4 466.388 35.6476   2
   0   1  -4 454.676 29.8699   3
   0   1  -4 458.942 30.9422   1
   0  -1   4 425.150 30.9141   1
   0  -1   4 408.169 35.7857   2
   0  -1   4 442.912 29.8415   3
   0  -1   4 449.300 30.9604   1
  -1   1  -4 132.167 11.0547   2
  -1   1  -4 121.662 8.83917   3
  -1   1  -4 139.161 9.18616   1
  -1   1  -4 136.793 9.18478   1
   1  -1   4 127.486 11.1384   2
   1  -1   4 133.995 9.18897   1
   1  -1   4 119.010 9.15212   1
   1  -1   4 130.421 8.79592   3
   2  -1   4 223.555 18.5432   2
   2  -1   4 224.030 15.0581   3
   3  -1   4 156.978 12.9533   2
   3  -1   4 134.271 12.7894  13
   3  -1   4 157.877 10.1880   3
   3  -1   4 130.858 12.4147   7
   4  -1   4 58.7302 6.89538  26
   4  -1   4 65.5863 6.35658   2
   4  -1   4 62.6404 6.57409  21
   4  -1   4 65.3270 7.15102   7
   4  -1   4 56.3080 5.14418  16
   4  -1   4 59.9956 7.24155  13
   4  -1   4 57.9618 4.80411  17
   4  -1   4 69.7345 4.45167   3
   5  -1   4 108.615 12.7552  22
   5  -1   4 131.957 9.37023  16
   5  -1   4 115.906 12.1322  26
   5  -1   4 112.505 11.1587   2
   5  -1   4 144.718 12.6261  21
   5  -1   4 123.632 9.02451  17
   5  -1   4 137.669 12.2265  13
   5  -1   4 138.146 11.8693   7
   6  -1   4 39.5226 3.75477  16
   6  -1   4 35.9694 5.02294  26
   6  -1   4 47.3227 6.03346  22
   6  -1   4 48.2863 5.78082  21
   6  -1   4 43.3106 3.69505  17
   7  -1   4 12.4967 1.39956  17
   7  -1   4 5.57933 2.73757  21
   9   0  -4 3.71467 1.89319  20
   8   0  -4 2.45632 3.11733  20
   8   0  -4 2.33912 1.06365  17
   7   0  -4 12.0468 2.16859  26
   7   0  -4 5.32420 2.46269  19
   7   0  -4 15.5965 3.24197  20
   7   0  -4 10.6939 1.56753  17
   7   0  -4 13.5975 1.56957  16
   6   0  -4 211.403 17.7285  19
   6   0  -4 231.699 15.0066  16
   6   0  -4 170.641 18.1808  18
   6   0  -4 213.589 15.9349  11
   6   0  -4 209.102 19.1940  26
   6   0  -4 228.528 14.6755  17
   6   0  -4 240.309 22.6055  20
   6   0  -4 213.010 16.7354   5
   6   0  -4 195.099 14.3344   3
   5   0  -4 118.670 12.4729  20
   5   0  -4 115.895 10.5287  26
   5   0  -4 117.505 8.84321  11
   5   0  -4 113.910 9.44532   4
   5   0  -4 121.819 9.32688   5
   5   0  -4 107.205 7.93994  17
   5   0  -4 116.401 9.84535  10
   5   0  -4 106.990 8.18283  16
   5   0  -4 114.885 7.75257   3
   5   0  -4 104.601 9.66282   2
   4   0  -4 117.363 6.87831  12
   4   0  -4 120.841 10.1128   4
   4   0  -4 143.747 8.64799   3
   4   0  -4 125.509 6.92875   6
   4   0  -4 117.016 10.6171   2
   4   0  -4 122.756 10.5442  10
   3   0  -4 1189.68 91.1714   1
   3   0  -4 1140.04 91.1258   1
   3   0  -4 1420.79 88.0281   3
   3   0  -4 1370.47 104.196   2
   3   0  -4 1391.54 66.7882   6
   3   0  -4 1380.00 97.0496   4
   3   0  -4 1391.33 66.4865  12
   3   0  -4 1399.87 101.154  10
  -3   0   4 1291.13 91.1604   1
  -3   0   4 1239.62 91.2253   1
   2   0  -4 144.037 11.1046   1
   2   0  -4 170.798 10.7265   3
   2   0  -4 167.422 12.1189   4
   2   0  -4 161.065 8.29361  12
   2   0  -4 166.917 11.1581   1
   2   0  -4 166.155 12.6281  10
   2   0  -4 158.452 8.31244   6
   2   0  -4 177.316 13.0908   2
  -2   0   4 131.845 10.7120   3
  -2   0   4 159.510 11.1963   1
  -2   0   4 154.448 11.1305   1
   1   0  -4 30.6755 3.14277  10
   1   0  -4 27.8954 2.99210   4
   1   0  -4 40.9495 2.53477   1
   1   0  -4 33.3042 2.52157   1
   1   0  -4 34.6282 2.41108   3
   1   0  -4 42.6367 3.54522   2
  -1   0   4 31.9878 2.51393   1
  -1   0   4 28.7975 2.37884   3
  -1   0   4 30.6425 3.85702   2
  -1   0   4 34.9176 2.57909   1
   0   0  -4 8.95264 0.91427   1
   0   0  -4 7.98850 0.84054   3
   0   0  -4 9.51852 1.95427   2
   0   0  -4 9.83423 0.91821   1
   0   0   4 7.81925 0.93471   1
   0   0   4 8.77914 2.13396   2
   0   0   4 8.53344 0.77724   3
   0   0   4 7.77686 0.90778   1
  -1   0  -4 32.4370 2.41102   3
  -1   0  -4 37.2162 2.55756   1
  -1   0  -4 31.6991 3.88643   2
  -1   0  -4 36.0468 2.50884   1
   1   0   4 29.5824 2.46735   1
   1   0   4 32.4083 2.51188   1
   1   0   4 30.3480 2.31484   3
   1   0   4 31.7354 3.82242   2
  -2   0  -4 1974.78 131.335   1
   2   0   4 1960.98 150.245   2
   2   0   4 1990.32 126.763   3
   2   0   4 1683.17 131.258   1
   3   0   4 68.8391 4.77457   3
   3   0   4 66.5371 6.63187   2
   4   0   4 110.020 10.5987   7
   4   0   4 115.940 11.3874  21
   4   0   4 112.736 10.9326  13
   4   0   4 126.872 7.98950   3
   4   0   4 114.589 8.59366  16
   4   0   4 105.023 11.3815  26
   4   0   4 105.192 8.32779  17
   4   0   4 125.813 10.5133   2
   5   0   4 144.592 14.8451  26
   5   0   4 137.365 13.8280   2
   5   0   4 154.910 11.6074  16
   5   0   4 160.841 11.2450  17
   5   0   4 188.548 15.4455  21
   6   0   4 0.34672 1.52634  16
   6   0   4 -0.5229 0.95704  17
   6   0   4 -0.3368 2.06853  26
   6   0   4 0.46954 2.57078  21
   7   0   4 1.07884 1.71854  21
   7   0   4 0.48517 0.73743  16
   7   0   4 0.28079 0.76054  17
   9  -1  -4 5.42961 2.20232  20
   8  -1  -4 15.4405 1.47836  17
   8  -1  -4 8.58361 2.83063  19
   8  -1  -4 17.3082 3.48048  20
   7  -1  -4 261.926 25.0488  19
   7  -1  -4 329.275 20.8242  17
   7  -1  -4 314.524 31.8786  20
   6  -1  -4 129.852 9.94357   3
   6  -1  -4 165.076 10.2482  17
   6  -1  -4 141.559 12.6444  19
   6  -1  -4 140.257 13.2335  18
   6  -1  -4 131.795 11.8410   5
   6  -1  -4 156.066 10.4118  16
   6  -1  -4 147.407 11.3883  11
   6  -1  -4 139.051 13.3345  26
   6  -1  -4 171.129 16.1184  20
   5  -1  -4 91.4021 7.61195   4
   5  -1  -4 83.6967 7.48119   2
   5  -1  -4 88.7337 6.20101  17
   5  -1  -4 85.9861 7.02498  11
   5  -1  -4 79.2388 6.33363  16
   5  -1  -4 95.7761 10.0115  20
   5  -1  -4 89.8731 7.89931  10
   5  -1  -4 89.6711 7.42270   5
   5  -1  -4 87.3766 5.99183   3
   4  -1  -4 5.59529 0.61498   3
   4  -1  -4 8.05046 1.87789   4
   4  -1  -4 9.13598 1.98328  10
   4  -1  -4 6.65458 1.38171   2
   3  -1  -4 310.663 21.9087   4
   3  -1  -4 290.105 20.2005   1
   3  -1  -4 292.539 14.8749  12
   3  -1  -4 315.631 22.8400  10
   3  -1  -4 251.259 20.1559   1
   3  -1  -4 305.280 23.2845   2
   3  -1  -4 309.237 19.4725   3
   3  -1  -4 304.847 14.9496   6
  -3   1   4 261.784 20.1759   1
  -3   1   4 278.983 20.2441   1
   2  -1  -4 2.81901 0.45706   3
   2  -1  -4 3.64285 1.21257   4
   2  -1  -4 2.74203 1.32331   2
   2  -1  -4 3.74296 1.27062  10
   2  -1  -4 4.61099 1.29765   2
   2  -1  -4 3.18998 0.50372   1
   2  -1  -4 3.38013 0.51137   1
   2  -1  -4 3.27883 0.62315  12
   2  -1  -4 3.24276 0.48226   3
   2  -1  -4 3.78478 0.62611   6
  -2   1   4 2.91799 0.60323   1
  -2   1   4 2.69118 0.51271   1
   1  -1  -4 84.4422 6.42313   2
   1  -1  -4 79.4842 4.98535   3
   1  -1  -4 75.6780 5.16076   1
   1  -1  -4 79.8027 5.17756   1
   1  -1  -4 57.6141 6.23584  10
   1  -1  -4 62.6163 6.01731   4
  -1   1   4 59.5220 6.34514   2
  -1   1   4 70.6633 5.16215   1
  -1   1   4 72.7139 5.18229   1
  -1   1   4 68.4537 4.94112   3
   0  -1  -4 0.59006 0.40272   3
   0  -1  -4 0.13694 1.08178   2
   0  -1  -4 0.67598 0.39370   1
   0  -1  -4 0.95374 0.33977   1
   0   1   4 0.72097 0.32393   3
   0   1   4 0.73651 0.45450   1
   0   1   4 0.42000 0.30433   1
   0   1   4 0.72897 1.15254   2
  -1  -1  -4 86.7954 7.96021   2
  -1  -1  -4 92.9346 5.96830   3
  -1  -1  -4 90.6997 6.19364   1
  -1  -1  -4 90.2370 6.20747   1
   1   1   4 77.1826 6.16004   1
   1   1   4 82.9261 5.86746   3
   1   1   4 78.4854 6.14191   1
   1   1   4 92.5268 7.83420   2
  -2  -1  -4 487.924 32.5969   1
   2   1   4 471.718 31.3297   3
   2   1   4 397.966 32.4843   1
   2   1   4 530.534 37.8892   2
   3   1   4 0.05592 0.36803   3
   3   1   4 0.91389 1.18912   2
   4   1   4 18.9657 2.36010  16
   4   1   4 17.8235 3.20194  26
   4   1   4 21.1345 3.31263   2
   4   1   4 17.3411 1.54202   3
   4   1   4 18.1728 2.24409  17
   5   1   4 27.7633 3.97733  26
   5   1   4 23.5214 3.61459  21
   5   1   4 23.1609 2.47687  17
   5   1   4 25.0571 2.84941  16
   6   1   4 2.33021 1.91478  21
   6   1   4 0.00346 2.43168  26
   6   1   4 1.08259 1.70372  16
   6   1   4 1.36167 1.50698  17
   7   1   4 67.1497 5.04935  16
   7   1   4 70.8956 7.07177  21
   9  -2  -4 27.8440 4.11661  20
   9  -2  -4 22.5992 3.25568  19
   8  -2  -4 46.5521 7.05417  20
   8  -2  -4 42.7985 5.00298  19
   8  -2  -4 49.0628 3.55210  17
   7  -2  -4 135.025 13.9771  18
   7  -2  -4 145.735 13.2165  19
   7  -2  -4 169.929 17.0583  20
   7  -2  -4 160.727 10.6755  17
   6  -2  -4 86.7382 7.56112   4
   6  -2  -4 74.4267 5.72554   3
   6  -2  -4 77.4386 6.99553   2
   6  -2  -4 97.7437 6.01704  17
   6  -2  -4 76.0508 7.45921   5
   6  -2  -4 79.8710 8.47999  18
   6  -2  -4 87.0388 7.86566  10
   6  -2  -4 92.8918 5.99828  16
   6  -2  -4 84.4677 7.98503  19
   6  -2  -4 80.2378 7.13665  11
   6  -2  -4 93.8840 10.0268  20
   5  -2  -4 27.1662 3.15405  10
   5  -2  -4 28.8790 3.07464   4
   5  -2  -4 24.2755 2.45562   2
   5  -2  -4 26.1666 3.04838   5
   5  -2  -4 24.6820 1.82855   3
   5  -2  -4 26.8874 2.92207  11
   4  -2  -4 15.4704 2.11597   5
   4  -2  -4 10.2734 0.89983   3
   4  -2  -4 14.2255 1.91698  11
   4  -2  -4 10.4235 1.36124   2
   4  -2  -4 13.9568 2.16807  10
   4  -2  -4 13.9291 2.08120   4
   3  -2  -4 7.48542 0.63440   3
   3  -2  -4 8.22717 1.28967   2
   3  -2  -4 7.98818 1.84826  10
   3  -2  -4 11.0279 1.89485   4
   3  -2  -4 6.23294 0.70003   1
   3  -2  -4 6.33557 0.62601   3
   3  -2  -4 7.48846 0.70087   1
   3  -2  -4 8.41594 1.48005   2
  -3   2   4 6.18887 0.77165   1
   2  -2  -4 50.1880 2.72518   6
   2  -2  -4 52.8212 3.52137   3
   2  -2  -4 50.9889 4.82776  10
   2  -2  -4 51.6957 2.71866  12
   2  -2  -4 56.5374 4.57951   2
   2  -2  -4 49.0367 3.64237   1
   2  -2  -4 52.8198 4.66534   4
   2  -2  -4 53.2426 3.66739   1
   2  -2  -4 52.8020 4.68193   2
  -2   2   4 44.5896 3.67748   1
  -2   2   4 46.6158 3.65390   1
   1  -2  -4 697.999 50.5946   1
   1  -2  -4 641.204 54.1081   4
   1  -2  -4 852.306 50.6200   1
  -1   2   4 685.604 48.8381   3
  -1   2   4 764.702 50.6193   1
  -1   2   4 832.624 50.6291   1
  -1   2   4 629.479 58.0690   2
   0  -2  -4 3.07440 0.59499   1
   0  -2  -4 3.39739 0.55860   1
   0  -2  -4 3.43561 0.57925   3
   0  -2  -4 3.65071 1.85784   2
   0   2   4 2.66185 0.59777   1
   0   2   4 3.68719 0.49094   3
   0   2   4 2.70040 0.56223   1
   0   2   4 2.88131 1.68211   2
  -1  -2  -4 90.8624 5.78924   3
  -1  -2  -4 87.0964 6.03211   1
  -1  -2  -4 82.7533 7.88875   2
  -1  -2  -4 89.9158 6.01883   1
   1   2   4 71.5640 5.97488   1
   1   2   4 74.8386 5.65625   3
   1   2   4 92.7863 7.66283   2
   1   2   4 77.8227 5.94441   1
   2   2   4 8.22606 0.87783   3
   2   2   4 9.98374 2.28869   2
   3   2   4 29.3871 4.16681   2
   3   2   4 27.4239 2.19711   3
   3   2   4 33.0775 4.58417  26
   4   2   4 39.8894 5.93337  26
   4   2   4 37.6915 2.96716   3
   4   2   4 44.4007 5.18127   2
   4   2   4 40.8920 4.15259  16
   5   2   4 42.3862 4.01125  16
   5   2   4 37.5479 5.40641  26
   5   2   4 42.9032 5.43758  21
   6   2   4 106.650 10.8625  26
   6   2   4 124.175 10.8150  21
   6   2   4 96.9524 7.96552  17
   6   2   4 107.163 8.33367  16
   7   2   4 49.2403 4.81096  21
   7   2   4 43.4402 3.41224  16
   7   2   4 41.1502 4.48100  26
   7   2   4 43.7562 3.39807  17
   9  -3  -4 9.12885 2.08985  19
   9  -3  -4 8.19354 2.65682  20
   8  -3  -4 50.0119 7.29645  20
   8  -3  -4 49.6409 5.89910  19
   7  -3  -4 17.9208 2.87341  19
   7  -3  -4 16.6848 3.99919  20
   7  -3  -4 11.5146 3.37624  18
   7  -3  -4 13.9722 1.46120  17
   6  -3  -4 108.258 9.39342  19
   6  -3  -4 111.399 7.21063  17
   6  -3  -4 115.089 11.9154  20
   6  -3  -4 111.072 9.95163  18
   6  -3  -4 100.170 8.53994  25
   6  -3  -4 81.1804 8.24295  11
   6  -3  -4 104.827 8.93715   4
   6  -3  -4 104.435 9.30435  10
   6  -3  -4 83.4408 8.73322   5
   5  -3  -4 3.17701 1.44852  10
   5  -3  -4 2.96108 1.39391  11
   5  -3  -4 2.79426 1.56186   5
   5  -3  -4 4.38873 0.67834  17
   5  -3  -4 4.01223 1.49962   4
   5  -3  -4 4.66230 1.59124  19
   5  -3  -4 5.20574 2.29943  18
   5  -3  -4 3.44789 1.82556  25
   4  -3  -4 95.0861 7.46372   5
   4  -3  -4 98.6490 8.18925  10
   4  -3  -4 99.7562 7.63549   2
   4  -3  -4 99.0621 7.87767   4
   4  -3  -4 91.6049 7.53758   2
   4  -3  -4 89.0033 7.07199  11
   4  -3  -4 89.1880 6.29679   3
   3  -3  -4 524.463 33.3913   3
   3  -3  -4 494.773 34.5671   1
   3  -3  -4 530.149 37.3204   4
   3  -3  -4 552.633 39.6613   2
   3  -3  -4 467.277 39.5385   2
   3  -3  -4 504.303 38.8607  10
  -3   3   4 436.866 34.5917   1
   2  -3  -4 27.3079 2.63767   2
   2  -3  -4 26.9779 3.09948   4
   2  -3  -4 21.8507 1.77764   3
   2  -3  -4 27.9306 1.81651   3
   2  -3  -4 22.4660 1.86775   1
   2  -3  -4 27.0214 3.35315  10
   2  -3  -4 27.4133 1.89802   1
   2  -3  -4 26.1026 2.60434   2
  -2   3   4 24.7526 1.92364   1
  -2   3   4 24.1709 1.90722   1
   1  -3  -4 166.380 15.1405   4
   1  -3  -4 157.291 15.7328  10
   1  -3  -4 219.672 13.3026   3
   1  -3  -4 210.446 13.7737   1
   1  -3  -4 213.504 13.7840   1
   1  -3  -4 207.583 16.1964   2
  -1   3   4 194.898 13.7919   1
  -1   3   4 184.169 13.7477   1
   0  -3  -4 13.7120 4.18808  14
   0  -3  -4 9.40612 0.94065   3
   0  -3  -4 7.88717 0.91512   1
   0  -3  -4 11.2429 2.12092   2
   0  -3  -4 9.38265 0.95577   1
   0  -3  -4 9.72118 3.55761   8
   0   3   4 7.53912 1.00253   1
   0   3   4 8.12213 0.87375   1
  -1  -3  -4 0.05545 0.53338   1
  -1  -3  -4 0.25824 0.34933   3
  -1  -3  -4 2.36902 2.82776   8
  -1  -3  -4 1.13254 2.07301   2
  -1  -3  -4 0.69376 3.03061  14
   1   3   4 0.00888 0.39343   1
   2   3   4 30.5147 3.24555  11
   2   3   4 32.3258 3.33741   5
   3   3   4 87.4869 9.47940  26
   4   3   4 0.04981 1.45168  16
   4   3   4 0.53811 2.19072  26
   5   3   4 6.04751 3.50507  26
   5   3   4 5.30243 2.38559  16
   5   3   4 4.51246 2.54356  21
   6   3   4 37.1128 5.38927  26
   6   3   4 39.2936 4.46823  21
   6   3   4 35.8613 3.93722  16
   9  -4  -4 2.09610 2.12558  20
   9  -4  -4 -0.7154 2.42352  19
   8  -4  -4 2.78414 3.25750  20
   8  -4  -4 0.66054 2.73283  18
   8  -4  -4 0.85365 2.59044  19
   7  -4  -4 100.110 9.66052  19
   7  -4  -4 107.096 12.2543  20
   7  -4  -4 103.338 7.06574  17
   7  -4  -4 103.366 10.2140  18
   6  -4  -4 52.4170 5.52437  19
   6  -4  -4 49.5846 4.58136  25
   6  -4  -4 51.2656 5.99666  18
   6  -4  -4 49.0037 6.98670  20
   6  -4  -4 49.0687 5.17955  10
   6  -4  -4 48.9783 4.97511   4
   6  -4  -4 49.0416 3.49306  17
   5  -4  -4 184.691 14.0032  25
   5  -4  -4 184.505 14.4900   4
   5  -4  -4 181.429 15.0508  10
   5  -4  -4 197.046 15.2937  19
   5  -4  -4 157.829 15.4725  24
   5  -4  -4 180.990 12.3483  17
   5  -4  -4 186.284 15.9338  18
   4  -4  -4 31.3049 3.33391   4
   4  -4  -4 33.1992 3.49476  10
   3  -4  -4 151.397 10.6407   2
   3  -4  -4 144.827 11.0888  10
   3  -4  -4 148.593 10.6633   4
   3  -4  -4 135.080 8.87619   3
   3  -4  -4 118.942 9.18764   1
  -3   4   4 114.775 9.22106   1
   2  -4  -4 339.174 24.4609   2
   2  -4  -4 298.563 23.0899   4
   2  -4  -4 280.909 24.0173  10
   2  -4  -4 333.740 20.3897   3
  -2   4   4 266.126 21.1034   1
   1  -4  -4 460.328 37.0930   4
   1  -4  -4 512.624 39.6690   2
   1  -4  -4 424.552 38.5877  10
   1  -4  -4 563.152 33.1735   3
   0  -4  -4 76.1750 8.27453   8
   0  -4  -4 72.1261 5.15424   3
   0  -4  -4 73.8596 9.15165  14
   0  -4  -4 75.4892 7.18032   2
  -1  -4  -4 80.8719 9.48450  14
  -1  -4  -4 79.5290 8.53020   8
  -1  -4  -4 76.3030 7.80682   2
  -1  -4  -4 72.1829 5.36585   3
  -2  -4  -4 568.886 53.6698  14
  -2  -4  -4 582.353 50.3844  26
  -2  -4  -4 528.340 48.5640   8
  -3  -4  -4 14.9659 4.48224  26
   3   4   4 16.5932 3.88066  26
   4   4   4 19.2821 3.81532  26
   5   4   4 56.8308 6.11953  21
   5   4   4 55.3027 5.43858  16
   5   4   4 52.4887 7.41678  26
   6   4   4 29.6286 4.36475  26
   6   4   4 38.6457 4.12050  21
   6   4   4 32.9491 3.29457  16
   9  -5  -4 20.8068 3.57871  19
   9  -5  -4 32.8356 4.44330  20
   8  -5  -4 126.917 12.1789  18
   8  -5  -4 125.692 14.4145  20
   8  -5  -4 138.427 11.4696  19
   7  -5  -4 302.956 26.5779  18
   7  -5  -4 312.376 23.3983  25
   7  -5  -4 305.817 25.5649  19
   7  -5  -4 311.908 32.4776  20
   6  -5  -4 32.9276 3.83647   4
   6  -5  -4 30.2127 5.28976  20
   6  -5  -4 32.9226 3.97196  10
   6  -5  -4 32.8320 4.28629  24
   6  -5  -4 36.9071 4.50940  19
   6  -5  -4 30.8752 4.03143  25
   6  -5  -4 35.6900 4.40241  18
   5  -5  -4 5.05025 3.08380  20
   5  -5  -4 5.67332 2.14228  10
   5  -5  -4 7.03586 1.98193  25
   5  -5  -4 6.66522 2.43456  18
   5  -5  -4 5.54464 2.06280   4
   5  -5  -4 5.03039 2.59965  24
   5  -5  -4 5.17207 0.48488  17
   5  -5  -4 6.38958 3.85377  23
   5  -5  -4 6.77319 2.11289  19
   4  -5  -4 37.9520 4.02889   4
   4  -5  -4 39.9049 4.21195  10
   3  -5  -4 70.6287 5.44996   2
   3  -5  -4 76.0841 6.11277   4
   3  -5  -4 62.9100 4.55918   3
   3  -5  -4 73.3289 6.32792  10
   2  -5  -4 1580.11 129.770  10
   2  -5  -4 1668.53 112.805   3
   2  -5  -4 1855.48 133.515   2
   2  -5  -4 1661.30 124.550   4
   1  -5  -4 9.40410 2.08153   2
   1  -5  -4 11.7372 4.13491   8
   1  -5  -4 8.80965 2.05588  10
   1  -5  -4 11.7136 4.66003  14
   1  -5  -4 8.74641 0.89128   3
   1  -5  -4 8.58411 1.97113   4
   0  -5  -4 7.33829 3.99349   8
   0  -5  -4 4.83821 0.70121   3
   0  -5  -4 5.19765 1.91866   2
   0  -5  -4 10.4276 4.76337  14
  -1  -5  -4 72.3094 9.80457  26
  -1  -5  -4 101.719 10.6891   8
  -1  -5  -4 101.940 6.83370   3
  -1  -5  -4 99.4360 9.66812   2
  -1  -5  -4 110.006 11.9858  14
  -2  -5  -4 55.6592 7.30041  26
   2   5   4 44.2086 6.58304  26
  -3  -5  -4 4.00054 2.99278  26
   3   5   4 5.79561 2.68408  26
  -4  -5  -4 9.47340 4.49442  26
   4   5   4 5.26742 3.78752  26
   5   5   4 2.01952 2.18445  21
   5   5   4 0.74835 3.19252  26
   5   5   4 1.24953 2.20595  16
   6   5   4 5.23143 1.45404  21
   6   5   4 2.00289 1.20444  16
   6   5   4 2.48908 2.21951  26
   9  -6  -4 33.1988 3.81159  19
   9  -6  -4 32.4936 4.63332  20
   8  -6  -4 9.66294 3.00571  20
   8  -6  -4 9.75024 3.11089  18
   8  -6  -4 11.5950 2.42177  19
   7  -6  -4 1.32041 1.56210  25
   7  -6  -4 0.15301 2.06634  18
   7  -6  -4 0.35310 2.36608  19
   7  -6  -4 2.66733 2.57264  20
   6  -6  -4 2.88916 1.55580  10
   6  -6  -4 3.31703 2.03353  24
   6  -6  -4 1.62602 2.44083  18
   6  -6  -4 4.20921 2.18131  25
   6  -6  -4 2.65953 2.47778  20
   6  -6  -4 2.63523 2.35676  19
   6  -6  -4 3.52856 1.55757   4
   5  -6  -4 252.268 18.8671  25
   5  -6  -4 251.248 20.1027  10
   5  -6  -4 226.816 23.9077  23
   5  -6  -4 252.043 20.7829  24
   5  -6  -4 252.837 21.2920  18
   5  -6  -4 250.260 20.3401  19
   5  -6  -4 239.111 19.2424   4
   4  -6  -4 145.013 11.7299  10
   4  -6  -4 131.594 11.0729  25
   4  -6  -4 135.257 11.2032   4
   4  -6  -4 140.034 9.49598  17
   4  -6  -4 146.123 12.2118  24
   4  -6  -4 132.559 14.4863  23
   4  -6  -4 145.561 12.4742  18
   3  -6  -4 192.048 15.9936  10
   3  -6  -4 201.559 15.3907   4
   2  -6  -4 1472.03 96.7913   3
   2  -6  -4 1406.68 111.541  10
   2  -6  -4 1472.62 107.060   4
   1  -6  -4 4.26928 1.78226   2
   1  -6  -4 4.22262 1.85666   4
   1  -6  -4 4.00398 1.89474  10
   1  -6  -4 9.61159 4.07397  14
   1  -6  -4 5.09471 0.65956   3
   1  -6  -4 8.19096 3.46107   8
   0  -6  -4 186.145 16.4883   4
   0  -6  -4 251.224 20.4506   8
   0  -6  -4 182.667 15.1531  16
   0  -6  -4 263.230 22.7115  14
   0  -6  -4 233.918 18.2002   2
   0  -6  -4 235.669 14.2677   3
   0  -6  -4 175.370 19.4118  26
   0  -6  -4 179.953 17.1404  10
  -1  -6  -4 259.563 22.7747   8
  -1  -6  -4 270.297 25.2414  14
  -1  -6  -4 254.709 16.2774   3
  -1  -6  -4 237.717 20.8058   2
  -1  -6  -4 222.426 22.4067  26
  -1  -6  -4 193.770 17.3396  16
  -2  -6  -4 23.5806 4.48825  26
  -3  -6  -4 266.739 25.6506  26
   3   6   4 277.135 25.4189  26
  -4  -6  -4 188.641 16.5820  26
   4   6   4 147.476 15.9197  26
  -5  -6  -4 19.8350 3.64624  26
   5   6   4 12.2299 2.30056  21
   5   6   4 16.6410 3.20208  26
   9  -7  -4 29.7222 3.55534  19
   9  -7  -4 35.5246 4.53387  20
   8  -7  -4 20.8889 3.42762  18
   8  -7  -4 21.5325 3.28437  19
   8  -7  -4 14.6668 4.08669  20
   7  -7  -4 23.4734 4.34067  20
   7  -7  -4 22.3685 3.09719  25
   7  -7  -4 22.6671 3.37289  18
   7  -7  -4 18.1194 3.38647  19
   6  -7  -4 175.886 23.3845  20
   6  -7  -4 263.609 17.1337  25
   6  -7  -4 239.238 19.2419  18
   6  -7  -4 184.765 21.4949  23
   6  -7  -4 225.484 18.5035  19
   6  -7  -4 231.523 18.9024  24
   5  -7  -4 167.720 14.8334  10
   5  -7  -4 170.688 18.2328  23
   5  -7  -4 184.325 15.3670  24
   5  -7  -4 187.706 15.2706  19
   5  -7  -4 194.239 15.7023  18
   5  -7  -4 165.261 17.3776  22
   5  -7  -4 189.540 13.9703  25
   5  -7  -4 167.929 14.2437   4
   4  -7  -4 81.5631 7.13138  10
   4  -7  -4 72.3278 7.02259  25
   4  -7  -4 76.4230 6.80272   4
   4  -7  -4 79.0194 7.72335  24
   4  -7  -4 68.1937 9.26682  22
   4  -7  -4 81.5994 5.42167  17
   4  -7  -4 81.3334 9.86936  23
   4  -7  -4 81.0867 7.70930  18
   3  -7  -4 50.4409 4.88013  10
   3  -7  -4 50.8621 4.70158   4
   3  -7  -4 44.7544 5.57255  24
   3  -7  -4 47.7839 3.52232  17
   3  -7  -4 46.5417 5.30015  18
   3  -7  -4 48.7988 6.60100  22
   3  -7  -4 43.0096 5.03059  25
   3  -7  -4 52.7881 6.84921  23
   2  -7  -4 21.0997 1.66921   3
   2  -7  -4 25.3997 2.45792  16
   2  -7  -4 24.7085 3.15115  10
   2  -7  -4 24.0022 4.79885  23
   2  -7  -4 29.8431 3.23231  24
   2  -7  -4 22.4703 2.37467  17
   2  -7  -4 18.3646 2.93869  26
   2  -7  -4 22.5893 3.08267   4
   2  -7  -4 21.6511 3.12597  25
   1  -7  -4 13.2308 2.09993  17
   1  -7  -4 10.6224 2.39155   4
   1  -7  -4 13.1139 1.20642   3
   1  -7  -4 15.7623 6.12345  14
   1  -7  -4 11.8915 5.30222   8
   1  -7  -4 11.1401 2.53946  10
   1  -7  -4 14.4613 2.93095  24
   1  -7  -4 16.5946 2.30224  16
   1  -7  -4 12.0961 2.61009   2
   1  -7  -4 11.1690 3.87569  23
   1  -7  -4 11.6533 2.76466  25
   1  -7  -4 13.5419 3.01345  26
   0  -7  -4 53.7841 9.76704  14
   0  -7  -4 44.1767 6.63358  26
   0  -7  -4 55.9762 8.98184   8
   0  -7  -4 55.1646 6.16572   2
   0  -7  -4 45.4177 4.49255  17
   0  -7  -4 41.7157 5.00775  16
   0  -7  -4 50.1939 3.67186   3
  -1  -7  -4 29.3439 7.71522  14
  -1  -7  -4 34.3858 2.71738   3
  -1  -7  -4 28.1121 4.04883  16
  -1  -7  -4 28.4524 6.87052   8
  -1  -7  -4 33.1454 5.54319  26
  -1  -7  -4 24.2112 4.98491   2
  -2  -7  -4 22.8139 3.93713  16
  -2  -7  -4 21.4074 5.19135  26
  -3  -7  -4 104.618 11.6191  26
   3   7   4 90.6758 11.0141  26
  -4  -7  -4 28.9477 5.16648  26
   4   7   4 28.5989 4.97754  26
   5   7   4 4.69987 2.03067  26
   9  -8  -4 4.15317 1.46931  19
   8  -8  -4 51.3705 7.56743  20
   8  -8  -4 73.5909 6.42272  18
   8  -8  -4 71.5512 6.19194  19
   7  -8  -4 10.3512 2.87455  19
   7  -8  -4 8.94080 3.66541  20
   7  -8  -4 24.1870 2.73754  25
   7  -8  -4 12.7866 3.00207  18
   7  -8  -4 21.7663 3.00061  24
   6  -8  -4 30.4233 5.34721  23
   6  -8  -4 33.8342 4.76815  18
   6  -8  -4 38.6506 4.43012  25
   6  -8  -4 46.4675 5.02165  24
   6  -8  -4 22.8046 5.02651  22
   6  -8  -4 32.5186 3.96222  19
   5  -8  -4 3.11269 4.01079  22
   5  -8  -4 3.13751 4.05616  23
   5  -8  -4 8.54448 2.93474  24
   5  -8  -4 5.93227 2.55476  25
   5  -8  -4 10.1860 2.05714  18
   4  -8  -4 53.2902 5.84606  25
   4  -8  -4 56.2678 5.80343  24
   4  -8  -4 57.0788 3.82535  17
   4  -8  -4 52.7849 7.61847  23
   4  -8  -4 48.0318 7.21269  22
   4  -8  -4 56.7275 5.93136  18
   3  -8  -4 6.19482 2.58660  25
   3  -8  -4 6.60087 4.28831  23
   3  -8  -4 7.80005 1.12842  17
   3  -8  -4 8.07189 2.93185  24
   3  -8  -4 3.71687 2.18634  18
   2  -8  -4 0.09832 2.23731  25
   2  -8  -4 1.32561 1.38373  16
   2  -8  -4 0.95469 2.60174  24
   2  -8  -4 0.47291 0.26336   3
   2  -8  -4 0.46395 1.20462   2
   2  -8  -4 0.79847 1.24452  17
   2  -8  -4 0.70381 3.74482  23
   1  -8  -4 169.405 12.4193  16
   1  -8  -4 142.062 15.8709  26
   1  -8  -4 193.949 14.8688  24
   1  -8  -4 173.165 13.6932  25
   1  -8  -4 152.368 17.6209  23
   1  -8  -4 198.604 19.7045  14
   1  -8  -4 185.071 17.6190   8
   1  -8  -4 170.723 12.1129  17
   0  -8  -4 13.2045 2.63615  25
   0  -8  -4 12.7662 3.02781   2
   0  -8  -4 13.1977 3.19433  26
   0  -8  -4 13.5277 6.13084   8
   0  -8  -4 13.4388 1.36539   3
   0  -8  -4 11.6870 6.57398  14
   0  -8  -4 17.3506 2.62814  17
   0  -8  -4 15.9435 2.46588  16
  -1  -8  -4 0.13650 3.57719  26
  -1  -8  -4 2.98458 2.18386  17
  -1  -8  -4 0.91431 2.69413  16
  -2  -8  -4 10.2988 4.41195  26
  -2  -8  -4 14.7111 3.43458  16
  -3  -8  -4 23.6026 3.69047  16
  -3  -8  -4 26.0191 4.95280  26
  -4  -8  -4 55.1506 4.56461  25
  -4  -8  -4 51.4585 6.10423  26
   4   8   4 41.4308 5.81386  26
   8  -9  -4 4.49853 1.62306  19
   8  -9  -4 2.24181 1.92198  18
   7  -9  -4 -0.3282 2.61689  24
   7  -9  -4 2.67278 1.59886  18
   7  -9  -4 3.90405 2.13047  25
   7  -9  -4 3.54134 1.75950  19
   6  -9  -4 1.44498 2.06690  18
   6  -9  -4 4.73667 3.11610  24
   6  -9  -4 5.57661 3.70316  22
   6  -9  -4 1.72227 3.69895  23
   6  -9  -4 6.52973 2.32421  25
   5  -9  -4 74.6729 7.42725  24
   5  -9  -4 74.5259 7.44347  18
   5  -9  -4 71.6569 9.49110  22
   5  -9  -4 75.5340 10.1606  23
   5  -9  -4 82.5548 7.22196  25
   4  -9  -4 49.7757 5.93997  24
   4  -9  -4 41.2985 6.84336  23
   4  -9  -4 40.2203 5.29129  25
   3  -9  -4 12.2945 2.98416  25
   3  -9  -4 10.8365 1.38820  17
   3  -9  -4 9.06848 3.25330  24
   3  -9  -4 11.4142 4.78885  23
   2  -9  -4 58.3624 4.11614  16
   2  -9  -4 44.0281 7.21282  23
   2  -9  -4 55.6273 5.87857  25
   2  -9  -4 62.4603 6.55164  24
   2  -9  -4 43.8315 4.80772   2
   2  -9  -4 59.8380 4.40915  17
   1  -9  -4 13.2563 2.47496  25
   1  -9  -4 12.8781 2.18558  17
   1  -9  -4 12.8404 2.15866  16
   1  -9  -4 7.24326 2.62779  26
   1  -9  -4 10.2144 3.21645  23
   1  -9  -4 13.1869 3.17540  24
   0  -9  -4 -0.8355 2.69591  25
   0  -9  -4 0.98357 2.27319  16
   0  -9  -4 -0.7398 1.94300  17
   0  -9  -4 2.32817 2.93531  26
  -1  -9  -4 34.1520 5.16440  26
  -1  -9  -4 40.8486 4.17959  16
  -1  -9  -4 33.7895 4.06789  25
  -1  -9  -4 39.6667 3.70331  17
  -2  -9  -4 7.07050 2.07185  16
  -2  -9  -4 2.03882 2.49025  26
  -2  -9  -4 1.12959 2.70282  25
  -3  -9  -4 70.0752 6.21197  16
  -3  -9  -4 68.5064 6.20868  25
  -3  -9  -4 64.2313 8.07308  26
   7 -10  -4 2.33770 1.37234  25
   7 -10  -4 1.99206 2.58467  24
   6 -10  -4 53.8817 6.02358  24
   6 -10  -4 62.9934 5.60263  25
   5 -10  -4 102.655 9.61795  24
   5 -10  -4 85.4063 11.8319  23
   5 -10  -4 101.602 8.48730  25
   4 -10  -4 15.7666 2.95007  24
   4 -10  -4 13.6590 4.05713  23
   4 -10  -4 8.68141 2.97909  25
   3 -10  -4 10.9169 4.86001  23
   3 -10  -4 15.2438 3.15837  25
   3 -10  -4 15.6592 1.56753  17
   3 -10  -4 12.9621 3.52282  24
   2 -10  -4 3.13500 3.13876  24
   2 -10  -4 1.27077 1.36390  17
   2 -10  -4 3.04986 2.51928  25
   2 -10  -4 1.99447 4.05454  23
   1 -10  -4 -0.0837 2.48576  25
   1 -10  -4 -0.4584 1.64284  17
   1 -10  -4 0.69349 1.28222  16
   1 -10  -4 -0.8869 2.72065  24
   1 -10  -4 0.92071 1.69750  26
   0 -10  -4 89.9921 7.41286  16
   0 -10  -4 108.814 7.12293  17
   0 -10  -4 75.7480 9.50338  26
   0 -10  -4 96.8912 8.00436  25
  -1 -10  -4 4.66112 1.93398  25
  -1 -10  -4 1.63581 1.82380  17
  -1 -10  -4 2.46911 1.65288  16
  -1 -10  -4 0.31792 2.59618  26
  -2 -10  -4 9.33587 3.13123  26
  -2 -10  -4 16.6817 2.28284  25
  -2 -10  -4 11.0447 2.50695  16
  -3 -10  -4 92.6588 7.97707  25
  -3 -10  -4 112.794 9.70991  26
   7 -11  -4 -2.2561 1.38128  25
   7 -11  -4 -0.9343 1.52727  24
   6 -11  -4 181.445 15.0065  24
   6 -11  -4 154.555 16.9652  23
   6 -11  -4 177.494 13.1752  25
   5 -11  -4 8.01145 3.17502  24
   5 -11  -4 5.38240 4.20595  23
   5 -11  -4 15.2755 2.17210  25
   4 -11  -4 -0.2667 2.42746  25
   4 -11  -4 0.80640 3.05764  23
   4 -11  -4 2.06086 2.11778  24
   3 -11  -4 7.15539 3.37862  23
   3 -11  -4 9.44884 1.05281  17
   3 -11  -4 6.60540 2.63571  25
   3 -11  -4 12.1723 2.64658  24
   2 -11  -4 3.47247 1.13389  17
   2 -11  -4 1.25938 2.34436  25
   2 -11  -4 3.36966 2.04441  24
   1 -11  -4 170.862 12.8714  25
   1 -11  -4 161.231 11.5089  17
   1 -11  -4 158.305 14.0972  24
   0 -11  -4 25.7671 2.47916  16
   0 -11  -4 27.2923 2.59360  17
   0 -11  -4 28.8453 3.38792  25
  -1 -11  -4 2.87140 1.02919  17
  -1 -11  -4 2.10199 1.87394  26
  -1 -11  -4 2.56349 2.13757  25
  -1 -11  -4 3.95634 1.37620  16
   6 -12  -4 11.4773 2.25827  24
   6 -12  -4 7.58902 1.29865  25
   5 -12  -4 11.2278 1.68721  25
   5 -12  -4 7.90853 3.03523  23
   5 -12  -4 13.3111 2.55505  24
   4 -12  -4 77.2497 7.37008  24
   4 -12  -4 73.0609 9.76791  23
   4 -12  -4 81.4685 6.50411  25
   3 -12  -4 44.2853 4.20309  25
   3 -12  -4 44.5607 4.86358  24
   2 -12  -4 10.7298 2.47052  25
   2 -12  -4 10.8738 1.21391  17
   2 -12  -4 9.56466 2.10212  24
   1 -12  -4 65.9606 5.29226  25
   1 -12  -4 56.7970 4.38632  17
   0 -12  -4 47.9033 3.93632  25
   0 -12  -4 39.1278 3.24742  17
   5 -13  -4 71.2368 6.80436  24
   4 -13  -4 14.7678 2.38576  24
   4 -13  -4 17.4346 1.99912  25
   3 -13  -4 0.91182 1.21689  25
   3 -13  -4 1.72338 2.07453  24
   2 -13  -4 92.2715 7.29538  25
   0 -13   5 1.39359 1.29169  24
   0 -13   5 1.23751 0.89319  17
   1 -13   5 0.82238 0.62603  17
   1 -13   5 1.17386 1.35287  24
   2 -13   5 8.30649 1.56214  24
   2 -13   5 9.26674 2.32809  23
   3 -13   5 101.389 10.6190  23
  -2 -12   5 6.61025 1.62170  24
  -2 -12   5 4.10924 0.88741  16
  -1 -12   5 31.4817 2.87346  17
  -1 -12   5 26.3096 3.65318  24
  -1 -12   5 31.0791 2.53028  16
   0 -12   5 1.49711 1.92047  24
   0 -12   5 0.43861 1.64054  17
   1 -12   5 4.66566 3.21859  23
   1 -12   5 5.34414 1.93748  24
   1 -12   5 4.13619 1.19205  17
   2 -12   5 16.5035 3.48620  23
   2 -12   5 19.9774 2.64871  24
   2 -12   5 18.3216 1.92228  17
   3 -12   5 22.0796 3.64101  23
   3 -12   5 12.8696 3.62504  22
   4 -12   5 0.20944 2.41803  23
   4 -12   5 -2.7465 3.13842  22
   5 -12   5 3.09098 2.55662  23
   5 -12   5 2.26350 2.06266  22
  -3 -11   5 4.09915 1.66103  24
  -3 -11   5 5.11804 1.72925  16
  -3 -11   5 6.49415 2.38929  26
  -2 -11   5 5.08736 1.65625  17
  -2 -11   5 7.63833 2.29789  24
  -2 -11   5 6.28091 2.50878  26
  -2 -11   5 5.92483 1.99602  16
  -1 -11   5 171.955 13.1054  16
  -1 -11   5 194.001 15.6900  24
  -1 -11   5 176.606 12.6583  17
  -1 -11   5 167.434 16.7476  26
   0 -11   5 0.55435 3.06907  24
   0 -11   5 -0.1301 1.75480  16
   0 -11   5 -0.5679 2.26623  26
   0 -11   5 1.08391 1.51859  17
   1 -11   5 14.5718 1.35868  16
   1 -11   5 20.2887 2.19593  17
   1 -11   5 13.5582 4.18727  23
   1 -11   5 9.92631 3.26918  24
   2 -11   5 14.9659 2.44113  24
   2 -11   5 8.95995 1.70758  17
   2 -11   5 5.86437 4.33025  23
   2 -11   5 7.86121 3.96937  22
   3 -11   5 -1.3909 2.69641  23
   3 -11   5 -0.5659 0.92284  17
   3 -11   5 1.79782 3.78104  22
   4 -11   5 26.9196 5.27396  22
   4 -11   5 36.7789 5.31267  23
   5 -11   5 1.16172 3.64278  22
   5 -11   5 0.45368 2.14156  23
   6 -11   5 6.60351 2.09069  22
  -4 -10   5 8.34965 2.22582  16
  -4 -10   5 8.62663 2.96117  26
  -4 -10   5 12.1664 2.29189  24
  -3 -10   5 1.23853 2.15149  24
  -3 -10   5 2.11420 2.84934  26
  -3 -10   5 1.64402 2.25940  16
  -2 -10   5 7.65036 3.73246  24
  -2 -10   5 10.4813 4.27357  26
  -2 -10   5 10.8850 3.54654  16
  -1 -10   5 13.5728 4.29349  26
  -1 -10   5 15.7975 3.51102  16
  -1 -10   5 14.5990 4.16335  24
  -1 -10   5 14.4148 2.99670  17
   0 -10   5 8.54079 3.88829  23
   0 -10   5 7.25272 2.33667  17
   0 -10   5 5.72744 2.14209  16
   0 -10   5 7.54868 2.85134  24
   0 -10   5 9.65837 2.76482  26
   1 -10   5 7.47193 3.34551  24
   1 -10   5 9.15212 2.08805  16
   1 -10   5 12.3108 2.36022  17
   1 -10   5 10.0485 2.65101  26
   1 -10   5 14.9536 3.63325  23
   2 -10   5 2.91606 4.09501  22
   2 -10   5 8.32258 4.48433  23
   2 -10   5 5.54443 1.74765  17
   2 -10   5 2.68099 2.67147  24
   3 -10   5 86.2355 9.71762  23
   3 -10   5 76.0745 9.45745  22
   3 -10   5 67.9411 5.44159  17
   4 -10   5 73.8730 8.52573  23
   4 -10   5 69.2404 8.70703  22
   4 -10   5 55.7975 4.09509  17
   4 -10   5 64.9231 7.65891  21
   5 -10   5 1.52338 3.01130  21
   5 -10   5 0.34725 2.40711  23
   5 -10   5 1.76765 2.82118  22
   6 -10   5 7.81311 2.70266  21
   6 -10   5 7.62372 2.45219  22
   5   9  -5 36.8645 4.44962  26
  -5  -9   5 37.3009 5.23410  26
   4   9  -5 10.9376 2.74560  26
  -4  -9   5 13.7592 2.67315  24
  -4  -9   5 13.7003 3.87784  26
  -3  -9   5 22.7692 4.54810  16
  -3  -9   5 21.1694 5.59053  26
  -2  -9   5 0.93855 2.53759  16
  -2  -9   5 -0.3205 4.38624  26
  -1  -9   5 28.7735 3.67730  17
  -1  -9   5 25.6210 4.29070  16
  -1  -9   5 32.2894 5.55561  26
   0   9  -5 50.2598 3.86276  12
   0   9  -5 59.5591 3.93118   6
   0  -9   5 47.5365 6.74940  24
   0  -9   5 19.1852 8.28590  14
   0  -9   5 52.3906 4.64258  17
   0  -9   5 50.6449 5.65540  16
   0  -9   5 59.7684 7.74198  23
   0  -9   5 65.5731 7.26217  26
   1  -9   5 9.49227 3.00702  26
   1  -9   5 11.2424 4.44598  23
   1  -9   5 10.6592 3.43273  24
   1  -9   5 9.72102 2.42675  16
   1  -9   5 12.5666 2.37353  17
   1  -9   5 5.30149 3.40067   7
   1  -9   5 6.90033 3.53707  13
   2  -9   5 29.2162 2.89999  16
   2  -9   5 32.1948 5.47127  13
   2  -9   5 28.9512 3.27459  17
   2  -9   5 22.0744 4.03015  24
   2  -9   5 37.0071 5.95514  23
   2  -9   5 39.1280 5.67645  22
   2  -9   5 29.0593 5.21196   7
   3  -9   5 33.0149 3.14534  17
   3  -9   5 33.7239 5.77672  23
   3  -9   5 36.9721 5.19991  21
   3  -9   5 28.0697 5.71763  22
   4  -9   5 -0.6394 2.67558  23
   4  -9   5 1.92542 1.04072  17
   4  -9   5 -0.9831 4.04398  22
   4  -9   5 0.88443 3.72891  21
   5  -9   5 20.9717 4.76473  22
   5  -9   5 13.1165 4.18801  21
   5  -9   5 31.3750 4.29415  23
   6  -9   5 2.04446 2.39884  22
   6  -9   5 0.26222 2.86333  21
   7  -9   5 32.4110 4.22333  21
   7  -9   5 35.2200 4.67061  22
   5   8  -5 18.1772 3.09188  26
   5   8  -5 14.1695 2.65763  20
  -5  -8   5 15.2258 3.98918  26
   4   8  -5 79.4874 8.41976  26
  -4  -8   5 77.7951 9.44076  26
  -3  -8   5 1.27545 3.37606  26
   2   8  -5 36.9707 3.13895   6
   2   8  -5 35.9831 3.15173  12
  -2  -8   5 38.3241 7.19191  15
  -2  -8   5 37.4977 6.55123   9
  -2  -8   5 40.3401 5.29912  16
  -2  -8   5 41.7302 6.71325  26
   1   8  -5 639.605 32.0149  12
   1   8  -5 666.857 32.1493   6
  -1  -8   5 572.383 41.5315   3
  -1  -8   5 556.862 42.3943  17
  -1  -8   5 580.388 43.4216  16
  -1  -8   5 712.811 55.5835  26
  -1  -8   5 628.669 51.1323   2
   0  -8   5 53.1715 6.82809  13
   0  -8   5 53.1967 6.68741   7
   0  -8   5 69.3318 7.29047   9
   0  -8   5 65.1618 8.35085  23
   0  -8   5 57.7790 4.45376   3
   0  -8   5 64.5980 7.61404   2
   0  -8   5 61.0690 5.51812  17
   0  -8   5 80.6506 8.02061  26
   0  -8   5 65.3626 6.36040  16
   0  -8   5 68.7132 7.82714  15
   1  -8   5 78.6713 8.04466  26
   1  -8   5 55.6180 7.39500  24
   1  -8   5 77.3688 7.84476   2
   1  -8   5 65.0934 8.42233  22
   1  -8   5 78.5038 8.06497   7
   1  -8   5 70.8148 6.37678  16
   1  -8   5 77.3402 8.14978  13
   1  -8   5 75.8989 5.87996  17
   1  -8   5 83.4156 9.35908  23
   1  -8   5 69.9586 5.05899   3
   2  -8   5 115.432 12.1450  23
   2  -8   5 92.4688 9.52774   2
   2  -8   5 110.008 10.2103  26
   2  -8   5 107.032 7.23431   3
   2  -8   5 110.821 11.4077  22
   2  -8   5 109.311 10.9856  21
   2  -8   5 115.706 10.6487   7
   2  -8   5 122.073 10.9622  13
   2  -8   5 83.3172 9.74061  24
   2  -8   5 109.020 7.86704  17
   2  -8   5 102.790 8.00617  16
   3  -8   5 16.7612 4.69249  13
   3  -8   5 18.6646 4.61764  23
   3  -8   5 15.6409 2.03149  17
   3  -8   5 18.3130 4.40693  21
   3  -8   5 19.5376 4.95723   7
   3  -8   5 23.9492 5.06788  22
   4  -8   5 62.8632 8.99512  22
   4  -8   5 62.0903 8.14841  21
   4  -8   5 61.8119 8.58540  23
   5  -8   5 13.0298 3.29861  23
   5  -8   5 15.2443 4.77626  22
   5  -8   5 12.4132 4.10034  21
   5  -8   5 9.52355 1.16476  17
   6  -8   5 183.279 16.6400  22
   6  -8   5 161.903 16.4642  21
   7  -8   5 15.3921 2.56740  22
   7  -8   5 6.93016 1.94270  21
   6   7  -5 33.4041 3.14829  16
   6   7  -5 33.4030 4.27266  26
   5   7  -5 83.4320 8.50493  26
  -5  -7   5 75.9189 9.57060  26
   4   7  -5 3.11931 2.18221  26
  -4  -7   5 2.23708 3.67385  26
   3   7  -5 0.92939 1.39935   6
   3   7  -5 3.70446 1.49248  12
   3   7  -5 2.99571 2.64586  26
  -3  -7   5 1.09317 4.58771   9
  -3  -7   5 1.38557 4.99451  15
  -3  -7   5 2.08724 4.49550  26
   2   7  -5 1.09715 1.13720   6
   2   7  -5 0.52729 1.20708  12
  -2  -7   5 5.48044 4.35192  15
  -2  -7   5 4.03996 3.64765  16
  -2  -7   5 -0.5240 3.43670   2
  -2  -7   5 3.54030 4.07901  26
  -2  -7   5 0.91754 3.67144   9
   1   7  -5 20.9141 2.34373  12
   1   7  -5 21.7346 2.29716   6
  -1  -7   5 27.7102 5.36453  15
  -1  -7   5 16.9230 4.54340   2
  -1  -7   5 22.1364 4.01012  16
  -1  -7   5 18.5832 1.75325   3
  -1  -7   5 18.2411 4.50295  26
  -1  -7   5 29.5771 5.17824   9
   0  -7   5 8.30465 3.89847   9
   0  -7   5 6.69598 3.14079   2
   0  -7   5 8.44571 3.05625  13
   0  -7   5 8.28145 2.98826  16
   0  -7   5 7.33141 0.82353   3
   0  -7   5 8.10607 3.50218  23
   0  -7   5 6.97616 1.99105  17
   0  -7   5 10.9629 3.43055  26
   0  -7   5 8.21829 4.11087  15
   0  -7   5 6.37761 2.84743   7
   1  -7   5 7.78747 3.67048  23
   1  -7   5 6.58010 2.94115  21
   1  -7   5 9.12872 2.89022   2
   1  -7   5 9.20241 3.44755   7
   1  -7   5 0.61345 2.55943   9
   1  -7   5 9.43295 2.53798  16
   1  -7   5 12.4769 3.55850  13
   1  -7   5 7.59311 1.79197  17
   1  -7   5 7.26603 3.36108  22
   1  -7   5 4.35414 3.22175  15
   1  -7   5 11.0140 3.10796  26
   1  -7   5 7.92977 0.84512   3
   2  -7   5 166.009 10.1261   3
   2  -7   5 140.887 15.4264  23
   2  -7   5 147.851 14.7082  22
   2  -7   5 174.822 13.5538   7
   2  -7   5 145.685 13.1015   2
   2  -7   5 131.095 14.8237  21
   2  -7   5 149.135 10.6164  17
   2  -7   5 147.863 13.9584  26
   2  -7   5 126.848 10.9151  16
   2  -7   5 162.877 13.7417  13
   3  -7   5 88.2562 9.08017   2
   3  -7   5 93.0784 11.2277  21
   3  -7   5 98.2465 7.70648  16
   3  -7   5 110.839 11.4673  22
   3  -7   5 102.547 7.66390  17
   3  -7   5 107.607 11.7521  23
   3  -7   5 108.697 10.5580   7
   3  -7   5 116.637 7.13210   3
   3  -7   5 118.051 11.0440  13
   4  -7   5 697.633 45.2672  17
   4  -7   5 638.265 62.2623  23
   4  -7   5 592.973 61.2236  21
   4  -7   5 739.337 59.6812  22
   5  -7   5 2.38302 3.52148  20
   5  -7   5 0.65268 0.88547  17
   5  -7   5 1.35703 2.43342  21
   5  -7   5 1.84681 4.05109  22
   6  -7   5 6.04162 3.04297  21
   6  -7   5 1.02103 3.59912  22
   7  -7   5 32.1781 4.36162  22
   7  -7   5 30.6477 4.09859  21
   6   6  -5 3.27954 2.04201  26
   6   6  -5 5.78773 1.60345  16
   6   6  -5 0.98528 2.27738  20
   5   6  -5 273.364 23.1942  26
  -5  -6   5 222.209 23.8279  26
   4   6  -5 60.4230 4.28017  12
   4   6  -5 70.7900 7.12084  26
   4   6  -5 63.6372 4.31424   6
  -4  -6   5 48.4940 8.30099   9
  -4  -6   5 46.4583 8.84924  15
  -4  -6   5 74.7498 8.63233  26
   3   6  -5 -0.8856 2.14853  26
   3   6  -5 0.95739 1.19394   6
   3   6  -5 -0.1851 1.18250  12
  -3  -6   5 -1.4094 3.85161  26
  -3  -6   5 2.79032 3.98356   9
  -3  -6   5 0.70066 4.29681  15
   2   6  -5 52.4188 3.45363   6
   2   6  -5 48.4492 3.42651  12
  -2  -6   5 52.6028 6.93663  26
  -2  -6   5 50.4609 7.11290   9
  -2  -6   5 43.7971 6.94813   2
  -2  -6   5 42.0466 7.19214  15
  -2  -6   5 44.5556 3.52909   3
  -1  -6   5 143.480 12.4669   9
  -1  -6   5 138.128 13.1049  15
  -1  -6   5 139.484 9.61370   3
  -1  -6   5 123.582 13.1686   2
  -1  -6   5 149.789 14.0918  26
   0  -6   5 266.852 17.5290   3
   0  -6   5 263.365 20.0644   7
   0  -6   5 268.701 20.9872   9
   0  -6   5 262.892 20.6201  13
   0  -6   5 245.943 21.9357  15
   0  -6   5 238.375 22.1416   2
   1  -6   5 2.37033 3.18810  23
   1  -6   5 -0.4398 1.66099  13
   1  -6   5 2.21406 0.45475   3
   1  -6   5 0.68212 2.97614   9
   1  -6   5 1.10126 1.87505   7
   1  -6   5 1.94522 3.16410  15
   1  -6   5 1.96211 2.19207   2
   2  -6   5 243.167 23.7303  23
   2  -6   5 291.397 19.8041   7
   2  -6   5 246.813 16.9372  17
   2  -6   5 270.313 20.7165   2
   2  -6   5 211.343 17.3901  16
   2  -6   5 217.335 23.1132  21
   2  -6   5 248.309 22.2622  26
   2  -6   5 290.450 20.3471  13
   2  -6   5 229.189 22.5472  22
   3  -6   5 15.1039 4.19453   7
   3  -6   5 11.8222 2.80635  26
   3  -6   5 12.3536 2.01575  16
   3  -6   5 10.9393 2.32896   2
   3  -6   5 12.5574 3.61205  21
   3  -6   5 13.5854 4.29290  13
   3  -6   5 11.2983 3.79304  20
   3  -6   5 13.2997 3.78267  22
   3  -6   5 13.6464 3.97755  23
   3  -6   5 14.5520 1.92887  17
   3  -6   5 17.1515 1.22703   3
   4  -6   5 7.21019 1.44429  17
   4  -6   5 4.21553 1.17136   2
   4  -6   5 6.88863 3.83930  13
   4  -6   5 8.68008 3.79677   7
   4  -6   5 5.22113 2.54786  21
   4  -6   5 4.74965 0.43581   3
   4  -6   5 2.73419 3.44589  20
   4  -6   5 5.71684 1.06039  16
   4  -6   5 2.49937 3.58211  22
   4  -6   5 6.11908 3.56457  23
   5  -6   5 25.4150 5.65001  20
   5  -6   5 41.6854 6.14411  21
   5  -6   5 40.9532 3.23833  17
   5  -6   5 46.8681 5.76842  22
   6  -6   5 1.47923 2.11051  21
   6  -6   5 -4.0911 3.40570  22
   6  -6   5 0.84439 0.86366  17
   6  -6   5 1.04860 3.04798  20
   7  -6   5 21.3577 3.22934  22
   7  -6   5 17.2419 2.90077  21
   7   5  -5 0.20202 1.60402  20
   6   5  -5 73.7478 8.59982  20
   6   5  -5 68.0061 5.92324  16
   6   5  -5 65.5612 7.84119  26
   5   5  -5 -0.6714 2.52263  26
   4   5  -5 67.2079 6.95482  26
   4   5  -5 59.3417 4.21193   6
   4   5  -5 52.8348 4.12141  12
  -4  -5   5 53.2080 8.72893  15
  -4  -5   5 60.3590 8.33931  26
  -4  -5   5 55.8952 8.12987   9
   3   5  -5 3.51772 1.64786  26
   3   5  -5 5.01179 1.16608   6
   3   5  -5 4.90853 1.16679  12
  -3  -5   5 4.66279 4.15802  15
  -3  -5   5 2.60881 2.81083  26
  -3  -5   5 2.80731 3.81959   9
   2   5  -5 57.8512 3.58375   6
   2   5  -5 56.3026 3.59841  12
  -2  -5   5 58.6269 6.81506  15
  -2  -5   5 56.7941 6.44073   9
  -2  -5   5 52.3501 4.01027   3
  -2  -5   5 51.0941 6.49341   2
  -1  -5   5 41.8951 6.11642  15
  -1  -5   5 38.5427 4.29193   7
  -1  -5   5 37.5437 4.36563  13
  -1  -5   5 40.0024 2.97609   3
  -1  -5   5 45.3923 5.89775   9
  -1  -5   5 42.9516 5.88472   2
   0  -5   5 532.939 35.9095   3
   0  -5   5 543.747 40.7504   9
   0  -5   5 525.743 43.6420   2
   0  -5   5 524.376 40.4084  13
   0  -5   5 551.572 39.3536   7
   0  -5   5 537.804 42.6514  15
   1  -5   5 8.24405 2.80403   9
   1  -5   5 3.15688 1.99202  13
   1  -5   5 3.90981 2.23813   2
   1  -5   5 13.2842 3.36647  15
   1  -5   5 2.68721 1.96403   7
   1  -5   5 2.94425 0.52088   3
   2  -5   5 22.2562 4.18442   7
   2  -5   5 15.3385 3.12926   2
   2  -5   5 17.9770 4.05311  13
   2  -5   5 19.1383 1.49794   3
   3  -5   5 1.73477 1.53324  16
   3  -5   5 4.16446 3.14021   7
   3  -5   5 1.88536 3.21322  22
   3  -5   5 4.21917 3.24790  13
   3  -5   5 -0.2060 1.82827  26
   3  -5   5 1.89015 2.96070  20
   3  -5   5 0.54244 1.45029   2
   3  -5   5 0.71645 2.82319  21
   3  -5   5 2.27627 1.23560  17
   3  -5   5 1.20252 0.35259   3
   3  -5   5 0.67616 3.06209  23
   4  -5   5 122.296 12.2938  22
   4  -5   5 131.141 7.91068   3
   4  -5   5 97.7030 8.46554  16
   4  -5   5 103.364 11.9247  21
   4  -5   5 137.390 11.5877  13
   4  -5   5 137.961 11.3309   7
   4  -5   5 124.171 8.37459  17
   4  -5   5 92.7019 10.0200   2
   5  -5   5 35.9676 3.22534  17
   5  -5   5 34.1641 5.99452  13
   5  -5   5 43.7567 5.53315  22
   5  -5   5 32.1318 5.86291   7
   5  -5   5 38.3166 5.58575  21
   6  -5   5 3.22159 2.57077  22
   6  -5   5 3.38636 2.38787  21
   6  -5   5 3.58239 2.34270  20
   6  -5   5 3.22760 1.00170  17
   7  -5   5 73.4994 7.62836  22
   7  -5   5 60.5722 6.85022  21
   7   4  -5 1.77307 1.00956  17
   7   4  -5 -0.0513 1.13965  16
   7   4  -5 1.31347 1.64266  26
   7   4  -5 2.85420 2.55361  20
   6   4  -5 -0.1846 1.94615  16
   6   4  -5 -1.3999 1.71356  26
   6   4  -5 0.46190 3.07787  20
   5   4  -5 6.00571 1.69991  12
   5   4  -5 8.28870 2.12884  16
   5   4  -5 6.21407 1.68959   6
   5   4  -5 9.27438 2.79549  26
  -5  -4   5 8.42809 4.51456   9
  -5  -4   5 6.03657 4.76573  15
   4   4  -5 446.368 40.3821  26
   4   4  -5 445.984 23.7365   6
   4   4  -5 463.238 23.6712  12
  -4  -4   5 470.389 37.5313  15
  -4  -4   5 437.327 35.6524   9
   3   4  -5 115.130 6.70046   6
   3   4  -5 120.126 6.73479  12
  -3  -4   5 113.326 10.9852   9
  -3  -4   5 114.416 11.5296  15
   2   4  -5 24.4537 2.19512   6
   2   4  -5 20.2731 2.12628  12
  -2  -4   5 19.2508 4.19694   2
  -2  -4   5 26.9309 4.80775  15
  -2  -4   5 26.8645 4.53671   9
  -2  -4   5 19.9020 1.71664   3
   1   4  -5 389.231 29.5641   1
  -1  -4   5 424.539 28.4529   3
  -1  -4   5 399.013 29.6398   1
  -1  -4   5 418.083 34.8732   2
  -1  -4   5 464.642 32.6396   9
  -1  -4   5 419.091 30.9202   7
  -1  -4   5 410.903 31.8078  13
  -1  -4   5 505.768 34.3040  15
   0  -4   5 141.956 11.2232   9
   0  -4   5 126.920 10.5904   7
   0  -4   5 126.023 8.85802   3
   0  -4   5 123.552 11.5754   2
   0  -4   5 134.953 10.9253  13
   0  -4   5 133.892 11.7091  15
   1  -4   5 29.0518 4.01960  15
   1  -4   5 41.5935 5.04228  13
   1  -4   5 30.6751 3.82134   9
   1  -4   5 40.9920 4.92872   7
   1  -4   5 34.0992 2.47446   3
   1  -4   5 31.3111 4.45069   2
   2  -4   5 1.11116 2.69474  13
   2  -4   5 1.06948 0.36732   3
   2  -4   5 0.22381 1.67747   2
   2  -4   5 3.27949 2.78039   7
   3  -4   5 226.596 16.1994  13
   3  -4   5 161.830 13.2370  16
   3  -4   5 188.663 16.9287  26
   3  -4   5 152.261 12.6512  17
   3  -4   5 235.902 15.8160   7
   3  -4   5 194.236 15.7503   2
   3  -4   5 182.793 17.3917  22
   4  -4   5 65.4716 10.6579  20
   4  -4   5 88.4629 7.27203  16
   4  -4   5 111.296 10.0488  13
   4  -4   5 90.2599 10.2187  22
   4  -4   5 92.4871 9.78728  21
   4  -4   5 92.0092 9.37840  26
   4  -4   5 104.946 9.67074   7
   4  -4   5 87.0174 6.78076  17
   4  -4   5 105.995 6.36729   3
   4  -4   5 88.5159 8.59621   2
   5  -4   5 6.57694 2.56298  20
   5  -4   5 8.37169 3.14466   7
   5  -4   5 5.66018 1.45596  17
   5  -4   5 9.08473 3.13394  21
   5  -4   5 5.55606 1.24753  16
   5  -4   5 10.1443 3.45113  13
   5  -4   5 10.3031 3.07590  22
   6  -4   5 10.8453 3.69602  22
   6  -4   5 9.28527 3.56340  20
   6  -4   5 17.7443 1.96256  17
   6  -4   5 22.8233 3.37312  21
   7  -4   5 18.0480 2.96556  21
   7  -4   5 18.3345 1.69456  17
   7  -4   5 17.6224 3.65025  22
   8   3  -5 8.14946 2.04451  20
   7   3  -5 26.7790 2.58472  17
   7   3  -5 27.1050 3.80036  26
   7   3  -5 32.0522 5.28623  20
   7   3  -5 28.0372 2.84138  16
   6   3  -5 47.8366 4.34304  17
   6   3  -5 50.6428 4.85097  16
   6   3  -5 55.7821 6.36445  26
   6   3  -5 57.7956 7.58793  20
   5   3  -5 333.659 22.7292  16
   5   3  -5 283.805 26.5610   2
   5   3  -5 327.248 17.1845  12
   5   3  -5 299.890 21.7408   3
   5   3  -5 367.584 29.1492  26
   5   3  -5 310.829 17.1880   6
  -5  -3   5 324.697 26.0959   9
  -5  -3   5 324.994 27.3599  15
   4   3  -5 52.4612 3.58539  12
   4   3  -5 49.4990 3.54189   6
   4   3  -5 49.3606 5.39301   2
   4   3  -5 49.6698 3.66098   3
   4   3  -5 49.6136 5.59117  26
  -4  -3   5 50.4621 6.90877   9
  -4  -3   5 49.6755 7.26264  15
   3   3  -5 70.6761 4.28882  12
   3   3  -5 66.6363 4.23113   6
   3   3  -5 70.4603 4.85209   3
   3   3  -5 59.7686 6.35500   2
  -3  -3   5 79.0928 7.56468   9
  -3  -3   5 68.3777 7.71311  15
   2   3  -5 1.98475 0.58621   1
   2   3  -5 2.80769 1.58042   2
   2   3  -5 1.85147 0.40237   3
  -2  -3   5 -0.5424 2.27976   2
  -2  -3   5 1.27646 0.40157   3
   1   3  -5 12.4847 1.22679   1
   1   3  -5 16.7243 2.41298   2
   1   3  -5 10.3849 1.21280   1
   1   3  -5 10.2925 1.04916   3
  -1  -3   5 11.7558 1.08723   3
  -1  -3   5 13.4756 3.25865   2
  -1  -3   5 12.0638 2.16975   7
  -1  -3   5 10.2763 1.13298   1
  -1  -3   5 12.1900 2.21416  13
  -1  -3   5 12.4561 1.39962   1
   0   3  -5 31.6633 2.45067   1
   0   3  -5 30.4398 2.38530   1
   0  -3   5 37.2954 4.25667  13
   0  -3   5 29.2506 2.47305   1
   0  -3   5 30.7527 2.27793   3
   0  -3   5 34.1790 4.00710   7
   0  -3   5 26.8966 3.80555   2
   1  -3   5 80.9440 6.95238   7
   1  -3   5 69.1931 6.33441  15
   1  -3   5 58.1492 6.77933   2
   1  -3   5 62.4764 5.98944   9
   1  -3   5 74.2823 4.87938   3
   1  -3   5 77.4992 7.11911  13
   2  -3   5 81.6068 8.18542   2
   2  -3   5 86.1139 8.28404   7
   2  -3   5 88.9880 6.01761   3
   2  -3   5 90.4418 8.62923  13
   3  -3   5 23.7696 3.70595   2
   3  -3   5 32.0069 4.70521   7
   3  -3   5 25.2173 4.38471  13
   3  -3   5 25.7046 1.95309   3
   4  -3   5 174.359 13.5190   7
   4  -3   5 140.803 14.3269  26
   4  -3   5 135.542 10.7204  17
   4  -3   5 150.086 14.8516  21
   4  -3   5 166.311 10.3767   3
   4  -3   5 156.171 13.3721   2
   4  -3   5 142.816 11.1411  16
   4  -3   5 148.947 15.0456  22
   4  -3   5 181.079 14.0270  13
   5  -3   5 1.33416 1.62186  16
   5  -3   5 0.46194 2.77711  20
   5  -3   5 2.17651 2.27366  13
   5  -3   5 -0.6735 1.93338   7
   5  -3   5 -0.1936 2.18324  26
   5  -3   5 -0.7336 3.29575  22
   5  -3   5 1.14420 2.71507  21
   5  -3   5 0.13057 1.23378  17
   6  -3   5 2.83631 2.02021  21
   6  -3   5 -0.7078 3.09565  22
   6  -3   5 1.76070 0.93336  17
   6  -3   5 1.41876 0.68240  16
   7  -3   5 2.07881 2.56331  22
   7  -3   5 -0.8822 2.21440  21
   7  -3   5 0.11741 0.56725  17
   8   2  -5 62.8461 7.46415  20
   7   2  -5 6.64395 1.32003  17
   7   2  -5 6.93704 1.75382  16
   7   2  -5 5.55795 2.31905  26
   7   2  -5 3.83314 3.21009  20
   6   2  -5 8.94122 2.79080  11
   6   2  -5 11.4827 1.77939  17
   6   2  -5 12.5835 2.75460  26
   6   2  -5 13.2835 3.75629  20
   6   2  -5 11.6465 2.08097  16
   6   2  -5 5.59634 2.78392   5
   5   2  -5 265.585 22.6413   2
   5   2  -5 260.624 14.6157   6
   5   2  -5 278.087 14.6279  12
   5   2  -5 258.099 18.4339   3
   5   2  -5 282.455 19.2922  16
   5   2  -5 306.176 24.7089  26
   5   2  -5 260.565 18.7394  17
  -5  -2   5 271.027 22.2853   9
  -5  -2   5 266.717 23.3310  15
   4   2  -5 11.7914 2.02903   4
   4   2  -5 11.6909 2.05033  10
   4   2  -5 9.77445 1.54923   6
   4   2  -5 13.1185 1.69806  12
   4   2  -5 10.1845 1.08808   3
   4   2  -5 10.7724 2.27269   2
   3   2  -5 0.79145 1.01769   4
   3   2  -5 0.81898 1.04712  10
   3   2  -5 0.09492 1.28843   2
   3   2  -5 -0.6580 0.92252  12
   3   2  -5 0.13048 0.91766   6
   3   2  -5 -0.0627 0.36305   3
   2   2  -5 158.371 9.62833   3
   2   2  -5 152.330 10.8281   4
   2   2  -5 163.078 11.3195  10
   2   2  -5 134.528 10.0415   1
   2   2  -5 131.544 9.99989   1
   2   2  -5 148.474 11.9683   2
  -2  -2   5 116.764 12.3081   2
  -2  -2   5 129.332 10.1151   1
  -2  -2   5 133.657 10.0040   1
  -2  -2   5 138.902 9.63251   3
   1   2  -5 1672.70 107.731   3
   1   2  -5 1659.64 111.572   1
   1   2  -5 1666.58 118.392   4
   1   2  -5 1610.41 123.384  10
   1   2  -5 1677.31 111.541   1
  -1  -2   5 1562.48 118.092  13
  -1  -2   5 1582.35 107.721   3
  -1  -2   5 1580.90 111.620   1
  -1  -2   5 1529.87 111.527   1
  -1  -2   5 1604.64 114.761   7
   0   2  -5 1321.29 87.1729   1
   0   2  -5 1279.17 99.7718   2
   0   2  -5 1333.49 84.1849   3
   0   2  -5 1307.40 87.1409   1
   0  -2   5 1094.14 99.9540   2
   0  -2   5 1179.88 87.1241   1
   0  -2   5 1178.94 87.1866   1
   0  -2   5 1312.89 90.1519   7
   0  -2   5 1309.67 84.1482   3
   0  -2   5 1288.92 92.7667  13
  -1   2  -5 2.04907 0.53262   1
   1  -2   5 4.69584 2.65302   7
   1  -2   5 2.41072 1.97753   2
   1  -2   5 1.80723 0.58090   1
   1  -2   5 1.60195 0.42630   3
   1  -2   5 0.22882 2.38071  13
   2  -2   5 209.629 14.3807   3
   2  -2   5 217.668 16.9960   7
   2  -2   5 204.777 17.3782  13
   2  -2   5 222.910 18.0113   2
   3  -2   5 188.888 16.3126   2
   3  -2   5 197.226 12.9965   3
   3  -2   5 182.091 16.0299  13
   3  -2   5 190.509 15.6680   7
   4  -2   5 26.8788 4.96386   7
   4  -2   5 24.5211 1.86157   3
   4  -2   5 21.5905 2.74677  16
   4  -2   5 23.8303 3.82093  26
   4  -2   5 29.1718 5.09877  13
   4  -2   5 18.8759 3.38180   2
   4  -2   5 22.7598 2.57292  17
   4  -2   5 24.5635 3.73490  21
   5  -2   5 12.3782 2.03263  16
   5  -2   5 8.94253 2.66154  26
   5  -2   5 10.9479 3.85603  13
   5  -2   5 15.8904 3.29998  21
   5  -2   5 12.7474 3.90331  22
   5  -2   5 9.33403 3.71372   7
   5  -2   5 9.04618 1.72566  17
   6  -2   5 3.23067 3.24273  22
   6  -2   5 6.32535 1.20458  17
   6  -2   5 4.33320 1.62538  26
   6  -2   5 5.18644 2.94494  21
   6  -2   5 3.74940 1.18351  16
   7  -2   5 156.624 11.4319  17
   7  -2   5 178.375 15.8503  21
   9   1  -5 33.7641 4.33540  20
   8   1  -5 0.78368 3.02908  20
   8   1  -5 0.75847 1.09760  17
   7   1  -5 32.8105 3.17054  17
   7   1  -5 34.1115 3.33254  16
   7   1  -5 35.5269 4.52979  26
   7   1  -5 41.3219 5.46841  20
   6   1  -5 29.2337 3.05020  16
   6   1  -5 32.5942 4.97954  20
   6   1  -5 34.1595 4.06880  26
   6   1  -5 29.8563 2.68165  17
   6   1  -5 18.1879 3.21565  19
   6   1  -5 24.6697 4.04539   5
   6   1  -5 19.9138 3.59458  11
   5   1  -5 167.734 13.9277  26
   5   1  -5 153.796 10.8446  16
   5   1  -5 140.764 10.5464  17
   5   1  -5 137.522 12.8149  19
   5   1  -5 155.081 12.9383   2
   5   1  -5 151.349 10.3359   3
   4   1  -5 14.7600 2.41068   2
   4   1  -5 13.9363 1.26985   3
   4   1  -5 15.7971 2.49082  10
   4   1  -5 14.2521 1.70086  12
   4   1  -5 16.2334 2.39543   4
   4   1  -5 14.7771 1.69085   6
   3   1  -5 258.899 20.1692   4
   3   1  -5 255.519 21.7910   2
   3   1  -5 265.799 18.0328   3
   3   1  -5 279.173 21.0598  10
   3   1  -5 276.638 14.0321   6
   3   1  -5 270.886 13.9766  12
   2   1  -5 272.539 18.7693   4
   2   1  -5 257.881 17.4568   1
   2   1  -5 262.664 19.5438  10
   2   1  -5 270.073 16.7989   3
  -2  -1   5 222.544 16.7869   3
  -2  -1   5 237.109 17.4193   1
  -2  -1   5 227.555 17.4940   1
   1   1  -5 7.25476 1.76377   2
   1   1  -5 6.10369 0.68448   1
   1   1  -5 5.45088 0.71051   1
   1   1  -5 6.13874 1.42215   4
   1   1  -5 8.25192 1.54124  10
   1   1  -5 6.71014 0.72263   3
  -1  -1   5 4.42347 1.99522   7
  -1  -1   5 5.21391 0.67462   3
  -1  -1   5 5.04950 2.03918  13
  -1  -1   5 5.34680 0.83403   1
  -1  -1   5 3.68236 2.22677   2
  -1  -1   5 5.24795 0.66854   1
   0   1  -5 6.43532 0.69240   3
   0   1  -5 7.15988 1.57445   2
   0   1  -5 5.92267 0.72093   1
   0   1  -5 6.48217 0.74012   1
   0  -1   5 6.95448 1.90326   2
   0  -1   5 5.41956 0.73400   1
   0  -1   5 5.32533 0.74359   1
   0  -1   5 5.89239 0.62956   3
  -1   1  -5 2.28799 0.56955   1
  -1   1  -5 1.35073 0.51077   1
   1  -1   5 1.51329 0.47927   1
   1  -1   5 2.12040 0.56686   1
   1  -1   5 2.33381 1.89554   2
   1  -1   5 1.38280 0.40989   3
   2  -1   5 0.50861 0.36317   3
   2  -1   5 1.51209 1.76259   2
   3  -1   5 101.992 10.0407   7
   3  -1   5 99.1049 10.2736  13
   3  -1   5 113.565 7.66218   3
   3  -1   5 121.126 10.2926   2
   4  -1   5 12.8230 1.22673   3
   4  -1   5 12.3638 3.16221  26
   4  -1   5 15.1686 3.59548  13
   4  -1   5 14.5320 1.97920  17
   4  -1   5 12.1326 2.25946  16
   4  -1   5 19.2246 3.19570  21
   4  -1   5 11.5590 2.75160   2
   4  -1   5 17.5685 4.04225   7
   5  -1   5 133.167 12.8556  26
   5  -1   5 130.697 12.2912   7
   5  -1   5 128.058 12.5793  13
   5  -1   5 141.215 13.3524  21
   5  -1   5 129.948 13.6624  22
   5  -1   5 129.791 9.90476  16
   5  -1   5 141.154 9.64834  17
   6  -1   5 10.9121 3.07974  21
   6  -1   5 6.99983 2.19370  26
   6  -1   5 12.8507 1.59677  17
   6  -1   5 8.97589 2.81988  22
   6  -1   5 10.4257 1.51309  16
   7  -1   5 12.7193 2.39863  21
   7  -1   5 13.0248 1.45881  17
   9   0  -5 -0.3467 2.41520  20
   8   0  -5 13.3971 1.70934  17
   8   0  -5 26.0061 3.95741  20
   7   0  -5 14.0664 2.26548  26
   7   0  -5 15.3548 4.04816  20
   7   0  -5 14.1764 1.61874  16
   7   0  -5 10.2272 1.58116  17
   7   0  -5 7.17831 2.58309  19
   6   0  -5 24.2710 3.86239   5
   6   0  -5 35.8963 4.10735  26
   6   0  -5 32.5595 3.10757  16
   6   0  -5 25.6326 2.20749   3
   6   0  -5 26.2138 3.42004   2
   6   0  -5 37.3727 3.96594  19
   6   0  -5 24.2202 3.66019  11
   6   0  -5 25.3671 3.70651  18
   6   0  -5 35.4931 4.72173  20
   6   0  -5 31.6608 2.70069  17
   5   0  -5 21.6282 3.11275  26
   5   0  -5 25.1606 3.18282   4
   5   0  -5 26.3830 3.34327  19
   5   0  -5 20.8610 2.18096  17
   5   0  -5 23.7033 3.23142  10
   5   0  -5 21.3196 2.84085   2
   5   0  -5 23.6807 1.80278   3
   5   0  -5 20.7555 2.39592  16
   4   0  -5 1.89533 0.92227   6
   4   0  -5 2.78621 1.56672  10
   4   0  -5 1.89251 0.91813  12
   4   0  -5 2.17611 0.45768   3
   4   0  -5 1.87007 1.22521   2
   4   0  -5 1.71239 1.42856   4
   3   0  -5 59.0862 5.18771  10
   3   0  -5 57.3368 3.38008  12
   3   0  -5 57.2046 3.37866   6
   3   0  -5 49.8627 5.20898   2
   3   0  -5 58.8462 3.99501   3
   3   0  -5 56.8625 4.97347   4
   2   0  -5 184.315 13.1566   2
   2   0  -5 158.372 8.36416   6
   2   0  -5 165.403 12.2086   4
   2   0  -5 162.152 11.1344   1
   2   0  -5 143.844 11.0867   1
   2   0  -5 164.265 10.7124   3
   2   0  -5 169.467 12.7390  10
   2   0  -5 155.318 8.33340  12
  -2   0   5 149.091 11.1128   1
  -2   0   5 141.282 11.1550   1
   1   0  -5 -0.1259 0.35985   3
   1   0  -5 0.45972 0.40156   1
   1   0  -5 -0.1958 0.91891   4
   1   0  -5 -0.5130 0.33953   1
   1   0  -5 1.29604 1.38290   2
   1   0  -5 -0.4524 0.97319  10
  -1   0   5 -0.3749 0.31474   3
  -1   0   5 0.88649 0.52389   1
  -1   0   5 -0.2350 0.40176   1
  -1   0   5 -0.2586 1.90441   2
   0   0  -5 90.0164 6.18045   1
   0   0  -5 83.8433 5.93983   3
   0   0  -5 99.7615 7.83397   2
   0   0  -5 91.0606 6.18412   1
   0   0   5 80.0996 6.15555   1
   0   0   5 82.2355 5.88591   3
   0   0   5 84.5969 6.19208   1
   0   0   5 81.4466 7.90366   2
  -1   0  -5 279.958 18.5414   3
  -1   0  -5 285.804 19.2213   1
  -1   0  -5 293.197 19.2307   1
  -1   0  -5 298.935 22.7042   2
   1   0   5 243.216 19.1737   1
   1   0   5 263.034 22.6353   2
   1   0   5 272.525 18.4531   3
   1   0   5 265.299 19.1938   1
   2   0   5 127.449 8.86770   3
   2   0   5 135.968 11.5940   2
   3   0   5 15.6096 3.39575  26
   3   0   5 14.4552 2.95010   2
   3   0   5 14.0840 1.26930   3
   4   0   5 45.7729 3.05987   3
   4   0   5 45.5544 5.13685  21
   4   0   5 36.3290 4.07410  16
   4   0   5 28.8653 5.40453   7
   4   0   5 33.8161 3.56467  17
   4   0   5 45.0344 5.18435   2
   4   0   5 32.7582 5.76100  13
   4   0   5 38.0491 5.67917  26
   5   0   5 0.74641 2.59146  26
   5   0   5 1.15981 1.55070  17
   5   0   5 1.19492 2.51780  21
   5   0   5 -0.0189 1.81932  16
   6   0   5 15.7603 3.83792  22
   6   0   5 18.8039 2.33094  16
   6   0   5 22.4480 2.58059  17
   6   0   5 19.4554 3.31557  26
   6   0   5 26.5960 3.43377  21
   7   0   5 3.41554 0.87044  17
   7   0   5 3.62731 1.61419  21
   9  -1  -5 51.5319 6.35911  20
   8  -1  -5 104.241 7.02909  17
   8  -1  -5 104.095 11.3616  20
   8  -1  -5 86.2567 8.72337  19
   7  -1  -5 164.647 10.9259  16
   7  -1  -5 170.427 17.3258  20
   7  -1  -5 127.045 13.9570  18
   7  -1  -5 155.801 10.8870  17
   7  -1  -5 156.608 13.6188  19
   6  -1  -5 6.81491 1.93941   4
   6  -1  -5 5.84390 2.10214   5
   6  -1  -5 3.29515 1.08283   2
   6  -1  -5 7.23793 2.04699  10
   6  -1  -5 7.32364 2.69637  18
   6  -1  -5 9.55916 2.11500  19
   6  -1  -5 6.14458 1.47740  26
   6  -1  -5 6.24456 1.09193  16
   6  -1  -5 6.12872 0.67121   3
   6  -1  -5 5.49387 2.00221  11
   6  -1  -5 9.29816 1.23741  17
   6  -1  -5 10.2236 2.63024  20
   5  -1  -5 34.3093 3.94711  10
   5  -1  -5 33.8810 3.99790  25
   5  -1  -5 39.5517 3.95985   5
   5  -1  -5 39.7750 3.05678  16
   5  -1  -5 37.1354 3.92868  26
   5  -1  -5 35.2344 3.99678  19
   5  -1  -5 40.2906 3.77101  11
   5  -1  -5 37.3426 3.86370   4
   5  -1  -5 36.0406 3.66927   2
   5  -1  -5 42.1603 5.01359  20
   5  -1  -5 34.5667 2.66698   3
   5  -1  -5 37.3376 2.97185  17
   4  -1  -5 206.120 10.6418   6
   4  -1  -5 199.394 16.1962  10
   4  -1  -5 198.117 16.4069   2
   4  -1  -5 201.378 13.5656   3
   4  -1  -5 191.692 15.5225   4
   4  -1  -5 209.010 10.6144  12
   3  -1  -5 124.290 6.84187   6
   3  -1  -5 140.056 10.6891  10
   3  -1  -5 120.181 10.6962   2
   3  -1  -5 135.609 10.2359   4
   3  -1  -5 130.971 8.74632   3
   3  -1  -5 123.069 6.81396  12
   2  -1  -5 35.8351 3.66300  10
   2  -1  -5 36.4206 3.51628   2
   2  -1  -5 36.5221 3.54195   4
   2  -1  -5 38.7038 2.08724   6
   2  -1  -5 35.6068 2.43780   3
   2  -1  -5 31.1020 2.51656   1
   2  -1  -5 37.5834 2.10003  12
  -2   1   5 29.9548 2.59466   1
  -2   1   5 30.1151 2.53663   1
   1  -1  -5 101.532 6.43818   1
   1  -1  -5 81.3777 7.42847   4
   1  -1  -5 99.5670 6.19636   3
   1  -1  -5 99.8871 7.83937   2
   1  -1  -5 93.6915 6.41139   1
   1  -1  -5 74.8651 7.68890  10
  -1   1   5 79.8762 6.12436   3
  -1   1   5 76.4389 7.92387   2
  -1   1   5 87.0521 6.41327   1
  -1   1   5 91.1482 6.44421   1
   0  -1  -5 7.30027 0.84499   1
   0  -1  -5 8.72472 0.91562   1
   0  -1  -5 8.99513 1.83434   2
   0  -1  -5 7.50051 0.79183   3
   0   1   5 8.05737 0.86675   1
   0   1   5 7.57439 0.73271   3
   0   1   5 7.07131 0.89081   1
   0   1   5 6.74367 1.84377   2
  -1  -1  -5 92.5316 7.91985   2
  -1  -1  -5 84.6798 6.10002   1
  -1  -1  -5 92.0927 6.13308   1
  -1  -1  -5 90.7525 5.88233   3
   1   1   5 77.8460 6.05600   1
   1   1   5 91.7806 7.83008   2
   1   1   5 69.5606 6.07019   1
   1   1   5 82.1426 5.76444   3
   2   1   5 361.910 24.9542   3
   2   1   5 386.314 30.5251   2
   3   1   5 21.5494 3.42729  26
   3   1   5 17.0885 1.52029   3
   3   1   5 19.2089 3.43976   2
   4   1   5 -0.8059 1.88081   2
   4   1   5 -1.3156 2.25909  13
   4   1   5 1.15427 1.93970  16
   4   1   5 2.60494 2.80715   7
   4   1   5 1.36282 2.06028  21
   4   1   5 0.95090 0.50246   3
   4   1   5 0.60734 2.79090  26
   5   1   5 82.0241 9.24009  26
   5   1   5 98.2231 9.00884  21
   5   1   5 75.2220 6.52161  17
   5   1   5 84.4458 7.01963  16
   6   1   5 2.11577 1.73002  21
   6   1   5 1.96429 1.06111  17
   6   1   5 2.46668 2.36906  26
   6   1   5 1.61861 1.64357  16
   7   1   5 46.2528 5.02179  21
   7   1   5 44.5192 3.40040  17
   9  -2  -5 61.9856 7.15768  20
   9  -2  -5 55.1403 5.78187  19
   8  -2  -5 5.07350 3.48440  20
   8  -2  -5 1.47007 2.59433  19
   8  -2  -5 4.94362 0.96477  17
   7  -2  -5 1.21851 2.51599  19
   7  -2  -5 1.31245 0.78295  17
   7  -2  -5 2.66243 3.06960  20
   7  -2  -5 3.37484 2.81895  18
   6  -2  -5 14.3852 3.45433  20
   6  -2  -5 7.32251 1.26813   2
   6  -2  -5 13.6244 1.29156  16
   6  -2  -5 12.8828 2.68944   4
   6  -2  -5 12.1406 1.33878  17
   6  -2  -5 16.9953 2.48576  19
   6  -2  -5 8.95846 2.44246   5
   6  -2  -5 9.48257 0.81844   3
   6  -2  -5 13.9352 2.86782  18
   6  -2  -5 10.1753 2.35022  11
   6  -2  -5 9.81756 2.64495  10
   5  -2  -5 124.680 9.22722  11
   5  -2  -5 115.768 9.86703   2
   5  -2  -5 126.361 10.9652  18
   5  -2  -5 110.833 10.4172  19
   5  -2  -5 115.250 10.3350  10
   5  -2  -5 124.699 8.46138  16
   5  -2  -5 123.330 9.69213   5
   5  -2  -5 113.689 8.10186   3
   5  -2  -5 114.593 8.29236  17
   5  -2  -5 131.036 13.2007  20
   5  -2  -5 125.212 10.0168   4
   5  -2  -5 117.614 9.52393  25
   4  -2  -5 19.0543 2.22413  11
   4  -2  -5 13.6729 1.86899   2
   4  -2  -5 17.6618 2.29482   5
   4  -2  -5 15.7326 2.50618   4
   4  -2  -5 17.1425 2.68445  10
   4  -2  -5 12.7999 1.09947   3
   3  -2  -5 167.776 12.6981   4
   3  -2  -5 160.606 8.38379  12
   3  -2  -5 161.376 13.1991  10
   3  -2  -5 158.404 10.8989   3
   3  -2  -5 160.757 8.41609   6
   2  -2  -5 122.961 9.88981  10
   2  -2  -5 118.224 8.31496   1
   2  -2  -5 122.821 9.49138   4
   2  -2  -5 109.581 8.29000   1
   2  -2  -5 129.039 8.02944   3
   2  -2  -5 134.283 9.97849   2
  -2   2   5 109.314 8.31428   1
  -2   2   5 106.264 8.33738   1
   1  -2  -5 1.22649 0.42108   3
   1  -2  -5 0.57318 0.40200   1
   1  -2  -5 -1.1428 1.68395  10
   1  -2  -5 -0.6769 1.35734   2
   1  -2  -5 1.61236 0.39792   1
   1  -2  -5 0.94603 1.74445   4
  -1   2   5 1.55447 0.47455   1
  -1   2   5 0.31381 0.41019   1
   0  -2  -5 121.551 9.76890   2
   0  -2  -5 113.943 7.76621   1
   0  -2  -5 118.643 7.77114   1
   0  -2  -5 126.904 7.50287   3
   0   2   5 101.249 9.62725   2
   0   2   5 98.0753 7.72791   1
   0   2   5 94.5819 7.37104   3
   0   2   5 98.8420 7.72038   1
  -1  -2  -5 2.00019 2.11258   2
  -1  -2  -5 0.38811 0.47827   3
   1   2   5 1.42549 1.76755   2
   1   2   5 0.37656 0.36660   3
   2   2   5 10.5445 1.00088   3
   2   2   5 14.1826 2.86181   2
   3   2   5 52.8667 6.93124  26
   3   2   5 58.4876 6.22268   2
   3   2   5 51.2874 3.83159   3
   4   2   5 334.787 28.4437  26
   4   2   5 338.997 28.5486  21
   4   2   5 329.973 22.0247  16
   4   2   5 267.881 25.9962   2
   4   2   5 265.224 20.8002   3
   5   2   5 2.50121 1.80145  21
   5   2   5 2.42899 2.09357  16
   5   2   5 3.91060 3.13136  26
   6   2   5 7.00865 1.98197  21
   6   2   5 2.52532 2.45093  26
   6   2   5 5.28568 1.79713  16
   6   2   5 2.34238 1.44563  17
   9  -3  -5 27.0413 4.27629  20
   9  -3  -5 24.7191 3.27232  19
   8  -3  -5 -0.6659 3.38024  20
   8  -3  -5 -1.3903 2.57751  18
   8  -3  -5 1.98199 1.91167  19
   7  -3  -5 2.12080 2.59860  19
   7  -3  -5 1.57048 0.62368  17
   7  -3  -5 2.71825 3.28735  20
   7  -3  -5 1.82029 2.91424  18
   6  -3  -5 46.2015 5.50603  19
   6  -3  -5 46.8570 4.87593  25
   6  -3  -5 47.5819 5.12772  10
   6  -3  -5 50.6685 6.76550  20
   6  -3  -5 49.4147 3.49884  17
   6  -3  -5 48.7957 5.91107  18
   6  -3  -5 41.7877 4.81833   4
   5  -3  -5 21.5080 3.19446   4
   5  -3  -5 22.3034 2.98333  19
   5  -3  -5 14.7172 1.17744   3
   5  -3  -5 17.3795 1.32928  16
   5  -3  -5 24.6932 3.21077  18
   5  -3  -5 17.0804 3.08006  24
   5  -3  -5 17.4334 1.52671  17
   5  -3  -5 22.4064 3.35437  10
   5  -3  -5 22.0090 2.28168  25
   5  -3  -5 16.8529 1.52494   2
   5  -3  -5 20.9808 3.72774  20
   4  -3  -5 3.62185 1.84958  10
   4  -3  -5 2.95543 0.36708   3
   4  -3  -5 2.61875 0.74662   2
   4  -3  -5 3.56979 1.78078   4
   3  -3  -5 1.69902 1.68774  10
   3  -3  -5 1.62187 1.08410   2
   3  -3  -5 1.04290 1.61726   4
   3  -3  -5 1.55410 0.35041   3
   2  -3  -5 6.79386 1.56181   2
   2  -3  -5 6.61768 2.29341  10
   2  -3  -5 6.30069 0.68527   3
   2  -3  -5 6.88385 2.19479   4
   1  -3  -5 12.4085 2.43121   4
   1  -3  -5 17.2768 1.37377   3
   1  -3  -5 14.9075 2.63422  10
   1  -3  -5 15.7504 1.42402   1
   1  -3  -5 19.6059 2.72691   2
   0  -3  -5 45.4218 3.71401   1
   0  -3  -5 53.0555 3.61488   3
   0  -3  -5 49.9852 5.14196   2
  -1  -3  -5 138.481 12.8514   2
  -1  -3  -5 144.504 9.86178   3
   2   3   5 94.9143 10.1436  26
  -3  -3  -5 159.245 15.9767  26
   3   3   5 152.777 15.3702  26
   4   3   5 52.4344 7.89759  26
   4   3   5 62.7245 5.76270  16
   5   3   5 1.89328 2.28508  21
   5   3   5 0.58852 1.58936  16
   5   3   5 2.49454 2.30762  26
   6   3   5 1.86854 1.59415  21
   6   3   5 1.28798 1.68524  16
   6   3   5 0.51373 2.33529  26
   9  -4  -5 31.0312 4.23061  20
   9  -4  -5 16.2997 3.37254  19
   8  -4  -5 7.43597 3.58393  20
   8  -4  -5 8.24954 2.38281  18
   8  -4  -5 5.50639 2.75827  19
   7  -4  -5 201.258 13.0982  17
   7  -4  -5 181.995 17.2144  18
   7  -4  -5 186.066 20.9088  20
   7  -4  -5 193.306 16.3495  19
   6  -4  -5 81.9053 8.03548  10
   6  -4  -5 91.4359 10.2620  20
   6  -4  -5 83.2389 7.73737   4
   6  -4  -5 86.9357 8.03195  19
   6  -4  -5 77.9538 8.48886  18
   6  -4  -5 86.8199 7.02484  25
   6  -4  -5 83.4428 5.84726  17
   5  -4  -5 39.1042 5.81541  20
   5  -4  -5 36.7474 4.49028   4
   5  -4  -5 42.8998 4.74402  10
   5  -4  -5 40.5769 5.28913  18
   5  -4  -5 42.1419 4.71708  19
   5  -4  -5 38.6945 5.29893  24
   5  -4  -5 41.7339 3.82391  25
   5  -4  -5 41.1925 2.97265  17
   4  -4  -5 127.523 9.15377   3
   4  -4  -5 136.957 9.15663   3
   4  -4  -5 170.430 11.4019   4
   3  -4  -5 14.9610 1.91277   2
   3  -4  -5 15.1127 2.83507  10
   3  -4  -5 16.8935 2.70797   4
   3  -4  -5 14.2911 1.12761   3
   2  -4  -5 26.6730 3.82692  10
   2  -4  -5 24.5827 3.57423   4
   2  -4  -5 25.0111 1.89030   3
   2  -4  -5 26.1234 2.94173   2
   1  -4  -5 218.589 17.1814   2
   1  -4  -5 187.907 16.1917   4
   1  -4  -5 169.001 16.7577  10
   1  -4  -5 232.188 14.0128   3
   0  -4  -5 173.408 11.8449   3
   0  -4  -5 172.306 14.9890   2
  -1  -4  -5 38.1489 5.05326   2
  -1  -4  -5 43.2521 3.26089   3
  -2  -4  -5 1.98145 2.51924  26
   2   4   5 0.39077 2.16408  26
  -3  -4  -5 37.4454 6.17660  26
   3   4   5 30.6088 5.33601  26
   4   4   5 -0.2816 3.50969  26
   5   4   5 57.1154 5.59298  21
   5   4   5 48.8609 6.89892  26
   5   4   5 42.7211 4.51911  16
   6   4   5 1.45904 1.61862  26
   6   4   5 1.13526 1.09594  16
   6   4   5 1.53387 1.23349  21
   9  -5  -5 1.28033 2.77443  20
   9  -5  -5 2.50436 1.76386  19
   8  -5  -5 7.58978 3.68014  20
   8  -5  -5 13.4597 3.49505  18
   8  -5  -5 19.8619 2.90250  19
   7  -5  -5 20.1320 3.98814  18
   7  -5  -5 19.3365 3.54165  19
   7  -5  -5 23.2432 4.31096  20
   7  -5  -5 22.4919 3.18482  25
   6  -5  -5 36.0425 4.49906  18
   6  -5  -5 35.2259 3.74244  25
   6  -5  -5 32.1900 3.88730  19
   6  -5  -5 29.3152 4.16329  24
   6  -5  -5 31.8468 3.86433   4
   6  -5  -5 32.6813 4.03239  10
   6  -5  -5 33.5638 5.79328  20
   5  -5  -5 0.76591 0.45041  17
   5  -5  -5 2.14884 1.91278  24
   5  -5  -5 1.06476 1.87048  10
   5  -5  -5 0.19735 2.32403  18
   5  -5  -5 2.22444 1.51381  19
   5  -5  -5 1.01047 1.78468  25
   5  -5  -5 -1.6529 3.17890  23
   5  -5  -5 -1.8780 1.67416   4
   4  -5  -5 592.410 36.6053  17
   4  -5  -5 515.760 45.3801  18
   4  -5  -5 507.470 40.2843  25
   4  -5  -5 540.008 44.1762  24
   4  -5  -5 537.258 40.6961   4
   4  -5  -5 546.818 42.4304  10
   3  -5  -5 235.658 17.6459   4
   3  -5  -5 227.627 18.3527  10
   3  -5  -5 233.023 18.1237   2
   3  -5  -5 211.535 15.0578   3
   2  -5  -5 1326.33 106.880  10
   2  -5  -5 1348.52 92.5734   3
   2  -5  -5 1343.29 102.565   4
   2  -5  -5 1529.06 109.781   2
   1  -5  -5 6.60251 2.48014  10
   1  -5  -5 4.77098 2.26595   4
   1  -5  -5 8.66367 0.92039   3
   1  -5  -5 9.05854 2.17854   2
   0  -5  -5 266.080 27.8342  26
   0  -5  -5 324.684 25.7142   2
   0  -5  -5 330.583 20.8636   3
  -1  -5  -5 93.2103 9.27158   2
  -1  -5  -5 95.9754 6.32550   3
  -1  -5  -5 73.9128 7.55319  16
  -1  -5  -5 73.6495 9.81013  26
  -2  -5  -5 7.28119 3.04329  26
   2   5   5 5.48207 2.69426  26
  -3  -5  -5 60.7479 8.10000  26
   3   5   5 51.8343 8.06216  26
  -4  -5  -5 15.8768 3.94517  26
   4   5   5 11.0758 3.39229  26
   5   5   5 58.7923 6.70833  26
   5   5   5 60.2473 5.03742  16
   5   5   5 57.3319 6.01041  21
   9  -6  -5 7.20636 2.53936  19
   9  -6  -5 5.78318 2.84480  20
   8  -6  -5 75.3553 6.72756  19
   8  -6  -5 60.1035 8.29152  20
   8  -6  -5 73.8496 7.04065  18
   7  -6  -5 3.96816 2.56188  19
   7  -6  -5 4.63262 2.26829  18
   7  -6  -5 2.42839 3.39296  20
   7  -6  -5 3.85800 1.77515  25
   6  -6  -5 2.07406 2.69755  18
   6  -6  -5 5.30512 1.78084  25
   6  -6  -5 4.79217 1.81898  19
   6  -6  -5 4.11765 2.90838  24
   6  -6  -5 2.96472 2.15214  10
   6  -6  -5 1.86219 2.01659   4
   5  -6  -5 247.074 20.3815   4
   5  -6  -5 268.441 22.6117  18
   5  -6  -5 276.739 21.6429  19
   5  -6  -5 270.365 19.9885  25
   5  -6  -5 261.095 21.2896  10
   5  -6  -5 216.274 25.0598  23
   5  -6  -5 287.670 21.9515  24
   4  -6  -5 35.2990 4.35897  18
   4  -6  -5 33.9939 4.12206  10
   4  -6  -5 30.1525 4.99129  22
   4  -6  -5 34.2430 5.51957  23
   4  -6  -5 32.1087 2.50975  17
   4  -6  -5 31.7226 4.11331  25
   4  -6  -5 38.8564 4.35852  24
   4  -6  -5 32.7718 3.93387   4
   3  -6  -5 14.0953 2.79855   4
   3  -6  -5 18.6516 3.05105  24
   3  -6  -5 18.1347 4.32495  23
   3  -6  -5 17.2261 2.60458  25
   3  -6  -5 13.8113 1.08546   3
   3  -6  -5 18.4374 3.07465  10
   3  -6  -5 16.6600 1.58549  16
   3  -6  -5 15.4219 1.72560   2
   3  -6  -5 14.5112 2.97939  18
   3  -6  -5 15.5560 1.50201  17
   2  -6  -5 587.130 41.4249   4
   2  -6  -5 525.088 37.1894  17
   2  -6  -5 520.626 37.9513  16
   2  -6  -5 573.789 43.1464  10
   2  -6  -5 505.409 40.8293  25
   2  -6  -5 588.081 36.6956   3
   1  -6  -5 2.91419 1.79250  16
   1  -6  -5 2.50135 2.12541  25
   1  -6  -5 2.15578 0.51706   3
   1  -6  -5 1.05952 1.71781   2
   1  -6  -5 3.53094 1.58091  17
   1  -6  -5 1.05031 1.50849  10
   1  -6  -5 1.28221 1.45607   4
   1  -6  -5 2.90075 2.24205  26
   0  -6  -5 40.6710 5.37214   2
   0  -6  -5 41.8564 5.70667  26
   0  -6  -5 35.4294 4.91234  10
   0  -6  -5 39.0193 3.94615  17
   0  -6  -5 41.5554 3.14001   3
   0  -6  -5 44.3971 4.38111  16
   0  -6  -5 37.2310 4.76209   4
  -1  -6  -5 213.369 15.9778  16
  -1  -6  -5 223.482 19.2799   2
  -1  -6  -5 220.392 14.7917   3
  -1  -6  -5 196.792 20.5391  26
  -2  -6  -5 1.94416 3.77464  26
  -3  -6  -5 49.2522 7.14313  26
   3   6   5 41.7004 6.53491  26
  -4  -6  -5 7.23418 3.99712  26
   4   6   5 4.90181 3.52083  26
  -5  -6  -5 15.1053 3.03991  26
   5   6   5 13.6413 2.78552  26
   5   6   5 14.1421 2.07904  16
   5   6   5 14.0933 2.16863  21
   9  -7  -5 2.17814 1.78499  20
   9  -7  -5 1.05005 1.52212  19
   8  -7  -5 92.5452 12.3902  20
   8  -7  -5 118.839 9.99262  19
   8  -7  -5 132.445 10.4612  18
   7  -7  -5 60.1763 6.19503  19
   7  -7  -5 69.6444 6.13700  25
   7  -7  -5 62.1279 6.55290  18
   6  -7  -5 60.2241 5.57035  25
   6  -7  -5 43.9591 5.43321   4
   6  -7  -5 47.7584 5.71884  10
   6  -7  -5 55.0246 6.53627  24
   6  -7  -5 59.0284 6.45713  18
   6  -7  -5 56.1666 5.93109  19
   6  -7  -5 50.9317 7.68140  23
   5  -7  -5 150.916 16.6401  22
   5  -7  -5 171.228 15.1580  18
   5  -7  -5 181.402 13.6701  25
   5  -7  -5 189.890 15.1697  24
   5  -7  -5 152.459 17.6491  23
   5  -7  -5 182.704 14.7144  19
   4  -7  -5 201.713 20.8159  23
   4  -7  -5 207.311 17.0769  10
   4  -7  -5 216.793 16.1330  25
   4  -7  -5 190.824 14.0796  17
   4  -7  -5 209.914 16.4176   4
   4  -7  -5 214.852 17.7050  24
   4  -7  -5 217.454 18.0868  18
   3  -7  -5 57.1421 6.11172  18
   3  -7  -5 56.7210 5.66765  10
   3  -7  -5 56.1387 5.10307  25
   3  -7  -5 51.7812 4.03617  17
   3  -7  -5 55.9150 5.44760   4
   3  -7  -5 56.3854 6.17017  24
   3  -7  -5 54.8761 7.43335  23
   2  -7  -5 4.97125 1.72572   4
   2  -7  -5 3.75725 1.92703  26
   2  -7  -5 3.37159 2.30132  25
   2  -7  -5 1.06800 3.81178  23
   2  -7  -5 3.35926 0.53426   3
   2  -7  -5 7.23538 2.69323  24
   2  -7  -5 3.49020 2.51483  18
   2  -7  -5 2.97421 1.60119  10
   2  -7  -5 3.38912 1.27716  16
   2  -7  -5 2.25687 1.33827   2
   2  -7  -5 4.30556 1.38951  17
   1  -7  -5 20.0676 5.14545  23
   1  -7  -5 23.6441 2.56893  17
   1  -7  -5 19.3806 3.19467  24
   1  -7  -5 18.8008 3.07717  25
   1  -7  -5 23.3031 2.80983  16
   1  -7  -5 17.2515 3.33682  10
   1  -7  -5 22.4898 3.47391   2
   1  -7  -5 18.7578 1.68251   3
   1  -7  -5 22.7295 3.58282  18
   1  -7  -5 15.1434 3.12338   4
   1  -7  -5 18.9253 3.55299  26
   0  -7  -5 432.045 40.1924  26
   0  -7  -5 457.227 30.0683   3
   0  -7  -5 499.560 30.6586  17
   0  -7  -5 451.040 36.8283   2
   0  -7  -5 460.773 31.3357  16
   0  -7  -5 370.876 33.3241  25
  -1  -7  -5 52.2715 7.32959  26
  -1  -7  -5 52.3386 5.82485  16
  -2  -7  -5 10.7979 2.71254  16
  -2  -7  -5 10.2873 3.47777  26
  -3  -7  -5 107.509 10.3091  26
   3   7   5 78.9381 9.78384  26
  -4  -7  -5 0.58504 2.51225  26
  -4  -7  -5 1.39917 1.47095  25
   4   7   5 1.64739 1.36090  21
   4   7   5 1.95586 2.39184  26
   9  -8  -5 4.19482 1.92108  19
   8  -8  -5 12.5050 2.28942  18
   8  -8  -5 10.4294 2.59687  19
   7  -8  -5 1.01407 1.63065  19
   7  -8  -5 0.78775 2.60500  18
   7  -8  -5 0.78300 2.71242  24
   7  -8  -5 1.88318 1.64653  25
   6  -8  -5 1.11013 2.40407  18
   6  -8  -5 2.82345 2.24388  19
   6  -8  -5 6.66166 2.91623  23
   6  -8  -5 7.81995 1.95672  25
   6  -8  -5 2.23468 3.06614  24
   5  -8  -5 6.99126 2.02037  18
   5  -8  -5 7.16659 2.06284  25
   5  -8  -5 8.44220 4.45758  23
   5  -8  -5 8.08049 2.48089  24
   4  -8  -5 13.6851 4.74906  23
   4  -8  -5 11.1541 3.15695  24
   4  -8  -5 15.3380 2.84578  18
   4  -8  -5 9.99799 1.21908  17
   4  -8  -5 13.8462 2.98771  25
   3  -8  -5 266.452 29.5132  23
   3  -8  -5 312.573 23.5667  25
   3  -8  -5 321.145 26.2449  18
   3  -8  -5 326.507 25.7599  24
   3  -8  -5 307.532 21.0085  17
   2  -8  -5 23.9781 5.15560  23
   2  -8  -5 25.0421 3.44683  25
   2  -8  -5 26.1690 3.55882  18
   2  -8  -5 26.8697 2.62459  17
   2  -8  -5 27.1378 3.16572   2
   2  -8  -5 18.8371 1.72120   3
   2  -8  -5 24.4471 2.78451  16
   2  -8  -5 24.5674 3.49190  26
   2  -8  -5 30.8544 3.90743  24
   1  -8  -5 6.22709 2.70932  26
   1  -8  -5 10.9489 2.87057  24
   1  -8  -5 11.0657 2.28216  16
   1  -8  -5 9.43668 2.75362  25
   1  -8  -5 15.7515 1.87144  17
   1  -8  -5 4.39006 2.15968   2
   0  -8  -5 228.238 15.0319  17
   0  -8  -5 195.036 16.3571  25
   0  -8  -5 219.444 15.5627  16
   0  -8  -5 198.892 20.0007  26
  -1  -8  -5 37.0271 3.95229  16
  -1  -8  -5 28.8299 4.23784  25
  -1  -8  -5 32.5440 3.43768  17
  -1  -8  -5 32.6880 5.09065  26
  -2  -8  -5 21.1563 4.05970  26
  -2  -8  -5 18.1370 2.86998  16
  -2  -8  -5 16.8476 2.78239  25
  -3  -8  -5 2.89571 2.63254  26
  -3  -8  -5 4.43990 2.06778  16
  -3  -8  -5 3.66721 1.73545  25
  -4  -8  -5 0.04029 1.83406  26
   8  -9  -5 29.8125 3.39968  18
   8  -9  -5 26.9191 3.26461  19
   7  -9  -5 27.5300 3.62907  24
   7  -9  -5 25.8050 3.16598  25
   7  -9  -5 26.3996 3.39912  18
   6  -9  -5 3.08115 2.31815  18
   6  -9  -5 6.88502 2.50165  25
   6  -9  -5 6.07614 3.94158  23
   6  -9  -5 6.70212 2.51998  24
   5  -9  -5 5.77745 3.12503  24
   5  -9  -5 5.02411 4.41679  23
   5  -9  -5 3.49779 2.33502  18
   5  -9  -5 4.59824 1.98124  25
   4  -9  -5 115.305 7.72035  17
   4  -9  -5 115.081 10.7319  24
   4  -9  -5 101.192 13.3804  23
   4  -9  -5 113.739 10.2199  18
   4  -9  -5 111.819 9.73125  25
   3  -9  -5 43.7827 7.10897  23
   3  -9  -5 46.7767 4.82798  25
   3  -9  -5 47.4364 5.30164  24
   3  -9  -5 44.4070 3.59528  17
   2  -9  -5 5.49176 1.14362  16
   2  -9  -5 5.16687 4.17275  23
   2  -9  -5 7.67449 3.02770  24
   2  -9  -5 6.50995 2.66115  25
   2  -9  -5 3.63313 1.31027  17
   1  -9  -5 19.3956 3.44236  26
   1  -9  -5 22.4482 2.60971  16
   1  -9  -5 15.1148 2.38861  17
   1  -9  -5 18.3954 3.26396  25
   1  -9  -5 15.0499 3.23849  24
   0  -9  -5 2.37507 1.97363  25
   0  -9  -5 0.63799 2.05845  26
   0  -9  -5 0.86595 1.66897  16
   0  -9  -5 0.67889 1.91878  17
  -1  -9  -5 14.3564 2.92289  16
  -1  -9  -5 9.72711 3.59925  26
  -1  -9  -5 9.89160 2.16219  17
  -1  -9  -5 17.1017 2.61169  25
  -2  -9  -5 64.7582 8.43159  26
  -2  -9  -5 74.1730 6.25953  25
  -2  -9  -5 74.8786 6.51274  16
  -3  -9  -5 77.7524 5.47612  16
  -3  -9  -5 64.5179 5.44986  25
  -3  -9  -5 56.3311 7.01346  26
   7 -10  -5 10.5707 1.86902  25
   7 -10  -5 11.8256 2.44803  24
   7 -10  -5 11.4940 1.93215  18
   6 -10  -5 231.688 17.5557  25
   6 -10  -5 236.017 19.3902  24
   6 -10  -5 220.982 19.5315  18
   5 -10  -5 2.57669 2.26021  24
   5 -10  -5 3.70604 2.59101  25
   5 -10  -5 3.25595 4.34090  23
   4 -10  -5 12.5190 3.95201  23
   4 -10  -5 8.77077 2.61194  24
   4 -10  -5 6.58130 2.92441  25
   3 -10  -5 3.59686 2.23988  24
   3 -10  -5 5.10336 2.10930  25
   3 -10  -5 2.90283 1.02172  17
   3 -10  -5 1.40164 3.11824  23
   2 -10  -5 17.3698 3.43721  25
   2 -10  -5 25.3957 2.50821  17
   2 -10  -5 24.7970 3.88257  24
   1 -10  -5 -0.0784 1.46508  16
   1 -10  -5 0.21936 2.00245  26
   1 -10  -5 2.06914 2.59682  25
   1 -10  -5 1.13709 1.49612  17
   0 -10  -5 15.5801 2.19888  17
   0 -10  -5 20.0671 2.41963  16
   0 -10  -5 16.9022 3.01342  25
   0 -10  -5 13.4218 3.07856  26
  -1 -10  -5 227.530 15.2740  16
  -1 -10  -5 215.110 16.3940  25
  -1 -10  -5 190.121 19.5256  26
  -1 -10  -5 219.505 14.9172  17
  -2 -10  -5 1.48325 1.30396  25
  -2 -10  -5 2.73774 2.38185  26
  -2 -10  -5 0.93310 1.81957  16
   7 -11  -5 0.03115 1.52706  24
   7 -11  -5 2.78814 1.61786  25
   6 -11  -5 -1.9052 1.87500  24
   6 -11  -5 -0.9748 1.35521  25
   5 -11  -5 31.4606 4.35458  24
   5 -11  -5 33.4515 3.62498  25
   5 -11  -5 38.2088 5.48115  23
   4 -11  -5 34.1366 3.66671  25
   4 -11  -5 28.7154 5.19236  23
   3 -11  -5 119.037 8.11286  17
   3 -11  -5 107.803 10.4486  24
   3 -11  -5 125.440 9.60639  25
   2 -11  -5 -1.1604 2.36386  24
   2 -11  -5 1.68787 2.45410  25
   2 -11  -5 0.62512 0.96295  17
   1 -11  -5 4.39476 1.40797  17
   1 -11  -5 11.6732 2.08501  25
   0 -11  -5 8.21140 1.73060  17
   0 -11  -5 14.2825 1.42766  16
   0 -11  -5 14.2718 2.08997  25
  -1 -11  -5 0.35327 0.83136  16
  -1 -11  -5 1.90540 1.25893  25
  -1 -11  -5 0.71116 1.22793  17
   6 -12  -5 -0.9952 2.36269  24
   6 -12  -5 0.38866 1.00840  25
   5 -12  -5 8.81189 1.55650  25
   5 -12  -5 12.1084 2.34433  24
   4 -12  -5 62.9493 6.79536  24
   4 -12  -5 65.9204 5.56043  25
   3 -12  -5 4.35039 1.65967  25
   3 -12  -5 4.05196 1.90664  24
   2 -12  -5 -1.0961 2.06020  25
   2 -12  -5 0.26435 0.67975  17
   2 -12  -5 0.63895 2.09535  24
   1 -12  -5 7.96503 1.08938  17
   1 -12  -5 4.22576 2.08572  25
   0 -12  -5 1.57491 1.20883  25
   0 -12  -5 1.29297 0.85020  17
   5 -13  -5 -0.9033 2.27895  24
   4 -13  -5 13.8605 1.96958  25
   4 -13  -5 13.8410 2.46351  24
   3 -13  -5 49.1932 4.15512  25
  -1 -12   6 1.17277 2.28468  24
  -1 -12   6 4.19905 1.25140  17
   0 -12   6 54.3954 4.38204  17
   0 -12   6 57.1969 5.49554  24
   1 -12   6 2.60839 1.10532  17
   1 -12   6 2.03503 2.94269  23
   1 -12   6 1.21491 2.03555  24
   2 -12   6 19.6540 2.01630  17
   2 -12   6 25.1133 3.87447  23
   2 -12   6 17.7666 2.51003  24
   3 -12   6 40.4896 5.50311  23
   4 -12   6 -0.0861 2.03921  23
   4 -12   6 0.69046 2.55243  22
  -3 -11   6 37.9207 4.79158  26
  -3 -11   6 40.6967 3.69620  16
  -3 -11   6 45.5526 4.59032  24
  -2 -11   6 1.13617 3.03197  26
  -2 -11   6 1.99182 2.02671  17
  -2 -11   6 3.79093 2.19218  24
  -2 -11   6 1.62420 2.38363  16
  -1 -11   6 107.523 10.9358  26
  -1 -11   6 105.807 8.36757  17
  -1 -11   6 116.061 9.96620  24
  -1 -11   6 107.561 8.55925  16
   0 -11   6 16.9935 3.46606  24
   0 -11   6 17.4966 2.22860  16
   0 -11   6 15.6304 2.64751  17
   0 -11   6 12.4558 2.78185  26
   1 -11   6 8.68816 2.04938  17
   1 -11   6 10.8295 2.29465  24
   1 -11   6 10.7371 3.17867  23
   2 -11   6 -0.3848 1.35727  24
   2 -11   6 -0.3556 3.94461  23
   2 -11   6 -0.0681 0.91585  17
   3 -11   6 3.21821 3.86600  23
   3 -11   6 0.46568 0.95510  17
   3 -11   6 -0.6768 3.23039  22
   4 -11   6 5.04402 2.50133  22
   4 -11   6 2.97103 3.45027  23
   5 -11   6 67.4718 7.26707  23
   5 -11   6 60.0528 6.72459  22
  -4 -10   6 48.7639 5.13500  24
  -4 -10   6 46.7194 4.55490  16
  -4 -10   6 56.0744 6.01360  26
  -3 -10   6 -2.0143 2.92537  16
  -3 -10   6 -1.2272 2.07281  24
  -3 -10   6 -0.8573 3.75300  26
  -2 -10   6 1.28283 2.32174  16
  -2 -10   6 -1.8273 2.37100  24
  -2 -10   6 -0.9958 2.72971  26
  -1 -10   6 6.89260 3.77600  26
  -1 -10   6 2.34828 3.10960  16
  -1 -10   6 5.10735 1.85633  17
  -1 -10   6 3.80441 3.56787  24
   0 -10   6 19.0451 2.51136  17
   0 -10   6 15.0668 3.72269  26
   0 -10   6 14.8375 4.26856  23
   0 -10   6 12.8283 3.09839  16
   0 -10   6 19.5365 3.31239  24
   1 -10   6 67.3046 6.10004  17
   1 -10   6 77.5593 7.57969  24
   1 -10   6 73.8239 8.72458  23
   1 -10   6 77.2143 7.94931  26
   1 -10   6 72.7013 6.20407  16
   2 -10   6 27.9328 5.35879  23
   2 -10   6 16.5823 3.07548  24
   2 -10   6 21.8274 2.60686  17
   2 -10   6 15.6018 4.44134  22
   3 -10   6 29.1368 2.72556  17
   3 -10   6 37.0971 5.11841  23
   3 -10   6 15.4649 4.77899  22
   4 -10   6 101.193 10.2719  22
   4 -10   6 93.5905 6.71577  17
   4 -10   6 114.152 11.2814  23
   5 -10   6 -0.1864 1.72288  21
   5 -10   6 -0.2819 3.30932  22
   5 -10   6 0.05138 2.83337  23
   6 -10   6 8.58364 2.22895  22
  -5  -9   6 78.7906 8.24490  26
   4   9  -6 0.47778 1.95998  26
  -4  -9   6 0.20274 1.93643  24
  -4  -9   6 0.74391 3.07978  26
  -3  -9   6 2.20203 2.55182  16
  -3  -9   6 1.36443 3.27610  26
  -2  -9   6 1.83405 4.33260  26
  -2  -9   6 -0.1561 3.62971  16
  -1  -9   6 12.5267 3.64537  16
  -1  -9   6 16.8046 4.61384  26
  -1  -9   6 17.8008 2.67330  17
   0  -9   6 21.7816 3.58174  16
   0  -9   6 22.3772 4.42379  26
   0  -9   6 18.2135 3.01954  17
   0  -9   6 25.7056 5.07889  23
   0  -9   6 17.2819 3.93979  24
   1  -9   6 29.2255 3.50978  16
   1  -9   6 28.3337 4.34107  26
   1  -9   6 21.6493 3.11072  17
   1  -9   6 29.6026 5.45000  23
   1  -9   6 25.8871 4.23432  24
   2  -9   6 52.8145 6.88095  23
   2  -9   6 43.6377 3.92869  17
   2  -9   6 21.6650 5.44116  22
   2  -9   6 40.7682 3.74084  16
   3  -9   6 44.7035 3.89006  17
   3  -9   6 38.9081 6.14813  21
   3  -9   6 42.6525 6.22014  22
   3  -9   6 51.6268 6.92749  23
   4  -9   6 14.1780 3.26173  21
   4  -9   6 7.91610 3.98130  23
   4  -9   6 16.9598 3.69961  22
   4  -9   6 10.7027 1.56639  17
   5  -9   6 1.43325 3.53201  22
   5  -9   6 1.49843 2.22741  23
   5  -9   6 0.15913 2.10098  21
   6  -9   6 2.60349 1.60021  21
   6  -9   6 4.30268 2.20005  22
   5   8  -6 0.69294 2.08710  20
   5   8  -6 1.57575 2.68960  26
  -5  -8   6 0.18206 4.32356  26
  -5  -8   6 1.40006 1.74202  24
   4   8  -6 3.41459 2.88971  26
  -4  -8   6 3.09475 4.74698  26
  -3  -8   6 2.44151 3.52493  26
  -2  -8   6 264.518 22.8662  26
  -2  -8   6 206.069 17.7458  16
   1   8  -6 89.1886 5.74609   6
   1   8  -6 94.8662 5.83082  12
  -1  -8   6 101.670 10.6337  15
  -1  -8   6 83.5855 7.17871  17
  -1  -8   6 117.731 11.0164  26
  -1  -8   6 66.7721 10.4317   2
  -1  -8   6 88.7114 10.4185  23
  -1  -8   6 92.0487 8.63021  16
  -1  -8   6 98.4734 9.90263   9
   0  -8   6 157.317 12.4296  16
   0  -8   6 152.681 11.6761  17
   0  -8   6 179.897 16.5569  23
   0  -8   6 159.405 15.1025   2
   0  -8   6 142.292 10.8712   3
   0  -8   6 184.041 15.8636  26
   1  -8   6 9.63168 3.24625   2
   1  -8   6 3.68934 2.80886  26
   1  -8   6 7.82076 2.67524  16
   1  -8   6 5.09047 2.88390  24
   1  -8   6 3.19812 3.21087  13
   1  -8   6 7.01915 3.14591  23
   1  -8   6 8.84749 3.61680   7
   1  -8   6 4.61110 1.92864  17
   1  -8   6 4.34413 0.66409   3
   2  -8   6 5.55566 2.95935  13
   2  -8   6 1.10987 4.03709  23
   2  -8   6 1.18928 1.59963  17
   2  -8   6 4.20822 2.40456  21
   2  -8   6 1.44327 2.53783   7
   2  -8   6 3.20153 3.61079  22
   2  -8   6 3.14739 1.87171  16
   2  -8   6 3.91942 2.14041  26
   3  -8   6 2.02587 0.95391  16
   3  -8   6 2.04310 4.12856  22
   3  -8   6 4.84688 4.12248  23
   3  -8   6 -0.3564 3.44573  21
   4  -8   6 21.7993 4.21441  22
   4  -8   6 14.4507 4.18856  21
   4  -8   6 18.7118 3.79716  23
   5  -8   6 32.5296 4.68164  22
   5  -8   6 27.7555 2.19248  17
   5  -8   6 17.9346 4.42077  21
   5  -8   6 26.3906 4.22089  23
   6  -8   6 12.5571 2.83144  22
   6  -8   6 9.98932 2.41612  21
   7  -8   6 52.8872 5.46828  22
   6   7  -6 1.70985 1.22825  16
   6   7  -6 1.03617 1.76045  26
   6   7  -6 0.46803 1.73706  20
   5   7  -6 38.3987 4.78647  26
  -5  -7   6 29.4326 5.53557  26
   4   7  -6 132.480 13.0129  26
  -4  -7   6 136.025 14.1100  26
   3   7  -6 26.5747 2.81933   6
   3   7  -6 41.4389 5.19856  26
   3   7  -6 23.9995 2.75177  12
  -3  -7   6 41.8012 6.65510  26
  -3  -7   6 13.9866 6.65250  15
  -3  -7   6 16.4248 6.25028   9
   2   7  -6 124.734 7.66269   6
   2   7  -6 133.252 7.74304  12
  -2  -7   6 134.936 13.4520  15
  -2  -7   6 148.896 12.9370   9
  -2  -7   6 141.524 14.2498  26
  -2  -7   6 115.499 11.2507  16
  -1  -7   6 102.557 7.39508   3
  -1  -7   6 123.096 10.7408   9
  -1  -7   6 98.4076 11.1418   2
  -1  -7   6 122.925 11.1710  26
  -1  -7   6 127.053 11.5179  15
  -1  -7   6 87.4197 9.16547  16
  -1  -7   6 92.2700 11.4160  23
   0  -7   6 16.8827 4.75826  15
   0  -7   6 16.9964 3.82549  13
   0  -7   6 28.9345 3.92542  16
   0  -7   6 25.6896 4.77140  23
   0  -7   6 19.9145 4.49653   9
   0  -7   6 23.9370 1.92610   3
   0  -7   6 32.3518 4.90814  26
   0  -7   6 21.2266 2.88836  17
   0  -7   6 20.1007 3.95200   7
   0  -7   6 22.5002 4.76507   2
   1  -7   6 167.726 15.4448  26
   1  -7   6 139.614 12.0703  16
   1  -7   6 157.668 14.6580   2
   1  -7   6 175.703 13.9971   7
   1  -7   6 158.663 10.9174   3
   1  -7   6 172.877 14.3133  13
   1  -7   6 160.447 16.5530  23
   2  -7   6 1.66281 3.20276   7
   2  -7   6 0.61661 2.96513  21
   2  -7   6 -0.3110 3.07676  13
   2  -7   6 1.79645 1.93118  16
   2  -7   6 0.75418 1.69019  17
   2  -7   6 1.36095 2.31863  26
   2  -7   6 1.16479 3.63726  23
   2  -7   6 1.44460 0.41584   3
   2  -7   6 0.97056 3.52346  22
   2  -7   6 -1.3921 1.89297   2
   3  -7   6 242.814 24.4136  21
   3  -7   6 296.299 21.3435   7
   3  -7   6 276.312 25.1913  23
   3  -7   6 289.452 21.9142  13
   3  -7   6 204.411 21.0198   2
   3  -7   6 239.576 18.0227  16
   3  -7   6 263.472 17.8032  17
   3  -7   6 287.785 24.1000  22
   4  -7   6 185.574 17.1367  22
   4  -7   6 189.803 12.1072  17
   4  -7   6 151.933 17.0281  23
   4  -7   6 153.812 16.9581  21
   5  -7   6 3.43960 1.07203  17
   5  -7   6 0.81406 3.86748  22
   5  -7   6 4.26086 3.39979  21
   6  -7   6 6.75050 3.05260  21
   6  -7   6 15.9539 3.14091  22
   7  -7   6 7.65294 1.94643  22
   7  -7   6 5.61415 1.66982  21
   7   6  -6 0.92425 1.24855  26
   7   6  -6 2.38543 0.89634  16
   6   6  -6 90.0444 9.43245  20
   6   6  -6 86.2288 8.84475  26
   6   6  -6 74.8080 6.44631  16
   5   6  -6 69.5838 7.74376  26
  -5  -6   6 57.7829 9.02410  26
   4   6  -6 21.5544 3.63389  26
  -4  -6   6 22.1757 5.02816  26
   3   6  -6 5.87646 2.44527  26
   3   6  -6 4.00650 1.42085   6
   3   6  -6 4.79211 1.50026  12
  -3  -6   6 5.60464 4.43900  26
  -3  -6   6 5.85228 4.85689  15
  -3  -6   6 2.42186 4.27976   9
   2   6  -6 0.07322 0.82577  12
   2   6  -6 -0.8739 0.70907   6
  -2  -6   6 1.26106 2.91885  15
  -2  -6   6 3.05161 3.76242  26
  -2  -6   6 3.15013 2.75289   9
  -1  -6   6 17.4294 1.54920   3
  -1  -6   6 16.2531 3.87336  23
  -1  -6   6 19.2969 4.68412   9
  -1  -6   6 22.8417 5.20429  15
  -1  -6   6 19.0442 4.60566  26
  -1  -6   6 17.1808 4.50190   2
  -1  -6   6 19.0069 3.90648  16
   0  -6   6 0.24218 0.41638   3
   0  -6   6 1.02127 2.72599   9
   0  -6   6 2.15697 3.04791  26
   0  -6   6 0.90525 2.24854  13
   0  -6   6 -0.7847 2.10499   7
   0  -6   6 0.24046 2.96606  15
   0  -6   6 -0.6865 2.51573  16
   0  -6   6 0.21183 2.52379   2
   1  -6   6 163.863 13.7103  17
   1  -6   6 220.302 17.4457   2
   1  -6   6 220.539 13.2585   3
   1  -6   6 168.442 18.0959  22
   1  -6   6 215.287 16.2150   7
   1  -6   6 210.551 18.4310  26
   1  -6   6 162.776 14.3020  16
   1  -6   6 220.452 16.6669  13
   2  -6   6 38.3098 5.77241  21
   2  -6   6 41.0451 5.71984  22
   2  -6   6 44.4424 5.41041   2
   2  -6   6 50.7476 3.23781   3
   2  -6   6 40.4711 5.71689  26
   2  -6   6 37.2216 4.55053  16
   2  -6   6 37.6053 3.95272  17
   2  -6   6 54.4212 6.93014   7
   2  -6   6 45.8986 6.52089  13
   2  -6   6 41.9264 6.18232  23
   3  -6   6 76.5581 7.85494  26
   3  -6   6 69.6980 6.15876  16
   3  -6   6 81.7329 8.53340  13
   3  -6   6 63.5329 9.21723  23
   3  -6   6 62.1191 8.59573  21
   3  -6   6 71.9045 9.08493  22
   3  -6   6 70.1129 5.86661  17
   3  -6   6 84.7851 8.44782   7
   3  -6   6 88.7757 5.33307   3
   4  -6   6 68.4261 5.20111  17
   4  -6   6 67.3319 8.53051  22
   4  -6   6 75.2343 8.36572   7
   4  -6   6 69.4566 8.39985  13
   4  -6   6 58.4445 7.66682  21
   4  -6   6 64.1429 8.36531  23
   4  -6   6 57.8548 4.80621  16
   5  -6   6 8.89813 2.70635  21
   5  -6   6 12.6057 3.37756  22
   5  -6   6 10.7638 1.56379  17
   6  -6   6 14.8991 1.55783  17
   6  -6   6 10.1683 2.62998  21
   6  -6   6 19.3972 3.38931  22
   7  -6   6 -0.5181 2.35185  22
   7  -6   6 1.88860 1.46424  21
   7   5  -6 6.60995 2.23149  26
   7   5  -6 7.31927 2.56047  20
   7   5  -6 7.33189 1.61006  16
   6   5  -6 1.40626 2.89676  20
   6   5  -6 1.04682 1.87608  26
   6   5  -6 0.49468 1.32101  16
   5   5  -6 9.01942 2.38138  16
   5   5  -6 8.99056 3.04517  26
   4   5  -6 91.0980 5.77160  12
   4   5  -6 84.5193 5.58969   6
   4   5  -6 93.0387 9.01048  26
  -4  -5   6 89.0086 10.2504  15
  -4  -5   6 84.1159 10.1426  26
  -4  -5   6 95.1625 9.78787   9
   3   5  -6 232.479 11.8757  12
   3   5  -6 221.813 19.7055  26
   3   5  -6 218.586 11.8356   6
  -3  -5   6 218.061 19.6710  15
  -3  -5   6 193.315 20.3689  26
  -3  -5   6 198.223 18.5438   9
   2   5  -6 131.462 7.41666   6
   2   5  -6 132.146 7.42925  12
  -2  -5   6 136.689 12.9298  15
  -2  -5   6 141.068 12.3428   9
  -2  -5   6 115.960 12.9181  26
  -1  -5   6 17.5331 3.95216   9
  -1  -5   6 16.9010 4.25004  15
  -1  -5   6 15.2148 1.42395   3
  -1  -5   6 14.9548 3.42901   2
   0  -5   6 173.467 14.6215  15
   0  -5   6 153.493 12.9969   7
   0  -5   6 161.721 10.9513   3
   0  -5   6 167.948 13.8333   9
   0  -5   6 146.971 13.3097  13
   0  -5   6 159.246 14.5445   2
   1  -5   6 10.1773 3.39886   7
   1  -5   6 14.4851 3.65862  13
   1  -5   6 12.0934 1.12996   3
   1  -5   6 11.9603 2.76209   2
   2  -5   6 111.004 9.46373   7
   2  -5   6 94.9727 9.49377  26
   2  -5   6 109.154 9.58503  13
   2  -5   6 88.4157 6.86927  17
   2  -5   6 76.8834 7.31195  16
   2  -5   6 92.1309 9.03261   2
   2  -5   6 90.6616 9.87107  22
   3  -5   6 1.66011 1.91155   2
   3  -5   6 1.12616 2.13902  26
   3  -5   6 2.78092 2.93723  20
   3  -5   6 7.23580 3.55397  22
   3  -5   6 5.10645 3.25913  23
   3  -5   6 2.12670 2.63707   7
   3  -5   6 4.08944 2.79638  13
   3  -5   6 3.40391 1.45259  17
   3  -5   6 3.43310 0.55249   3
   3  -5   6 4.09932 2.89275  21
   3  -5   6 2.53032 1.80438  16
   4  -5   6 13.0712 3.87979   7
   4  -5   6 9.61137 2.94167  20
   4  -5   6 7.67063 2.16055  26
   4  -5   6 15.7325 4.00062  13
   4  -5   6 6.93296 2.08719   2
   4  -5   6 18.1874 3.65475  22
   4  -5   6 14.0731 3.66315  21
   4  -5   6 9.74636 1.82215  16
   4  -5   6 11.5208 1.77568  17
   5  -5   6 37.6551 5.35465  22
   5  -5   6 29.0215 5.39261  20
   5  -5   6 35.2634 5.44074  21
   5  -5   6 33.8136 3.08791  17
   6  -5   6 24.8792 4.56477  22
   6  -5   6 26.8977 4.05447  21
   6  -5   6 29.6037 2.45874  17
   7  -5   6 14.1916 3.07979  22
   7  -5   6 17.8475 2.62291  21
   7   4  -6 3.25819 2.25324  26
   7   4  -6 8.22104 2.35681  20
   7   4  -6 4.25224 1.32226  16
   7   4  -6 5.24403 1.18339  17
   6   4  -6 23.0252 3.87229  26
   6   4  -6 20.5889 2.81706  16
   6   4  -6 21.0963 4.47699  20
   5   4  -6 9.46496 2.80430  26
   5   4  -6 5.88810 1.45343  12
   5   4  -6 10.7700 2.19628  16
   5   4  -6 9.27857 1.61431   6
  -5  -4   6 5.69601 3.93402  15
  -5  -4   6 9.00118 3.92629   9
   4   4  -6 95.3306 6.06403  12
   4   4  -6 102.671 6.16334   6
   4   4  -6 101.560 9.87680  26
  -4  -4   6 94.5817 9.96125   9
  -4  -4   6 97.1782 10.5507  15
   3   4  -6 6.52575 2.22514  26
   3   4  -6 3.94307 1.36988  12
   3   4  -6 7.17093 1.44759   6
  -3  -4   6 3.93928 2.69667   9
  -3  -4   6 5.15103 2.98785  15
  -2  -4   6 78.4489 8.53452  15
  -2  -4   6 76.2198 8.08064   9
  -1  -4   6 136.299 9.44259   3
  -1  -4   6 152.689 12.1626   9
  -1  -4   6 127.755 11.1583  13
  -1  -4   6 137.717 12.7928   2
  -1  -4   6 130.477 10.8712   7
  -1  -4   6 151.687 12.7142  15
   0  -4   6 193.616 15.0225   7
   0  -4   6 183.117 12.9161   3
   0  -4   6 173.542 16.6097   2
   0  -4   6 190.420 15.4193  13
   0  -4   6 207.527 16.2866  15
   0  -4   6 203.173 15.6321   9
   1  -4   6 87.9263 5.94782   3
   1  -4   6 96.4732 8.50328  13
   1  -4   6 88.2644 8.16897   7
   1  -4   6 69.0576 8.29875   2
   2  -4   6 2.50198 2.17041   7
   2  -4   6 2.62220 0.51374   3
   2  -4   6 1.20522 2.48101  26
   2  -4   6 6.08894 2.49361  13
   2  -4   6 3.18081 2.20456   2
   3  -4   6 152.854 13.7081  22
   3  -4   6 179.490 13.3107  13
   3  -4   6 139.201 9.66739  17
   3  -4   6 119.466 13.2402  21
   3  -4   6 145.158 13.0882  26
   3  -4   6 139.436 12.2469   2
   3  -4   6 185.586 12.9714   7
   3  -4   6 104.336 14.6754  20
   3  -4   6 118.618 10.0478  16
   4  -4   6 34.8850 5.72176   7
   4  -4   6 43.6058 6.22926  13
   4  -4   6 37.6793 3.35909  17
   4  -4   6 38.4591 5.30252  21
   4  -4   6 22.9756 5.13386  20
   4  -4   6 33.0147 3.76548  16
   4  -4   6 37.7871 5.51449  22
   4  -4   6 34.9584 4.90491  26
   4  -4   6 38.3705 2.65575   3
   5  -4   6 29.1204 4.98381  20
   5  -4   6 34.5141 3.30905  16
   5  -4   6 38.9180 3.28657  17
   5  -4   6 38.8801 5.63564  22
   5  -4   6 35.5212 5.38301  21
   6  -4   6 2.59265 0.84161  17
   6  -4   6 2.60883 2.21257  22
   6  -4   6 2.43375 2.69837  21
   7  -4   6 39.4269 5.19182  22
   7  -4   6 40.9036 2.90070  17
   7  -4   6 35.3824 4.68333  21
   8   3  -6 1.53337 0.79521  17
   8   3  -6 3.56038 1.87294  20
   7   3  -6 135.268 9.32426  16
   7   3  -6 114.360 8.97867  17
   7   3  -6 130.721 12.0304  26
   7   3  -6 130.015 14.3124  20
   6   3  -6 37.6966 3.60862  16
   6   3  -6 33.4111 3.47442  17
   6   3  -6 39.8839 4.71674  26
   6   3  -6 41.2025 6.65673  20
   5   3  -6 12.4125 2.68875  26
   5   3  -6 8.07652 1.10063   3
   5   3  -6 8.40588 1.73557   6
   5   3  -6 7.73213 1.69221  12
   5   3  -6 11.4329 2.10802  16
   5   3  -6 7.49693 2.50556   2
  -5  -3   6 10.4968 3.87372  15
  -5  -3   6 12.0918 3.82717   9
   4   3  -6 335.467 22.8869   3
   4   3  -6 346.969 18.0556   6
   4   3  -6 353.269 30.3658  26
   4   3  -6 362.621 18.0252  12
   4   3  -6 308.162 27.8024   2
   4   3  -6 310.385 23.7633  16
  -4  -3   6 348.076 27.3110   9
  -4  -3   6 366.953 28.7153  15
   3   3  -6 1.74298 1.12906   6
   3   3  -6 2.62750 1.75235   2
   3   3  -6 3.56976 1.23311  12
   3   3  -6 1.77359 0.56997   3
   2   3  -6 23.2999 1.94940   3
   2   3  -6 28.3585 3.18218   2
   1   3  -6 10.8318 1.24619   1
  -1  -3   6 11.3735 2.78615   2
  -1  -3   6 11.6696 1.10305   3
  -1  -3   6 9.62688 1.26356   1
  -1  -3   6 11.8840 2.37896  13
  -1  -3   6 9.66146 2.21918   7
   0  -3   6 53.9859 6.49685   2
   0  -3   6 63.3041 5.92342   7
   0  -3   6 63.8224 6.09027  13
   0  -3   6 62.1227 4.18047   3
   0  -3   6 52.4439 4.52922   1
   1  -3   6 8.22388 3.05768  13
   1  -3   6 11.3930 3.17041   7
   1  -3   6 9.04795 0.92565   3
   1  -3   6 6.33842 2.48594   2
   2  -3   6 24.6329 4.46683   7
   2  -3   6 21.9929 3.74324   2
   2  -3   6 22.7908 1.81055   3
   2  -3   6 27.9353 4.77105  13
   3  -3   6 83.2836 8.36810  13
   3  -3   6 61.3172 6.08685  16
   3  -3   6 60.8909 7.82781  21
   3  -3   6 70.5483 5.67587  17
   3  -3   6 79.5360 7.57641   2
   3  -3   6 63.7118 7.99504  26
   3  -3   6 66.0791 8.61576  22
   3  -3   6 85.5204 5.18295   3
   3  -3   6 86.7594 8.21883   7
   4  -3   6 6.75088 2.33430   2
   4  -3   6 9.61598 0.95528   3
   4  -3   6 8.69356 3.68099   7
   4  -3   6 7.34625 3.66028  22
   4  -3   6 6.62601 2.74153  21
   4  -3   6 7.19346 3.57665  13
   4  -3   6 10.3513 1.79942  17
   4  -3   6 8.92955 2.77815  26
   4  -3   6 9.42694 2.08345  16
   5  -3   6 3.36788 2.71241  21
   5  -3   6 3.50545 1.55365  16
   5  -3   6 6.63057 3.62842  22
   5  -3   6 5.90195 1.57588  17
   5  -3   6 4.62790 2.08218  26
   6  -3   6 0.88398 1.16252  17
   6  -3   6 1.27090 2.44516  21
   6  -3   6 0.71155 2.11323  22
   7  -3   6 37.2585 4.74766  22
   7  -3   6 34.4826 4.40305  21
   7  -3   6 34.9725 2.68816  17
   8   2  -6 117.123 12.5498  20
   8   2  -6 107.405 7.92055  17
   7   2  -6 6.35073 1.89531  26
   7   2  -6 5.19249 3.39354  20
   7   2  -6 4.87084 1.47384  17
   7   2  -6 6.41524 1.39447  16
   6   2  -6 7.01545 2.51960  26
   6   2  -6 9.38089 3.79521  20
   6   2  -6 2.79714 2.72437   5
   6   2  -6 8.63345 1.66388  17
   6   2  -6 2.79701 2.48584  11
   6   2  -6 7.64082 1.92313  16
   5   2  -6 11.2981 1.87883  12
   5   2  -6 11.6863 1.22281   3
   5   2  -6 10.5293 2.56281   2
   5   2  -6 16.6792 2.72490  26
   5   2  -6 12.4990 1.95044   6
   5   2  -6 14.6669 2.14300  16
   5   2  -6 15.3960 1.85812  17
  -5  -2   6 14.3108 4.67396  15
  -5  -2   6 14.9112 4.43062   9
   4   2  -6 2.97124 1.63077   2
   4   2  -6 3.14937 1.82336  26
   4   2  -6 2.67895 1.26051   6
   4   2  -6 0.79616 1.16935  12
   4   2  -6 1.20896 0.41649   3
   3   2  -6 25.1816 2.78480  10
   3   2  -6 24.8975 2.01552   3
   3   2  -6 24.4341 2.67722   4
   3   2  -6 28.1294 2.42494  12
   3   2  -6 28.5876 3.58450   2
   3   2  -6 25.0272 2.17816   6
   2   2  -6 362.700 25.5734  10
   2   2  -6 347.281 26.6993   2
   2   2  -6 336.311 22.1007   3
   2   2  -6 360.690 24.5361   4
   2   2  -6 290.742 22.8994   1
  -2  -2   6 283.957 22.8980   1
   1   2  -6 153.933 10.9714   1
   1   2  -6 156.853 11.0071   1
   1   2  -6 164.847 10.5873   3
   1   2  -6 159.126 12.3719  10
   1   2  -6 170.934 11.9097   4
  -1  -2   6 159.660 12.3459  13
  -1  -2   6 130.852 13.4561   2
  -1  -2   6 155.597 10.5587   3
  -1  -2   6 146.325 11.0680   1
  -1  -2   6 143.694 10.9630   1
  -1  -2   6 158.836 11.9843   7
   0   2  -6 81.9584 5.91025   1
   0  -2   6 87.6689 5.64075   3
   0  -2   6 75.8711 7.70501   2
   0  -2   6 73.8032 5.94027   1
   0  -2   6 82.9479 7.55101  13
   0  -2   6 79.8757 7.31790   7
   1  -2   6 63.6526 4.40241   3
   1  -2   6 57.5694 6.58776  13
   1  -2   6 62.0809 6.61301   2
   1  -2   6 62.0185 6.48898   7
   2  -2   6 114.660 7.80721   3
   2  -2   6 113.485 10.5209   2
   2  -2   6 115.636 10.0811   7
   2  -2   6 108.092 10.2445  13
   3  -2   6 66.9716 4.16123   3
   3  -2   6 62.5317 6.39505   2
   3  -2   6 65.1452 7.05622   7
   3  -2   6 46.4926 4.62858  17
   3  -2   6 63.4283 7.21810  13
   3  -2   6 50.1173 5.12736  16
   3  -2   6 49.8649 6.91323  26
   3  -2   6 54.4606 6.79971  21
   4  -2   6 0.39873 0.40897   3
   4  -2   6 -0.8064 2.64644  13
   4  -2   6 0.55998 1.24627  16
   4  -2   6 1.66957 2.34477  21
   4  -2   6 -0.3044 2.42491  26
   4  -2   6 0.72041 1.81979   2
   4  -2   6 -0.9442 1.33976  17
   4  -2   6 -0.5492 2.57110   7
   5  -2   6 9.92539 2.04602  16
   5  -2   6 7.53918 3.67044  22
   5  -2   6 9.18322 2.68013  26
   5  -2   6 8.24374 3.00515  21
   5  -2   6 11.0653 1.83995  17
   6  -2   6 10.5039 1.35404  16
   6  -2   6 10.8136 1.63779  17
   6  -2   6 8.04132 2.70959  21
   6  -2   6 9.23725 3.32025  22
   7  -2   6 2.97185 1.48093  21
   7  -2   6 2.07429 0.80280  17
   8   1  -6 17.0973 1.66162  17
   8   1  -6 9.01233 3.60300  20
   7   1  -6 17.6439 2.14410  16
   7   1  -6 18.7383 3.72893  20
   7   1  -6 16.5555 1.85134  17
   7   1  -6 13.5190 2.79118  26
   6   1  -6 88.9322 8.64072  19
   6   1  -6 92.9841 7.08922  16
   6   1  -6 91.9376 6.82533  17
   6   1  -6 90.9138 9.11098  26
   6   1  -6 91.9310 8.14228  11
   6   1  -6 112.335 11.4913  20
   6   1  -6 100.352 8.65011   5
   5   1  -6 38.6805 4.24937   4
   5   1  -6 44.6786 3.22475   6
   5   1  -6 43.8123 4.77067  26
   5   1  -6 38.7673 4.80347  19
   5   1  -6 39.3326 3.47549  16
   5   1  -6 41.9273 3.21330  12
   5   1  -6 40.7219 4.43826  10
   5   1  -6 40.3571 3.07429   3
   5   1  -6 43.8692 3.42749  17
   5   1  -6 38.8596 4.36218   2
   4   1  -6 648.870 44.5661   3
   4   1  -6 699.747 34.1144  12
   4   1  -6 630.033 53.2065   2
   4   1  -6 661.895 51.5529  10
   4   1  -6 694.882 34.2570   6
   4   1  -6 663.569 49.4730   4
   3   1  -6 1209.97 86.5973  10
   3   1  -6 1095.48 89.3529   2
   3   1  -6 1036.32 75.2721   3
   3   1  -6 1134.83 83.0478   4
   3   1  -6 1146.43 57.0963  12
   3   1  -6 1149.46 57.3356   6
   2   1  -6 49.5682 4.35464   2
   2   1  -6 47.0374 3.73908   4
   2   1  -6 34.5884 3.00140   1
   2   1  -6 39.7166 2.86327   3
   2   1  -6 42.1989 3.84708  10
  -2  -1   6 35.5290 3.03123   1
   1   1  -6 154.295 11.0998   2
   1   1  -6 145.556 8.76071   3
   1   1  -6 124.562 10.3992  10
   1   1  -6 130.470 9.08062   1
   1   1  -6 131.068 9.05820   1
   1   1  -6 124.807 9.98669   4
  -1  -1   6 122.168 10.3549  13
  -1  -1   6 106.603 11.3242   2
  -1  -1   6 121.421 9.04924   1
  -1  -1   6 125.525 8.70211   3
  -1  -1   6 116.973 10.0396   7
  -1  -1   6 114.646 9.12244   1
   0   1  -6 1.96221 0.47281   1
   0   1  -6 2.43536 1.32943   2
   0   1  -6 1.97571 0.55255   3
   0   1  -6 1.81974 0.55202   1
   0  -1   6 1.99902 0.53268   1
   0  -1   6 2.23589 0.48425   3
   0  -1   6 1.16769 0.40792   1
   0  -1   6 2.84255 1.66364   2
   1  -1   6 85.9077 5.67449   3
   1  -1   6 85.8946 8.08772   2
   1  -1   6 74.9023 5.99067   1
   2  -1   6 272.973 22.7189  13
   2  -1   6 301.010 19.3703   3
   2  -1   6 287.175 24.0499   2
   2  -1   6 272.309 22.1002   7
   3  -1   6 2.33337 2.00188   2
   3  -1   6 1.96835 1.96697  16
   3  -1   6 2.00933 2.70402   7
   3  -1   6 2.12948 0.45467   3
   3  -1   6 1.39875 2.73396  13
   3  -1   6 1.38016 1.09731  17
   3  -1   6 1.20875 2.75720  26
   4  -1   6 21.2969 3.86382  26
   4  -1   6 18.2503 4.47474   7
   4  -1   6 16.7281 1.54953   3
   4  -1   6 17.1309 2.67909  16
   4  -1   6 14.0973 3.17756   2
   4  -1   6 19.2720 2.15766  17
   4  -1   6 19.7505 4.54076  13
   4  -1   6 20.6308 3.10812  21
   5  -1   6 22.4703 2.84862  16
   5  -1   6 20.9963 2.52229  17
   5  -1   6 21.4004 3.76422  26
   5  -1   6 14.4527 4.17437  22
   5  -1   6 29.5963 4.01677  21
   6  -1   6 3.26363 1.73804  26
   6  -1   6 3.71039 1.29468  16
   6  -1   6 5.05740 2.24626  22
   6  -1   6 2.80531 1.35515  17
   6  -1   6 2.87709 2.42230  21
   7  -1   6 1.50642 0.85686  17
   7  -1   6 1.58531 1.82254  21
   9   0  -6 3.11241 2.78466  20
   9   0  -6 4.34344 0.66200  17
   8   0  -6 75.1129 5.74150  17
   8   0  -6 84.9356 9.44667  20
   7   0  -6 35.9305 4.37978  19
   7   0  -6 33.1348 3.04581  16
   7   0  -6 38.6968 5.53382  20
   7   0  -6 35.0696 3.09717  17
   7   0  -6 34.7185 4.36624  26
   6   0  -6 158.487 12.5961   3
   6   0  -6 158.155 15.4780   2
   6   0  -6 206.610 12.9430  17
   6   0  -6 200.639 15.8378  19
   6   0  -6 188.612 16.9489  26
   6   0  -6 174.707 14.2516  11
   6   0  -6 221.116 20.2942  20
   6   0  -6 175.723 14.9853   5
   6   0  -6 191.439 13.2397  16
   5   0  -6 106.086 8.27937  16
   5   0  -6 117.679 7.82567   3
   5   0  -6 109.548 10.0352  19
   5   0  -6 117.893 8.04836  17
   5   0  -6 119.482 9.82031  10
   5   0  -6 111.588 10.5138  26
   5   0  -6 119.344 9.43553   4
   5   0  -6 102.929 9.78581   2
   4   0  -6 34.4150 3.47046  10
   4   0  -6 31.1231 2.40047  12
   4   0  -6 33.7473 2.41255   6
   4   0  -6 32.4471 3.31446   4
   4   0  -6 28.6048 3.36758   2
   4   0  -6 31.7963 2.40413   3
   3   0  -6 5.68111 1.70250  10
   3   0  -6 4.95384 1.55469   2
   3   0  -6 5.55446 0.67096   3
   3   0  -6 5.22321 1.58226   4
   3   0  -6 7.67038 1.14743  12
   3   0  -6 6.27979 1.06835   6
   2   0  -6 2.10312 0.56783   1
   2   0  -6 7.19050 1.79828  10
   2   0  -6 3.49445 0.59324   3
   2   0  -6 3.22384 1.59677   2
   2   0  -6 5.63177 1.62529   4
  -2   0   6 2.68709 0.63322   1
   1   0  -6 43.6294 3.08071   1
   1   0  -6 45.2082 4.37481   2
   1   0  -6 35.5185 3.89572   4
   1   0  -6 36.3312 4.07191  10
   1   0  -6 43.8881 2.95185   3
   1   0  -6 40.6385 3.04823   1
  -1   0   6 36.1914 3.11182   1
  -1   0   6 32.9142 4.67844   2
  -1   0   6 39.3174 2.88565   3
  -1   0   6 37.3669 3.05651   1
   0   0  -6 63.1428 4.39404   1
   0   0  -6 61.6791 4.21024   3
   0   0  -6 76.4113 6.11700   2
   0   0  -6 58.6397 4.36604   1
   0   0   6 58.8429 6.20679   2
   0   0   6 57.3992 4.39721   1
   0   0   6 56.3919 4.11510   3
   0   0   6 49.1503 4.32430   1
   1   0   6 36.2584 3.02344   1
   1   0   6 38.4644 2.77733   3
   1   0   6 40.2292 4.80339   2
   2   0   6 240.179 16.2706   3
   2   0   6 241.529 20.4638   2
   3   0   6 39.2431 4.78434   2
   3   0   6 35.5880 5.13298  26
   3   0   6 25.8615 4.23102  21
   3   0   6 35.7166 3.74816  16
   3   0   6 28.2555 5.04889  13
   3   0   6 34.8261 5.25354   7
   3   0   6 32.2508 2.48019   3
   4   0   6 7.56719 2.61191  21
   4   0   6 6.64883 3.32021  13
   4   0   6 7.74348 2.28137  16
   4   0   6 8.88667 2.69495  26
   4   0   6 8.00828 3.47340   7
   4   0   6 6.29733 1.77616  17
   4   0   6 7.19413 2.76336   2
   5   0   6 19.6067 2.78936  16
   5   0   6 22.2288 3.85515  22
   5   0   6 22.9214 3.68383  21
   5   0   6 17.3451 2.47014  17
   5   0   6 17.0599 3.74705  26
   6   0   6 19.2752 3.29362  22
   6   0   6 21.8088 3.04819  26
   6   0   6 22.6955 2.28182  16
   6   0   6 22.3996 3.22644  21
   6   0   6 23.8095 2.58589  17
   7   0   6 0.48067 0.82819  17
   9  -1  -6 14.2926 2.98592  20
   8  -1  -6 -0.1045 0.89957  17
   8  -1  -6 1.16480 2.32541  19
   8  -1  -6 -0.8964 2.25097  20
   7  -1  -6 192.312 16.9867  19
   7  -1  -6 211.139 14.0638  16
   7  -1  -6 228.664 21.9732  20
   7  -1  -6 168.208 17.4367  18
   7  -1  -6 209.682 13.9965  17
   6  -1  -6 7.38312 2.00778   4
   6  -1  -6 6.43071 0.75395   3
   6  -1  -6 10.4573 2.79761  19
   6  -1  -6 11.0961 3.38545  20
   6  -1  -6 9.62805 1.92550  26
   6  -1  -6 8.15440 2.47582   5
   6  -1  -6 9.47544 2.69383  18
   6  -1  -6 10.1866 1.46093  16
   6  -1  -6 6.09274 2.11278  11
   6  -1  -6 9.17066 1.26683  17
   6  -1  -6 9.08541 2.30112  10
   6  -1  -6 6.68270 1.58147   2
   5  -1  -6 32.4850 4.31783  19
   5  -1  -6 39.5419 5.23030  20
   5  -1  -6 29.7214 2.29101   3
   5  -1  -6 30.8189 2.80677  16
   5  -1  -6 28.6041 2.76263  17
   5  -1  -6 33.2568 3.59237  26
   5  -1  -6 32.0351 3.40471  11
   5  -1  -6 30.6249 4.28851  18
   5  -1  -6 31.0927 3.77060   4
   5  -1  -6 26.1441 3.26782   2
   5  -1  -6 28.1935 3.64682  25
   5  -1  -6 34.4642 3.65348   5
   5  -1  -6 30.1982 3.86753  10
   4  -1  -6 111.880 6.07000   6
   4  -1  -6 118.356 9.44426  10
   4  -1  -6 110.663 9.01927   4
   4  -1  -6 108.356 6.04133  12
   4  -1  -6 107.415 9.37932   2
   4  -1  -6 103.546 7.46923   3
   3  -1  -6 338.667 17.1078  12
   3  -1  -6 348.247 26.3035  10
   3  -1  -6 303.235 22.3726   3
   3  -1  -6 333.383 17.1747   6
   3  -1  -6 353.273 25.2492   4
   2  -1  -6 4.46001 1.78869   4
   2  -1  -6 2.52910 1.86969  10
   2  -1  -6 3.23026 0.49371   3
   2  -1  -6 3.53835 0.68720  12
   2  -1  -6 2.48755 0.53653   1
   2  -1  -6 4.38789 1.55021   2
   2  -1  -6 4.12660 0.70192   6
   1  -1  -6 80.7157 5.21593   3
   1  -1  -6 75.9252 5.39907   1
   1  -1  -6 87.6412 6.99675   2
   1  -1  -6 66.8471 6.72251  10
   1  -1  -6 73.0300 6.53044   4
  -1   1   6 61.8304 5.35962   1
   0  -1  -6 45.8646 4.67861   2
   0  -1  -6 40.7748 3.03585   1
   0  -1  -6 42.6826 2.87515   3
   0   1   6 35.9766 2.75931   3
   0   1   6 32.9804 4.57780   2
   0   1   6 34.1202 2.99190   1
   1   1   6 23.1406 1.84463   3
   1   1   6 25.5888 3.87676   2
   2   1   6 2.35212 1.55209   2
   2   1   6 1.19937 0.47438   3
   3   1   6 33.4920 3.77845  16
   3   1   6 35.3655 5.22294  26
   3   1   6 30.6468 4.33398  21
   3   1   6 35.4037 2.61033   3
   3   1   6 29.5143 4.80466   2
   4   1   6 26.7763 3.04478  16
   4   1   6 22.7931 4.07037  26
   4   1   6 26.3260 3.43924  21
   4   1   6 13.7855 4.23965  13
   5   1   6 46.9439 4.29825  16
   5   1   6 46.8496 5.72937  21
   5   1   6 47.6236 5.81333  26
   5   1   6 45.9201 4.22501  17
   6   1   6 5.68650 1.58428  16
   6   1   6 11.0885 1.46650  17
   6   1   6 3.52277 2.09223  26
   6   1   6 9.23241 2.02684  21
   9  -2  -6 14.9165 2.99585  20
   9  -2  -6 8.22401 2.01112  19
   8  -2  -6 39.7752 5.40279  19
   8  -2  -6 45.1296 3.36845  17
   8  -2  -6 45.9765 6.91720  20
   7  -2  -6 5.11578 2.73784  19
   7  -2  -6 7.75682 2.30652  18
   7  -2  -6 8.62362 1.18836  17
   7  -2  -6 3.90922 3.29955  20
   6  -2  -6 13.3209 1.82827   2
   6  -2  -6 14.3247 1.25422   3
   6  -2  -6 24.1128 3.42842  19
   6  -2  -6 17.2091 1.73333  17
   6  -2  -6 17.1871 3.22975   4
   6  -2  -6 18.4877 3.41070  10
   6  -2  -6 21.7120 3.23911  18
   6  -2  -6 29.3274 3.96351  20
   6  -2  -6 19.0187 1.69762  16
   5  -2  -6 1.99772 0.40525   3
   5  -2  -6 3.92260 2.30741  18
   5  -2  -6 1.80243 0.99343  16
   5  -2  -6 2.43526 1.93934  10
   5  -2  -6 1.66411 0.97894   2
   5  -2  -6 4.40036 2.36565  19
   5  -2  -6 3.46916 1.86384  25
   5  -2  -6 3.41892 0.94517  17
   5  -2  -6 2.74727 1.89732   4
   5  -2  -6 3.72797 2.61158  20
   5  -2  -6 2.49738 1.22396  26
   4  -2  -6 141.151 12.6136   2
   4  -2  -6 162.943 12.3297   4
   4  -2  -6 159.468 12.8188  10
   4  -2  -6 152.455 10.3591   3
   3  -2  -6 3.54902 1.88949  10
   3  -2  -6 3.08144 1.78844   4
   3  -2  -6 2.62711 1.31483   2
   3  -2  -6 3.09212 0.51292   3
   2  -2  -6 9.70260 2.02745   4
   2  -2  -6 7.68775 0.84712   3
   2  -2  -6 9.14137 2.07278  10
   2  -2  -6 8.51132 1.90136   2
   1  -2  -6 29.1675 3.83776  10
   1  -2  -6 27.1410 2.33615   1
   1  -2  -6 29.4110 2.24624   3
   1  -2  -6 31.3399 3.89520   4
   1  -2  -6 32.9212 3.71706   2
   0  -2  -6 17.2572 1.72980   1
   0  -2  -6 24.2277 3.45280   2
   0  -2  -6 19.0037 1.58921   3
  -1  -2  -6 38.0095 4.61903   2
  -1  -2  -6 35.6383 2.84246   3
  -2  -2  -6 127.756 13.5109  26
   2   2   6 134.115 13.3192  26
   3   2   6 54.6036 6.67272  26
   4   2   6 158.123 12.2078  16
   4   2   6 149.606 15.9347  26
   4   2   6 170.408 15.5442  21
   5   2   6 32.9776 4.46143  21
   5   2   6 27.8016 3.30078  16
   5   2   6 29.9837 4.44305  26
   6   2   6 11.9335 2.26759  26
   6   2   6 16.4574 1.93925  16
   6   2   6 21.2576 2.56460  21
   6   2   6 17.3229 1.95353  17
   9  -3  -6 9.85530 2.12551  19
   9  -3  -6 1.22865 2.88437  20
   8  -3  -6 0.25332 0.47643  17
   8  -3  -6 -0.1855 2.58369  19
   8  -3  -6 0.11555 2.37570  20
   8  -3  -6 0.01520 1.88365  18
   7  -3  -6 68.0307 8.15248  20
   7  -3  -6 64.8947 6.99945  19
   7  -3  -6 64.9015 4.64234  17
   7  -3  -6 60.9150 7.30303  18
   6  -3  -6 107.426 12.1857  20
   6  -3  -6 104.719 9.19418   4
   6  -3  -6 98.9871 9.49270  10
   6  -3  -6 112.489 9.77368  19
   6  -3  -6 105.983 8.74795  25
   6  -3  -6 103.924 10.1466  18
   6  -3  -6 104.886 7.40132  17
   5  -3  -6 13.4702 2.70444  19
   5  -3  -6 9.91055 1.30138   2
   5  -3  -6 15.3220 2.96704  18
   5  -3  -6 10.2309 2.64204  10
   5  -3  -6 18.8612 3.86795  20
   5  -3  -6 9.02804 2.52180   4
   5  -3  -6 8.91393 0.81616   3
   5  -3  -6 12.1219 2.22146  25
   5  -3  -6 12.6025 1.21620  17
   5  -3  -6 10.9996 1.19597  16
   4  -3  -6 170.992 13.9927   2
   4  -3  -6 160.561 11.5482   3
   4  -3  -6 179.499 13.7716   4
   4  -3  -6 186.383 14.3638  10
   3  -3  -6 52.8407 4.67863   2
   3  -3  -6 45.7446 3.43796   3
   3  -3  -6 51.6282 5.20855  10
   3  -3  -6 51.3831 5.01962   4
   2  -3  -6 103.748 10.5184  10
   2  -3  -6 130.298 8.38491   3
   2  -3  -6 139.878 10.5722   2
   2  -3  -6 101.576 10.0964   4
   1  -3  -6 71.2512 6.21660   2
   1  -3  -6 60.0875 6.16915   4
   1  -3  -6 54.7972 6.34585  10
   1  -3  -6 66.6735 4.60738   3
   0  -3  -6 42.6853 5.07870   2
   0  -3  -6 42.1366 3.16349   3
  -1  -3  -6 572.553 47.4743   2
  -1  -3  -6 589.351 39.2067   3
  -2  -3  -6 167.707 15.9887  26
   2   3   6 159.356 15.7641  26
  -3  -3  -6 39.0571 5.87881  26
   3   3   6 36.6575 5.58403  26
   4   3   6 30.8607 3.82431  16
   4   3   6 39.0983 5.50065  26
   4   3   6 36.2471 4.72205  21
   5   3   6 0.31387 1.51831  21
   5   3   6 -0.4266 2.11776  16
   5   3   6 0.92648 2.23171  26
   6   3   6 7.03462 1.17236  16
   6   3   6 5.45608 1.55384  26
   9  -4  -6 14.1030 2.44087  19
   9  -4  -6 15.0963 3.00143  20
   8  -4  -6 272.937 27.8877  20
   8  -4  -6 253.485 22.0067  19
   8  -4  -6 262.245 22.8053  18
   7  -4  -6 204.889 17.5819  19
   7  -4  -6 215.723 13.9771  17
   7  -4  -6 212.507 18.0461  18
   7  -4  -6 181.013 22.0795  20
   6  -4  -6 6.65243 2.35562  25
   6  -4  -6 9.58828 0.99968  17
   6  -4  -6 6.86032 2.70072  19
   6  -4  -6 4.83451 2.32692   4
   6  -4  -6 10.8186 3.54649  20
   6  -4  -6 9.08181 2.38795  18
   6  -4  -6 7.43593 2.64324  10
   5  -4  -6 44.8981 4.80077  18
   5  -4  -6 34.6582 4.50066  19
   5  -4  -6 35.4315 2.78208  17
   5  -4  -6 36.0241 4.57580  10
   5  -4  -6 34.3484 4.38927   4
   5  -4  -6 33.5971 4.42041  24
   5  -4  -6 36.4410 3.98547  25
   4  -4  -6 31.8093 2.57681  17
   4  -4  -6 31.4731 2.29340   3
   4  -4  -6 30.2585 3.01877   2
   4  -4  -6 34.8010 4.18806  10
   4  -4  -6 42.0466 4.48421  18
   4  -4  -6 30.4585 3.67227   4
   4  -4  -6 46.8379 4.59520  24
   3  -4  -6 11.5429 1.01202   3
   3  -4  -6 13.8859 2.67932  10
   3  -4  -6 10.8998 1.84257   2
   3  -4  -6 16.4732 2.69047   4
   2  -4  -6 30.9392 4.29789  10
   2  -4  -6 32.5124 2.44817   3
   2  -4  -6 30.3912 4.09987   4
   2  -4  -6 35.6793 3.71872   2
   1  -4  -6 7.89305 0.94644   3
   1  -4  -6 6.01469 2.53906  10
   1  -4  -6 8.18183 2.19825   2
   1  -4  -6 6.36608 2.50159   4
   0  -4  -6 30.1954 4.46355   2
   0  -4  -6 29.1607 2.39198   3
  -1  -4  -6 321.378 26.1312   2
  -1  -4  -6 307.713 20.8257   3
  -1  -4  -6 290.009 28.1852  26
  -2  -4  -6 52.8450 7.24856  26
   2   4   6 48.0829 6.90781  26
  -3  -4  -6 3.95366 4.08169  26
   3   4   6 1.97670 2.83896  26
  -4  -4  -6 -0.7325 2.85441  26
   4   4   6 0.55723 2.44236  26
   4   4   6 -0.2901 2.05386  21
   5   4   6 1.57214 2.20836  26
   5   4   6 0.92158 1.52390  16
   5   4   6 0.88782 1.37330  21
   9  -5  -6 2.08427 1.84315  19
   9  -5  -6 -1.8961 2.42500  20
   8  -5  -6 35.9697 4.45791  19
   8  -5  -6 38.7822 4.76076  18
   7  -5  -6 13.0638 3.20684  19
   7  -5  -6 17.2438 2.87830  25
   7  -5  -6 19.5467 3.80613  20
   7  -5  -6 20.7838 3.25010  18
   6  -5  -6 4.09363 1.87972   4
   6  -5  -6 4.78256 2.27604  25
   6  -5  -6 4.77484 2.19381  24
   6  -5  -6 6.17883 1.94856  19
   6  -5  -6 5.96321 2.31276  18
   6  -5  -6 5.23925 0.61008  17
   6  -5  -6 4.59006 2.04006  10
   5  -5  -6 32.0275 4.20515  10
   5  -5  -6 39.7398 5.30899  18
   5  -5  -6 38.4765 4.68790  24
   5  -5  -6 35.5694 2.66920  17
   5  -5  -6 31.3768 4.02714   4
   5  -5  -6 36.8777 4.13633  25
   5  -5  -6 38.6652 4.59046  19
   4  -5  -6 0.81370 2.04741  10
   4  -5  -6 0.00689 3.55135  23
   4  -5  -6 3.42947 2.03884  19
   4  -5  -6 1.48922 1.95757   4
   4  -5  -6 6.44642 2.20390  24
   4  -5  -6 -0.1063 2.52910  18
   4  -5  -6 1.31968 2.07001  25
   4  -5  -6 4.10178 0.95212  17
   3  -5  -6 297.165 22.3187  16
   3  -5  -6 312.672 25.8542   2
   3  -5  -6 326.846 27.4368  18
   3  -5  -6 316.785 21.8250  17
   3  -5  -6 310.214 21.4984   3
   3  -5  -6 360.816 26.0330  10
   3  -5  -6 311.935 30.6960  23
   3  -5  -6 358.888 24.9703   4
   2  -5  -6 559.666 35.6923   3
   2  -5  -6 499.070 41.9944  10
   2  -5  -6 563.103 42.7642   2
   2  -5  -6 489.427 40.2726   4
   1  -5  -6 1.50312 1.84128  16
   1  -5  -6 2.53584 0.52444   3
   1  -5  -6 1.78293 1.70530   4
   1  -5  -6 2.41116 1.88540  10
   1  -5  -6 2.98461 1.84873   2
   1  -5  -6 2.65308 2.37299  26
   0  -5  -6 98.2799 8.33144  16
   0  -5  -6 125.036 7.37537   3
   0  -5  -6 98.9097 7.64523  17
   0  -5  -6 89.5162 10.6839  26
   0  -5  -6 125.103 10.2901   2
   0  -5  -6 78.7995 8.47891  25
  -1  -5  -6 57.8938 7.37075   2
  -1  -5  -6 61.6074 8.05573  26
  -1  -5  -6 62.2575 4.63434   3
  -1  -5  -6 59.2540 6.09582  16
  -2  -5  -6 158.305 14.9579  26
   2   5   6 123.759 14.3804  26
  -3  -5  -6 -0.2718 2.76238  26
   3   5   6 0.26554 2.59415  26
  -4  -5  -6 21.4136 4.10318  26
   4   5   6 16.4831 3.68376  26
   4   5   6 16.9762 2.67184  21
   5   5   6 76.8526 6.17978  16
   5   5   6 81.7627 8.10190  26
   9  -6  -6 50.0175 4.55906  19
   9  -6  -6 37.1506 5.22400  20
   8  -6  -6 7.21680 2.54613  20
   8  -6  -6 5.53796 2.70769  19
   8  -6  -6 4.37967 3.00808  18
   7  -6  -6 68.6240 7.46581  18
   7  -6  -6 61.1666 6.14534  25
   7  -6  -6 65.1809 6.38294  19
   6  -6  -6 119.005 10.6426  24
   6  -6  -6 105.265 10.1134   4
   6  -6  -6 98.9637 10.4402  10
   6  -6  -6 132.043 11.4087  18
   6  -6  -6 127.340 10.6172  19
   6  -6  -6 121.202 9.74792  25
   5  -6  -6 2.66357 2.76320  18
   5  -6  -6 1.02545 0.47343  17
   5  -6  -6 0.11243 1.35229   4
   5  -6  -6 0.67257 1.44968  10
   5  -6  -6 1.58438 2.21075  25
   5  -6  -6 0.98104 1.51648  19
   5  -6  -6 3.51921 2.98930  24
   5  -6  -6 1.19550 3.55906  23
   4  -6  -6 106.334 9.66163  18
   4  -6  -6 106.352 9.43651  10
   4  -6  -6 109.421 9.09849   4
   4  -6  -6 105.737 8.38248  25
   4  -6  -6 97.6611 7.21766  17
   4  -6  -6 106.926 9.79040  24
   4  -6  -6 95.8200 11.8709  23
   3  -6  -6 42.2091 3.63217  16
   3  -6  -6 50.6073 5.12854  10
   3  -6  -6 40.0844 4.16564   2
   3  -6  -6 46.2996 5.86401  18
   3  -6  -6 40.0637 3.05987   3
   3  -6  -6 48.4738 4.88602   4
   3  -6  -6 51.8672 3.45418  17
   3  -6  -6 45.5818 4.77387  25
   3  -6  -6 45.1892 5.39675  24
   3  -6  -6 41.9092 6.31980  23
   2  -6  -6 69.0712 4.94643   3
   2  -6  -6 74.4315 7.07180   4
   2  -6  -6 72.5900 7.00738  24
   2  -6  -6 73.8195 7.63332  18
   2  -6  -6 64.8057 7.22605  10
   2  -6  -6 72.5139 5.24754  17
   2  -6  -6 59.1263 7.51279  26
   2  -6  -6 70.8533 5.58412  16
   2  -6  -6 65.2554 5.95646  25
   2  -6  -6 80.6531 6.76498   2
   1  -6  -6 21.5711 3.92684   4
   1  -6  -6 24.2021 3.10227  25
   1  -6  -6 26.9676 3.07132  16
   1  -6  -6 24.7526 2.55572  17
   1  -6  -6 22.6112 1.98172   3
   1  -6  -6 22.7472 3.67010   2
   1  -6  -6 26.0805 4.06629  26
   1  -6  -6 23.0453 4.13226  10
   0  -6  -6 2.00100 1.64052  25
   0  -6  -6 2.05306 1.82786  17
   0  -6  -6 1.67525 0.64842   3
   0  -6  -6 -0.2714 2.02488   4
   0  -6  -6 2.55286 2.18617  26
   0  -6  -6 1.45521 1.69589  16
   0  -6  -6 2.14544 2.33909  10
   0  -6  -6 -0.3099 2.20241   2
  -1  -6  -6 172.118 11.9349   3
  -1  -6  -6 169.250 12.8178  16
  -1  -6  -6 176.208 16.7183  26
  -1  -6  -6 161.302 15.6725   2
  -2  -6  -6 2.90952 4.02776  26
  -3  -6  -6 0.72901 2.73437  26
   3   6   6 0.23426 2.63200  26
  -4  -6  -6 8.61541 3.07027  26
   4   6   6 7.13145 2.77714  26
   9  -7  -6 3.18476 1.59931  19
   8  -7  -6 63.3783 6.82148  18
   8  -7  -6 56.8463 6.28110  19
   7  -7  -6 0.33035 2.32887  19
   7  -7  -6 1.12762 2.33930  25
   7  -7  -6 0.87689 2.80178  18
   6  -7  -6 29.5449 3.71130  18
   6  -7  -6 21.3288 3.22687  25
   6  -7  -6 18.3343 3.83604  24
   6  -7  -6 23.6817 3.60951  19
   5  -7  -6 39.2007 4.57518  10
   5  -7  -6 33.6441 4.27206   4
   5  -7  -6 31.2070 6.02616  23
   5  -7  -6 42.6801 5.66788  18
   5  -7  -6 43.5917 4.79313  25
   5  -7  -6 43.5873 5.11759  24
   5  -7  -6 40.6050 4.77585  19
   4  -7  -6 53.9885 8.77489  23
   4  -7  -6 58.4761 5.93015  10
   4  -7  -6 53.7172 5.59231   4
   4  -7  -6 55.2465 4.18071  17
   4  -7  -6 61.1037 6.66100  24
   4  -7  -6 58.2696 6.09580  18
   4  -7  -6 62.6905 5.90270  25
   3  -7  -6 32.1543 4.78062  23
   3  -7  -6 19.4932 3.50161   4
   3  -7  -6 28.6840 3.92403  18
   3  -7  -6 18.7779 3.62498  10
   3  -7  -6 21.8968 2.40273   2
   3  -7  -6 19.7151 1.63483   3
   3  -7  -6 26.1804 2.18374  17
   3  -7  -6 33.3901 3.99909  24
   3  -7  -6 31.6194 3.31199  25
   3  -7  -6 27.7975 2.16102  16
   2  -7  -6 198.952 16.2333  24
   2  -7  -6 185.285 14.8375  25
   2  -7  -6 172.440 15.4038   4
   2  -7  -6 209.171 13.5704  16
   2  -7  -6 168.968 16.0267  10
   2  -7  -6 194.517 13.1866  17
   2  -7  -6 166.352 17.3600  26
   2  -7  -6 205.656 16.8800  18
   1  -7  -6 55.7919 5.77810  25
   1  -7  -6 55.6546 6.94692  26
   1  -7  -6 58.0876 4.27509   3
   1  -7  -6 60.7560 4.78089  17
   1  -7  -6 65.9149 5.40282  16
   1  -7  -6 52.1977 6.09499   4
   1  -7  -6 54.3684 6.40496  10
   0  -7  -6 0.41550 2.38101   2
   0  -7  -6 2.49971 2.55281  16
   0  -7  -6 0.02099 2.34146   4
   0  -7  -6 0.75452 3.06268  26
   0  -7  -6 2.45411 2.57507  10
   0  -7  -6 0.85703 1.68266  17
   0  -7  -6 0.52894 2.41483  25
  -1  -7  -6 52.0274 6.94134  26
  -1  -7  -6 55.0014 5.25073  16
  -1  -7  -6 48.2440 5.71886  25
  -2  -7  -6 19.5948 3.75899  16
  -2  -7  -6 19.4830 2.90595  25
  -2  -7  -6 19.0679 4.92461  26
  -3  -7  -6 138.844 12.9042  26
  -3  -7  -6 122.003 9.55344  25
   3   7   6 98.4401 12.4646  26
  -4  -7  -6 21.6561 3.45488  26
   4   7   6 13.1898 3.00202  26
   8  -8  -6 79.9828 8.24873  19
   8  -8  -6 109.359 8.76763  18
   7  -8  -6 30.0374 3.68430  18
   7  -8  -6 14.9722 3.09527  19
   7  -8  -6 20.8061 3.10927  25
   6  -8  -6 106.533 9.83724  18
   6  -8  -6 98.6881 9.33321  24
   6  -8  -6 106.492 8.70177  25
   6  -8  -6 93.5570 8.97177  19
   5  -8  -6 9.55454 2.72656  25
   5  -8  -6 6.84484 2.90187  18
   5  -8  -6 13.5356 2.88807  24
   5  -8  -6 8.55014 4.55058  23
   4  -8  -6 13.9201 2.76531   4
   4  -8  -6 17.9303 1.70787  17
   4  -8  -6 21.5519 3.85486  24
   4  -8  -6 15.2937 3.33829  18
   4  -8  -6 23.8752 2.94512  25
   4  -8  -6 21.3008 4.41951  23
   4  -8  -6 13.6935 2.87325  10
   3  -8  -6 1129.89 114.737  23
   3  -8  -6 1307.79 103.088  18
   3  -8  -6 1214.27 91.7315  25
   3  -8  -6 1263.29 100.335  24
   3  -8  -6 1270.91 83.7005  17
   2  -8  -6 186.775 14.8626  25
   2  -8  -6 206.497 13.6755  16
   2  -8  -6 197.860 13.3493  17
   2  -8  -6 166.836 17.5070  26
   2  -8  -6 192.735 16.9544  18
   2  -8  -6 190.957 16.4150  24
   1  -8  -6 29.2589 3.22699  17
   1  -8  -6 29.5768 4.62368  26
   1  -8  -6 36.5747 4.63618  18
   1  -8  -6 38.2686 3.59601  16
   1  -8  -6 21.6646 3.64884  25
   0  -8  -6 4.83684 2.56592  16
   0  -8  -6 2.53355 1.78953  17
   0  -8  -6 -1.4973 2.97158  26
   0  -8  -6 -1.8853 2.80207  18
   0  -8  -6 0.20503 1.83566  25
  -1  -8  -6 3.10946 2.74882  25
  -1  -8  -6 -0.3639 3.51670  26
  -1  -8  -6 2.51692 2.88815  16
  -2  -8  -6 -0.5141 3.56359  26
  -2  -8  -6 1.13120 1.68521  25
  -2  -8  -6 0.59500 2.71771  16
  -3  -8  -6 7.95770 2.60449  26
  -3  -8  -6 4.02546 1.82130  25
  -3  -8  -6 6.72195 1.90486  16
   8  -9  -6 3.25820 1.59346  18
   7  -9  -6 41.0613 5.00823  18
   7  -9  -6 36.0381 4.48378  25
   6  -9  -6 64.4926 6.41004  18
   6  -9  -6 64.5405 7.18407  24
   6  -9  -6 61.8192 6.21107  25
   5  -9  -6 79.2844 8.03150  18
   5  -9  -6 82.1729 7.42560  25
   5  -9  -6 78.9626 7.84222  24
   4  -9  -6 22.7897 3.41505  24
   4  -9  -6 19.1880 1.63229  17
   4  -9  -6 17.1694 3.17526  18
   4  -9  -6 19.1581 3.44793  25
   4  -9  -6 19.7564 5.48137  23
   3  -9  -6 575.712 43.4446  25
   3  -9  -6 620.537 39.4072  17
   3  -9  -6 557.770 48.7247  18
   3  -9  -6 561.623 47.5751  24
   2  -9  -6 12.2720 3.00764  18
   2  -9  -6 6.97874 2.92343  24
   2  -9  -6 14.0496 2.48993  25
   2  -9  -6 11.7432 1.44793  16
   2  -9  -6 10.0001 1.69538  17
   1  -9  -6 88.1471 6.38680  16
   1  -9  -6 88.0198 6.26447  17
   1  -9  -6 81.7810 7.02635  25
   1  -9  -6 59.6830 8.15776  26
   0  -9  -6 55.8114 7.40827  26
   0  -9  -6 64.8290 5.03409  17
   0  -9  -6 65.4598 5.70279  16
   0  -9  -6 61.8176 5.82458  25
  -1  -9  -6 4.31544 1.89124  16
  -1  -9  -6 3.22483 1.71231  17
  -1  -9  -6 1.15323 2.32741  25
  -1  -9  -6 2.89211 2.32444  26
  -2  -9  -6 305.834 22.0168  16
  -2  -9  -6 321.139 23.4513  25
  -2  -9  -6 306.065 28.3733  26
   7 -10  -6 145.402 10.9559  25
   7 -10  -6 135.094 12.3390  18
   6 -10  -6 72.3150 6.00389  25
   6 -10  -6 65.5262 6.76641  18
   6 -10  -6 66.4539 6.75889  24
   5 -10  -6 9.38220 3.52326  24
   5 -10  -6 10.4234 2.07191  18
   5 -10  -6 10.5648 2.21771  25
   4 -10  -6 0.87885 1.90012  25
   4 -10  -6 2.54874 3.15883  24
   3 -10  -6 4.01129 0.95169  17
   3 -10  -6 6.38325 2.12236  25
   3 -10  -6 2.67036 2.97757  24
   2 -10  -6 43.2050 3.49759  17
   2 -10  -6 43.4756 5.04246  25
   2 -10  -6 37.1714 4.66664  24
   1 -10  -6 38.4462 3.03009  16
   1 -10  -6 29.0406 4.01156  25
   1 -10  -6 38.0190 3.48242  17
   0 -10  -6 4.22085 1.29704  17
   0 -10  -6 5.29491 1.64831  16
   0 -10  -6 4.59208 1.78530  25
   0 -10  -6 3.82342 2.32723  26
  -1 -10  -6 20.8869 3.10987  26
  -1 -10  -6 22.1477 2.27566  17
  -1 -10  -6 22.9612 2.40687  16
  -2 -10  -6 63.1576 4.84006  16
   7 -11  -6 3.03965 1.26998  25
   6 -11  -6 4.13868 1.99222  24
   6 -11  -6 4.29270 1.53187  25
   5 -11  -6 65.2996 7.21503  24
   5 -11  -6 70.8194 5.94969  25
   4 -11  -6 17.4640 2.96013  24
   4 -11  -6 17.3060 3.08670  25
   3 -11  -6 1.80496 1.76879  25
   3 -11  -6 1.69217 1.97904  24
   3 -11  -6 0.57696 0.65546  17
   2 -11  -6 108.871 9.01037  25
   2 -11  -6 112.549 7.82213  17
   1 -11  -6 35.1919 3.17878  17
   1 -11  -6 40.8355 3.84588  25
   0 -11  -6 27.3964 3.02662  25
   6 -12  -6 82.1691 6.59928  25
   5 -12  -6 1.89059 1.20471  25
   5 -12  -6 3.60003 1.90179  24
   4 -12  -6 -1.5580 2.30605  24
   4 -12  -6 0.03877 1.25410  25
   3 -12  -6 5.37254 2.16374  25
   3 -12  -6 7.62248 1.81605  24
   2 -12  -6 24.4777 1.86850  17
   2 -12  -6 28.6898 2.88548  25
   1 -12  -6 36.2732 3.66314  25
   1 -12  -6 34.4680 2.64355  17
  -1 -12   7 0.74396 1.33811  24
  -1 -12   7 -0.6465 0.98529  17
   0 -12   7 34.4196 3.19818  17
   0 -12   7 33.8858 3.63030  24
   1 -12   7 25.7296 2.45166  17
   1 -12   7 23.8873 3.11407  24
   1 -12   7 22.8735 3.71864  23
   2 -12   7 4.32130 2.21370  23
   2 -12   7 5.46822 0.90061  17
   3 -12   7 5.50624 2.36582  23
  -3 -11   7 168.710 14.0731  24
  -2 -11   7 -1.0336 1.21437  17
  -2 -11   7 0.29422 1.40671  16
  -2 -11   7 -0.0678 1.80963  26
  -2 -11   7 0.86966 1.85373  24
  -1 -11   7 0.15281 2.57353  24
  -1 -11   7 1.00639 1.31620  16
  -1 -11   7 -0.3698 1.35938  17
  -1 -11   7 -1.2459 1.53696  26
   0 -11   7 18.5761 2.33488  17
   0 -11   7 21.0650 2.46844  16
   0 -11   7 16.6949 2.80258  26
   0 -11   7 23.8062 2.95691  24
   1 -11   7 7.33392 1.48970  17
   1 -11   7 9.27727 1.87539  24
   1 -11   7 4.96095 3.88412  23
   2 -11   7 3.87678 1.35104  17
   2 -11   7 7.37788 3.11201  23
   3 -11   7 0.13580 1.96197  22
   3 -11   7 1.68131 2.55769  23
   3 -11   7 0.44255 0.75791  17
   4 -11   7 10.4723 3.10188  22
   4 -11   7 16.7210 2.82489  23
  -4 -10   7 23.0207 3.55724  26
  -3 -10   7 12.6556 2.77142  16
  -3 -10   7 18.0072 4.45403  26
  -3 -10   7 17.1019 2.79831  24
  -2 -10   7 9.12389 3.13242  26
  -2 -10   7 8.85275 2.63265  24
  -2 -10   7 6.01399 2.45853  16
  -1 -10   7 22.6186 2.66082  17
  -1 -10   7 18.4634 3.54013  16
  -1 -10   7 11.9983 3.67229  24
  -1 -10   7 16.1867 4.23350  26
   0 -10   7 29.5217 3.49653  16
   0 -10   7 17.2488 4.39883  23
   0 -10   7 23.1679 3.10157  17
   0 -10   7 20.3272 3.97071  26
   0 -10   7 16.6406 3.72233  24
   1 -10   7 55.6247 5.01567  16
   1 -10   7 57.3715 5.06372  17
   1 -10   7 51.3784 5.90000  24
   1 -10   7 56.8095 6.39402  26
   1 -10   7 60.4620 7.34454  23
   2 -10   7 143.203 14.5873  23
   2 -10   7 140.139 10.2388  17
   3 -10   7 7.45750 1.38379  17
   3 -10   7 4.16637 3.54855  22
   3 -10   7 6.81255 3.95224  23
   4 -10   7 0.25092 3.17852  22
   4 -10   7 1.70829 3.30279  23
   5 -10   7 38.5932 5.15338  23
   5 -10   7 39.4771 4.89624  22
   4   9  -7 23.6310 3.37231  26
  -4  -9   7 13.2386 2.96408  24
  -4  -9   7 24.6563 4.47182  26
  -4  -9   7 28.9244 3.63450  16
  -3  -9   7 3.87418 3.32521  26
  -3  -9   7 0.82780 3.67922  16
  -2  -9   7 92.7774 8.40474  16
  -2  -9   7 105.981 11.4934  26
  -1  -9   7 24.6772 4.94543  26
  -1  -9   7 18.5931 3.99218  16
  -1  -9   7 24.3844 3.47296  17
   0  -9   7 0.62020 3.79594  23
   0  -9   7 0.22688 2.20095  17
   0  -9   7 1.31403 2.86058  24
   0  -9   7 3.10192 3.37044  26
   0  -9   7 0.59442 3.00206  16
   1  -9   7 61.8154 5.50256  16
   1  -9   7 45.2159 5.43655  24
   1  -9   7 50.7602 5.04533  17
   1  -9   7 62.7846 6.88552  26
   1  -9   7 59.4680 7.48189  23
   2  -9   7 5.40412 1.91582  17
   2  -9   7 3.06265 3.48429  22
   2  -9   7 4.86804 4.31293  23
   2  -9   7 2.22732 1.55276  16
   3  -9   7 -0.8676 2.58648  22
   3  -9   7 0.47749 1.40022  17
   3  -9   7 2.14412 4.03447  23
   4  -9   7 3.66441 3.61630  22
   4  -9   7 5.63274 1.27721  17
   4  -9   7 3.07884 3.48262  23
   4  -9   7 8.45644 2.46294  21
   5  -9   7 12.2329 2.81367  22
   5  -9   7 4.09585 2.48143  21
   5  -9   7 7.68679 2.93438  23
   6  -9   7 6.02709 2.40821  22
   5   8  -7 15.7613 2.86083  26
  -5  -8   7 16.2537 4.03964  26
   4   8  -7 3.71409 2.10507  26
  -4  -8   7 5.42459 3.55694  26
  -3  -8   7 6.04948 4.88599  26
  -2  -8   7 202.091 16.9878  16
  -2  -8   7 256.346 21.9449  26
   1   8  -7 9.78285 1.75347  12
   1   8  -7 8.60822 1.64201   6
  -1  -8   7 9.80664 5.61326  15
  -1  -8   7 17.6539 4.81525  26
  -1  -8   7 12.3621 3.88706  23
  -1  -8   7 12.9526 4.12710  16
  -1  -8   7 6.17638 4.94544   9
   0  -8   7 17.3073 2.89753  17
   0  -8   7 19.4996 3.90648  16
   0  -8   7 18.1089 4.48341  26
   0  -8   7 18.0804 4.70256  23
   1  -8   7 -0.0655 1.82175  17
   1  -8   7 2.59334 3.23394   7
   1  -8   7 -0.3620 2.40678  24
   1  -8   7 -0.6980 4.10101  23
   1  -8   7 1.59532 3.03819  26
   1  -8   7 -1.3677 2.70144  16
   1  -8   7 0.21687 3.19733  13
   2  -8   7 5.77487 3.67596  22
   2  -8   7 6.34774 3.02241  26
   2  -8   7 6.63786 2.26299  16
   2  -8   7 4.41705 1.85109  17
   2  -8   7 11.3927 4.43657  23
   3  -8   7 112.738 11.4771  21
   3  -8   7 100.961 11.6460  22
   3  -8   7 130.261 12.4926  23
   3  -8   7 101.211 7.63379  16
   4  -8   7 0.32759 3.89820  22
   4  -8   7 0.68361 3.04599  21
   4  -8   7 0.09772 2.39379  23
   5  -8   7 0.51283 0.74411  17
   5  -8   7 -0.0503 2.69719  21
   5  -8   7 -0.3300 2.47334  22
   6  -8   7 19.1891 2.90431  22
   6  -8   7 19.1609 2.73667  21
   6   7  -7 74.8214 5.88228  16
   6   7  -7 77.0358 8.62439  20
   6   7  -7 80.8863 7.69682  26
   5   7  -7 -0.4474 1.81592  26
  -5  -7   7 2.58434 3.38919  26
   4   7  -7 3.50821 2.89067  26
  -4  -7   7 2.68537 5.06460  26
   3   7  -7 16.6757 3.11305  26
  -3  -7   7 16.5972 4.37230  26
   2   7  -7 20.8480 2.47403  12
   2   7  -7 22.2024 2.43072   6
  -2  -7   7 30.5497 4.19940  16
  -2  -7   7 13.9496 5.13895   9
  -2  -7   7 28.5954 4.87875  26
  -2  -7   7 13.4772 5.56237  15
  -1  -7   7 37.9060 2.96597   3
  -1  -7   7 38.7260 5.73421  23
  -1  -7   7 51.9949 6.65922  26
  -1  -7   7 32.7012 6.33972   2
  -1  -7   7 39.6051 5.19425  16
  -1  -7   7 26.0563 6.14837  15
   0  -7   7 13.7213 3.51486  16
   0  -7   7 15.7162 4.70555  15
   0  -7   7 23.8960 4.93102   9
   0  -7   7 15.8782 4.24010  26
   0  -7   7 14.7362 1.42104   3
   0  -7   7 13.0717 2.52041  17
   0  -7   7 17.6457 4.48132  23
   0  -7   7 11.3693 4.11339   2
   1  -7   7 47.7448 5.69697   7
   1  -7   7 48.0328 5.78230  13
   1  -7   7 53.1098 6.52755  26
   1  -7   7 41.1790 6.43970  23
   1  -7   7 43.0349 3.30729   3
   1  -7   7 46.2592 5.19903  16
   1  -7   7 45.0225 6.49727   2
   2  -7   7 440.335 33.8098  26
   2  -7   7 357.563 25.7143  17
   2  -7   7 368.176 29.9494  13
   2  -7   7 309.622 30.8650   2
   2  -7   7 355.319 26.4006  16
   2  -7   7 393.412 29.3633   7
   2  -7   7 386.685 33.8639  22
   2  -7   7 369.643 35.4644  23
   3  -7   7 94.1186 7.71509  16
   3  -7   7 104.772 11.6921  23
   3  -7   7 109.168 9.92196  26
   3  -7   7 108.492 7.73170  17
   3  -7   7 113.868 11.4152  22
   3  -7   7 86.4622 10.8273  21
   4  -7   7 2.75830 2.59023  23
   4  -7   7 3.27313 3.87407  22
   4  -7   7 2.38963 3.17207  21
   4  -7   7 2.41396 1.49983  17
   5  -7   7 36.2729 5.18762  22
   5  -7   7 33.2561 4.54504  21
   5  -7   7 33.7753 2.83926  17
   6  -7   7 3.38706 2.27143  21
   6  -7   7 3.74228 2.88879  22
   7   6  -7 112.118 7.19207  16
   7   6  -7 86.4715 9.18380  26
   6   6  -7 4.55590 2.05417  20
   6   6  -7 2.84829 1.33580  16
   6   6  -7 3.32146 1.86695  26
   5   6  -7 2.04097 2.76080  26
  -5  -6   7 7.15453 5.24769  26
   4   6  -7 42.2340 5.74689  26
  -4  -6   7 37.0981 6.97012  26
   3   6  -7 61.6903 6.29193  26
   3   6  -7 53.0933 3.85873  12
   3   6  -7 44.1223 3.70469   6
  -3  -6   7 32.2846 6.86424   9
  -3  -6   7 61.3433 7.92357  26
  -3  -6   7 33.6097 7.29937  15
   2   6  -7 131.681 7.56102  12
   2   6  -7 125.919 7.51080   6
  -2  -6   7 111.609 12.9730  15
  -2  -6   7 134.129 13.1522  26
  -2  -6   7 124.577 12.5051   9
  -1  -6   7 13.9709 3.91657   2
  -1  -6   7 10.5858 4.52953  15
  -1  -6   7 16.4732 3.18657  16
  -1  -6   7 13.9860 4.43822   9
  -1  -6   7 19.4549 3.95353  26
  -1  -6   7 17.7160 1.60839   3
   0  -6   7 0.48738 0.45092   3
   0  -6   7 -2.1354 2.78152  15
   0  -6   7 1.13886 2.69709  16
   0  -6   7 -0.2326 2.24802  13
   0  -6   7 2.33744 2.48416   7
   0  -6   7 2.15872 3.30141  26
   0  -6   7 3.54753 2.90030   9
   0  -6   7 0.85563 2.64521   2
   1  -6   7 35.5683 5.81482   2
   1  -6   7 45.5548 6.34623  26
   1  -6   7 48.4190 3.26549   3
   1  -6   7 38.5483 4.71304  16
   1  -6   7 38.5282 6.07279  13
   1  -6   7 40.4174 4.22827  17
   1  -6   7 43.8953 6.19052   7
   2  -6   7 2.87055 0.56356   3
   2  -6   7 3.70095 2.68700   7
   2  -6   7 2.03401 3.08718  22
   2  -6   7 2.34517 1.73652  17
   2  -6   7 2.76726 2.35726   2
   2  -6   7 3.61620 2.74742  13
   2  -6   7 2.26316 1.68841  16
   2  -6   7 3.07812 2.71285  26
   2  -6   7 0.99352 2.48644  23
   3  -6   7 13.9738 4.02125   7
   3  -6   7 13.6311 4.08487  23
   3  -6   7 13.4905 2.91653  26
   3  -6   7 12.6363 2.76113  16
   3  -6   7 15.3402 2.20517  17
   3  -6   7 10.8624 3.61993  21
   3  -6   7 12.0277 3.91655  13
   3  -6   7 10.8747 4.10986  22
   4  -6   7 19.5786 2.37154  16
   4  -6   7 20.3073 2.41327  17
   4  -6   7 26.2448 4.74154  23
   4  -6   7 22.1456 4.24999  21
   4  -6   7 24.9876 4.76646  22
   5  -6   7 2.73937 3.63249  22
   5  -6   7 4.75549 2.98159  21
   5  -6   7 4.35297 1.26558  17
   6  -6   7 36.6326 4.59764  21
   6  -6   7 41.4097 5.01888  22
   6  -6   7 41.4541 2.98108  17
   7   5  -7 0.11713 0.95838  16
   7   5  -7 1.07358 2.14840  20
   7   5  -7 0.84036 1.35545  26
   6   5  -7 1.05734 3.03231  20
   6   5  -7 -1.2528 2.36394  26
   6   5  -7 -0.0612 1.30584  16
   5   5  -7 47.3954 5.41244  26
   5   5  -7 41.0511 4.10223  16
   4   5  -7 6.72811 1.76250  12
   4   5  -7 7.33181 2.60041  26
   4   5  -7 8.79060 1.88764   6
  -4  -5   7 5.86853 3.83576  15
  -4  -5   7 9.97431 4.02542   9
  -4  -5   7 8.96167 4.86745  26
   3   5  -7 51.9513 3.78635  12
   3   5  -7 56.3546 3.80730   6
   3   5  -7 58.3399 6.11925  26
  -3  -5   7 28.4498 6.97610  15
  -3  -5   7 37.5449 6.90414   9
  -3  -5   7 58.8192 7.71217  26
   2   5  -7 639.363 54.0181  26
   2   5  -7 596.073 31.5655   6
   2   5  -7 577.396 31.4282  12
  -2  -5   7 659.694 49.3157  15
  -2  -5   7 541.820 54.5342  26
  -2  -5   7 656.157 47.0883   9
  -1  -5   7 8.69652 3.51068   2
  -1  -5   7 13.2286 3.70249  15
  -1  -5   7 10.0118 3.83799  26
  -1  -5   7 14.0291 4.00423   9
  -1  -5   7 7.02111 0.98443   3
   0  -5   7 1.60184 2.33998   7
   0  -5   7 0.86640 2.64516  16
   0  -5   7 0.49586 3.20224  26
   0  -5   7 0.40153 2.63152  15
   0  -5   7 2.59746 2.63439   9
   0  -5   7 1.43841 0.51906   3
   0  -5   7 1.89705 2.57032   2
   0  -5   7 2.46809 2.36905  13
   1  -5   7 110.017 10.0347  13
   1  -5   7 109.728 10.4055   2
   1  -5   7 121.768 7.14196   3
   1  -5   7 89.5279 10.3649  22
   1  -5   7 86.5533 8.31346  16
   1  -5   7 101.101 9.65939   7
   1  -5   7 84.4290 7.68327  17
   1  -5   7 100.936 10.7433  26
   2  -5   7 95.1745 9.06711  16
   2  -5   7 131.444 8.06111   3
   2  -5   7 108.209 11.1351   2
   2  -5   7 114.425 11.9485  22
   2  -5   7 119.886 11.7811  26
   2  -5   7 129.208 11.2857   7
   2  -5   7 104.040 8.56643  17
   2  -5   7 128.370 11.5469  13
   3  -5   7 79.1486 6.51773  17
   3  -5   7 74.9413 6.98419  16
   3  -5   7 84.8396 9.80647  22
   3  -5   7 98.6881 9.64068   7
   3  -5   7 73.1150 9.24827  23
   3  -5   7 93.0173 9.68902  13
   3  -5   7 92.6834 5.94624   3
   3  -5   7 86.3081 8.95976  26
   4  -5   7 0.76295 3.64989  22
   4  -5   7 1.14283 2.85924  21
   4  -5   7 -0.1182 1.71770  26
   4  -5   7 -0.4416 1.48089  16
   4  -5   7 0.84259 1.46574  17
   5  -5   7 144.138 9.64926  17
   5  -5   7 116.026 13.3561  21
   5  -5   7 145.158 13.6579  22
   6  -5   7 24.3692 2.15432  17
   6  -5   7 21.1993 3.33795  21
   6  -5   7 31.0451 3.87905  22
   7   4  -7 11.1961 1.57826  16
   7   4  -7 8.28921 1.31809  17
   7   4  -7 10.5905 2.09595  26
   7   4  -7 11.5133 2.65989  20
   6   4  -7 137.575 15.7138  20
   6   4  -7 141.284 13.5756  26
   6   4  -7 149.709 10.5970  16
   5   4  -7 7.05370 2.67135  26
   5   4  -7 4.67649 2.07110  16
   4   4  -7 22.2804 3.37105  26
   4   4  -7 18.6217 2.40346  12
   4   4  -7 14.0123 2.24828   6
  -4  -4   7 14.7627 4.91504   9
  -4  -4   7 19.0120 5.50417  15
   3   4  -7 87.0837 5.62763   6
   3   4  -7 89.1713 5.69055  12
   3   4  -7 101.161 8.99793  26
  -3  -4   7 73.6294 9.81275  26
  -3  -4   7 100.890 10.4045  15
  -3  -4   7 100.006 9.89241   9
  -2  -4   7 4.85052 3.58156  15
  -2  -4   7 6.79590 3.94599  26
  -2  -4   7 4.25986 3.24568   9
  -1  -4   7 20.2169 1.76696   3
  -1  -4   7 24.9333 4.34186   9
  -1  -4   7 24.8548 4.60175  15
  -1  -4   7 18.8099 4.18321   2
   0  -4   7 242.752 19.5898   9
   0  -4   7 232.443 21.1751   2
   0  -4   7 242.389 19.6241  13
   0  -4   7 248.782 20.5508  15
   0  -4   7 257.364 16.7040   3
   0  -4   7 241.970 19.0958   7
   1  -4   7 180.591 14.4712   7
   1  -4   7 160.041 16.5710  26
   1  -4   7 151.332 15.3876   2
   1  -4   7 181.663 11.8116   3
   1  -4   7 187.780 14.9446  13
   2  -4   7 26.1239 4.37701  26
   2  -4   7 28.0099 3.45906  16
   2  -4   7 38.1178 5.74580  13
   2  -4   7 27.9555 2.12617   3
   2  -4   7 34.1160 4.33620  22
   2  -4   7 20.2388 2.60627  17
   2  -4   7 30.2935 5.26867   7
   2  -4   7 22.3891 4.33352   2
   3  -4   7 963.216 65.7234  13
   3  -4   7 774.958 76.2200  26
   3  -4   7 882.030 76.3936  22
   3  -4   7 926.331 63.7782   7
   3  -4   7 834.005 58.5711  17
   3  -4   7 952.288 57.7041   3
   3  -4   7 734.669 69.2192   2
   4  -4   7 19.8852 2.32374  17
   4  -4   7 15.6613 4.11548  13
   4  -4   7 17.5306 4.43197  22
   4  -4   7 16.2483 3.63531  21
   4  -4   7 13.1391 3.89574   7
   4  -4   7 13.6979 3.37258  26
   4  -4   7 15.6236 2.49630  16
   5  -4   7 -0.1267 1.02401  16
   5  -4   7 1.45938 2.42378  22
   5  -4   7 0.08291 0.93058  17
   5  -4   7 -0.1492 2.68441  21
   6  -4   7 34.5598 4.63651  21
   6  -4   7 32.5873 2.82905  17
   6  -4   7 35.3881 4.53141  22
   8   3  -7 0.42123 0.67278  17
   8   3  -7 0.81635 2.31162  20
   7   3  -7 2.50172 3.19045  20
   7   3  -7 5.11140 1.12908  17
   7   3  -7 5.23619 1.32990  16
   7   3  -7 2.69413 1.70230  26
   6   3  -7 203.546 14.3925  16
   6   3  -7 190.838 13.9897  17
   6   3  -7 191.234 18.5605  26
   6   3  -7 215.556 21.7702  20
   5   3  -7 100.035 10.7652   2
   5   3  -7 125.139 8.95292  16
   5   3  -7 116.085 7.20452  12
   5   3  -7 122.089 7.25966   6
   5   3  -7 129.600 11.5134  26
  -5  -3   7 105.252 11.7646   9
  -5  -3   7 98.7532 12.2662  15
   4   3  -7 27.2573 2.82701  16
   4   3  -7 28.4535 2.75562  12
   4   3  -7 30.4851 2.83612   6
   4   3  -7 22.2639 2.11328   3
   4   3  -7 26.9157 3.57569   2
   4   3  -7 25.4113 3.48898  26
  -4  -3   7 28.4471 5.73705  15
  -4  -3   7 23.0631 5.19091   9
   3   3  -7 4.22031 1.33371   6
   3   3  -7 4.78994 2.06736  26
   3   3  -7 3.23421 1.32775  12
   3   3  -7 5.19839 2.14076   2
   3   3  -7 3.75998 0.65021   3
  -1  -3   7 624.736 46.9781  13
  -1  -3   7 620.792 45.6602   7
  -1  -3   7 613.112 51.2525   2
  -1  -3   7 651.051 42.2237   3
   0  -3   7 0.97719 2.18447  13
   0  -3   7 1.93222 1.94043   2
   0  -3   7 2.25253 0.47808   3
   0  -3   7 2.41821 2.25528   7
   1  -3   7 368.469 23.3835   3
   1  -3   7 365.217 26.5788   7
   1  -3   7 352.996 27.2889  13
   1  -3   7 291.872 28.8046   2
   2  -3   7 170.303 17.4926  26
   2  -3   7 152.314 13.7401  16
   2  -3   7 216.664 16.2407  13
   2  -3   7 231.863 15.9267   7
   2  -3   7 179.785 16.3843   2
   2  -3   7 165.292 13.1248  17
   2  -3   7 219.030 12.7796   3
   3  -3   7 6.30967 2.71651   7
   3  -3   7 3.32864 1.65038  16
   3  -3   7 6.99127 2.89778  13
   3  -3   7 5.07959 0.73997   3
   3  -3   7 7.56771 2.39853  26
   3  -3   7 5.39594 1.39677  17
   3  -3   7 4.04250 1.90789   2
   3  -3   7 5.64497 2.68128  22
   4  -3   7 27.0244 3.12415  16
   4  -3   7 24.2508 4.62085   7
   4  -3   7 27.5214 4.82547  22
   4  -3   7 24.6389 4.01894  26
   4  -3   7 23.6272 2.69901  17
   4  -3   7 17.2765 3.64423  21
   4  -3   7 29.1437 5.02649  13
   5  -3   7 2.47984 1.83859  26
   5  -3   7 1.70385 2.48315  21
   5  -3   7 3.23179 3.31522  22
   5  -3   7 2.02535 1.47301  17
   5  -3   7 2.94645 1.53145  16
   6  -3   7 64.6560 4.77147  17
   6  -3   7 76.4070 7.04554  22
   6  -3   7 57.8615 6.65921  21
   7  -3   7 12.4046 1.09802  17
   8   2  -7 1.63906 0.80875  17
   8   2  -7 3.76686 2.16600  20
   7   2  -7 133.474 12.9969  26
   7   2  -7 139.811 9.98172  16
   7   2  -7 138.642 15.4594  20
   7   2  -7 136.147 9.69411  17
   6   2  -7 35.0338 3.69594  16
   6   2  -7 33.2396 3.25102  17
   6   2  -7 30.8331 4.67503  26
   6   2  -7 39.1716 6.53200  20
   5   2  -7 11.7272 2.90363   2
   5   2  -7 16.8734 2.27393  12
   5   2  -7 18.1988 2.40953  16
   5   2  -7 21.3596 3.16195  19
   5   2  -7 17.8260 3.01342  26
   5   2  -7 16.2791 2.27721   6
   5   2  -7 15.8897 1.61514   3
   5   2  -7 23.2897 2.20744  17
  -5  -2   7 11.7170 4.56229  15
  -5  -2   7 15.9290 4.71938   9
   4   2  -7 25.4686 2.51264   6
   4   2  -7 25.4921 3.41218  26
   4   2  -7 21.0189 3.38503   2
   4   2  -7 24.4181 2.73434  16
   4   2  -7 19.8791 1.85534   3
   4   2  -7 24.1925 2.49791  12
   4   2  -7 27.9290 3.44523  19
   3   2  -7 238.554 12.9487  12
   3   2  -7 252.382 20.1618   2
   3   2  -7 238.047 12.9633   6
   3   2  -7 236.565 16.3564   3
   2   2  -7 180.678 13.2924   3
   2   2  -7 202.437 14.9302   4
   2   2  -7 190.550 16.4229   2
   2   2  -7 211.273 15.5863  10
   1   2  -7 521.498 33.1161   3
   1   2  -7 480.558 38.1505  10
   1   2  -7 515.599 36.6466   4
  -1  -2   7 503.373 35.9754   7
  -1  -2   7 503.717 33.0708   3
  -1  -2   7 408.492 40.1639   2
  -1  -2   7 493.599 37.0060  13
   0  -2   7 10.4096 3.09039   2
   0  -2   7 10.9110 2.98854   7
   0  -2   7 11.7543 3.12012  13
   0  -2   7 10.7212 1.08158   3
   1  -2   7 13.9697 3.56406  13
   1  -2   7 14.5514 3.49841   7
   1  -2   7 11.4762 1.12787   3
   1  -2   7 10.0847 3.11416   2
   2  -2   7 3.71086 2.33936   2
   2  -2   7 3.65832 0.58522   3
   2  -2   7 5.02315 2.38175  13
   2  -2   7 3.05681 2.35349  16
   2  -2   7 3.13477 3.04505  26
   2  -2   7 4.37377 2.35688   7
   3  -2   7 68.3727 7.70148   7
   3  -2   7 64.7324 6.13063  16
   3  -2   7 73.9062 4.99195   3
   3  -2   7 68.1657 7.52714   2
   3  -2   7 76.5684 8.12996  13
   3  -2   7 64.9288 5.60027  17
   3  -2   7 69.7162 8.12195  26
   4  -2   7 10.1737 2.92285  21
   4  -2   7 4.44535 3.54893  22
   4  -2   7 7.74648 1.88641  17
   4  -2   7 7.36574 3.03258  26
   4  -2   7 5.36260 3.56281  13
   4  -2   7 2.43885 2.96207   7
   4  -2   7 8.21876 2.33212  16
   5  -2   7 26.9877 3.95688  21
   5  -2   7 15.4897 4.14243  22
   5  -2   7 22.7004 3.63543  26
   5  -2   7 23.6442 2.79835  16
   5  -2   7 26.4753 2.51978  17
   6  -2   7 51.8668 3.95310  17
   6  -2   7 51.0983 5.50885  21
   7  -2   7 35.8202 2.64554  17
   8   1  -7 1.56417 0.83572  17
   8   1  -7 0.51059 2.15022  20
   7   1  -7 9.57339 1.74411  16
   7   1  -7 11.9421 1.51589  17
   7   1  -7 7.66748 2.31105  26
   7   1  -7 8.80467 3.82868  20
   6   1  -7 19.3136 4.43702  20
   6   1  -7 17.0856 3.50213   5
   6   1  -7 22.3232 2.14186  17
   6   1  -7 14.3242 3.04650  11
   6   1  -7 15.2391 2.22788  16
   6   1  -7 13.6411 3.02671  19
   6   1  -7 15.7324 2.92620  26
   5   1  -7 534.021 27.3059  12
   5   1  -7 511.819 39.3171   4
   5   1  -7 540.998 46.4544  26
   5   1  -7 550.189 35.6031  17
   5   1  -7 497.050 40.9371  10
   5   1  -7 474.210 35.1411   3
   5   1  -7 556.408 27.4441   6
   5   1  -7 555.938 36.4547  16
   5   1  -7 472.116 42.2433   2
   5   1  -7 539.769 42.3923  19
   4   1  -7 1.96318 1.30816   2
   4   1  -7 0.38986 1.40831  10
   4   1  -7 3.65667 1.19644  16
   4   1  -7 1.14440 1.37395   4
   4   1  -7 0.09533 0.76092  12
   4   1  -7 -0.2703 0.74989   6
   4   1  -7 2.27306 2.32180  19
   4   1  -7 2.63427 1.31991  26
   4   1  -7 0.12064 0.42568   3
   3   1  -7 0.52592 1.01717   6
   3   1  -7 2.03332 1.32642  10
   3   1  -7 0.92899 0.48454   3
   3   1  -7 2.95152 1.65516   2
   3   1  -7 2.03608 1.31990   4
   3   1  -7 0.05791 1.02666  12
   2   1  -7 152.126 11.9682   4
   2   1  -7 144.630 10.4793   3
   2   1  -7 157.753 12.5008  10
   2   1  -7 164.329 13.1311   2
   1   1  -7 37.2444 2.75715   3
   1   1  -7 34.5121 3.63769   4
   1   1  -7 40.4976 4.29092   2
   1   1  -7 35.0519 3.78477  10
  -1  -1   7 32.9155 4.36563  13
  -1  -1   7 33.3796 4.12145   7
   0  -1   7 39.8471 3.01724   3
   0  -1   7 42.2349 5.40418   2
   0  -1   7 43.3288 5.34218  13
   0  -1   7 45.7461 5.37589   7
   1  -1   7 36.1471 4.90178   7
   1  -1   7 38.2372 5.26228   2
   1  -1   7 38.0477 5.02812  13
   1  -1   7 36.0132 2.69899   3
   2  -1   7 369.383 28.7735   7
   2  -1   7 329.466 34.0927  26
   2  -1   7 371.249 29.5900  13
   2  -1   7 391.987 25.3311   3
   2  -1   7 418.127 31.5336   2
   3  -1   7 77.5475 7.11420  17
   3  -1   7 103.534 6.65339   3
   3  -1   7 88.8113 7.72498  16
   3  -1   7 103.868 9.64126   2
   3  -1   7 92.8299 10.2807  26
   3  -1   7 107.166 9.56524   7
   3  -1   7 92.8270 9.57497  13
   4  -1   7 5.45405 2.85690  13
   4  -1   7 6.82685 2.31148  16
   4  -1   7 5.29719 1.80089  17
   4  -1   7 5.34751 3.08789  26
   4  -1   7 6.77180 3.00373   7
   5  -1   7 11.3744 3.64438  22
   5  -1   7 11.5629 2.25236  16
   5  -1   7 20.3125 2.03963  17
   5  -1   7 11.8059 3.00090  26
   5  -1   7 8.95780 2.82044  21
   6  -1   7 3.18126 1.35668  17
   6  -1   7 5.41437 2.04965  21
   6  -1   7 3.25166 2.48906  22
   6  -1   7 5.69870 1.43211  26
   6  -1   7 5.36953 1.05263  16
   9   0  -7 69.5150 7.91961  20
   8   0  -7 0.29877 0.75701  17
   8   0  -7 -2.0846 3.23468  20
   8   0  -7 -1.1630 1.41326  19
   7   0  -7 24.8908 2.56501  17
   7   0  -7 29.8630 2.50188  16
   7   0  -7 21.4037 3.29013  26
   7   0  -7 26.5196 3.56110  19
   7   0  -7 20.8429 4.70524  20
   6   0  -7 278.828 23.3250  19
   6   0  -7 328.981 29.7820  20
   6   0  -7 283.555 19.3028  17
   6   0  -7 287.517 25.2669  26
   6   0  -7 229.938 21.6341   4
   6   0  -7 230.054 22.5325  10
   6   0  -7 311.063 19.8088  16
   5   0  -7 5.37775 1.28627  17
   5   0  -7 6.86384 2.74101  19
   5   0  -7 5.39641 1.38586   6
   5   0  -7 5.00289 1.82465  26
   5   0  -7 4.02607 1.65722   2
   5   0  -7 5.99479 1.54751  16
   5   0  -7 3.09331 0.62309   3
   5   0  -7 5.03110 2.00499  10
   5   0  -7 5.50984 1.40789  12
   5   0  -7 3.56721 1.79993   4
   4   0  -7 191.589 19.0610  26
   4   0  -7 218.697 11.3982   6
   4   0  -7 230.792 11.3955  12
   4   0  -7 222.080 17.6902   2
   4   0  -7 186.981 17.6343  19
   4   0  -7 201.638 14.9678  16
   4   0  -7 223.234 17.1837  10
   4   0  -7 216.689 14.3526   3
   4   0  -7 220.509 16.4848   4
   3   0  -7 43.2878 2.81961  12
   3   0  -7 40.3039 3.03392   3
   3   0  -7 37.6499 4.31008   2
   3   0  -7 43.5563 2.81104   6
   3   0  -7 44.9081 4.34620  10
   3   0  -7 41.0033 4.10029   4
   2   0  -7 39.8538 3.95292   4
   2   0  -7 43.5868 4.33428   2
   2   0  -7 36.4027 2.81859   3
   2   0  -7 36.9473 4.06272  10
   1   0  -7 25.7172 3.35493  10
   1   0  -7 26.7067 2.23980   1
   1   0  -7 25.7369 3.23028   4
   1   0  -7 32.9689 3.68152   2
   1   0  -7 31.4619 2.18310   3
  -1   0   7 19.9104 2.30384   1
   0   0  -7 2.84983 0.66291   3
   0   0  -7 3.67947 2.15369   2
   0   0   7 2.52446 0.55250   3
   0   0   7 0.40130 2.20382   2
   1   0   7 30.3834 2.36812   3
   1   0   7 33.8287 4.79905   2
   2   0   7 19.8880 3.80492   2
   2   0   7 16.9058 1.52564   3
   2   0   7 18.4250 4.24265  26
   3   0   7 1.90748 0.48986   3
   3   0   7 1.96671 2.18049  13
   3   0   7 4.68703 2.38707  16
   3   0   7 2.07572 1.98966   7
   3   0   7 2.29013 2.26854   2
   3   0   7 1.05503 3.21558  26
   4   0   7 1.74211 1.30690  17
   4   0   7 2.06066 3.21411  26
   4   0   7 4.00196 1.73311  16
   5   0   7 8.90070 2.69066  21
   5   0   7 8.08577 2.91785  26
   5   0   7 9.06085 2.19246  16
   5   0   7 9.61992 3.47392  22
   5   0   7 10.3289 1.65413  17
   6   0   7 10.4814 2.08405  22
   6   0   7 9.88725 1.93515  26
   6   0   7 8.34565 1.39317  16
   6   0   7 7.19757 1.58391  17
   9  -1  -7 10.1586 3.08138  20
   8  -1  -7 8.90253 2.14018  19
   8  -1  -7 8.25989 2.92063  20
   8  -1  -7 12.1528 1.27547  17
   7  -1  -7 -0.2998 0.71340  16
   7  -1  -7 0.33086 1.76528  19
   7  -1  -7 -0.1254 2.31134  20
   7  -1  -7 0.38260 1.05992  17
   7  -1  -7 -0.8427 1.55929  18
   6  -1  -7 9.06131 2.59703  18
   6  -1  -7 15.3426 3.23512  20
   6  -1  -7 5.75681 1.69114   2
   6  -1  -7 9.92573 2.68874  10
   6  -1  -7 9.06209 1.89074  26
   6  -1  -7 10.7269 1.49278  16
   6  -1  -7 7.46315 2.35373   4
   6  -1  -7 10.4568 3.13959  19
   6  -1  -7 13.2758 1.58921  17
   5  -1  -7 11.5858 2.31272  10
   5  -1  -7 10.8951 2.21631   4
   5  -1  -7 9.82134 3.14883  20
   5  -1  -7 7.35659 1.83975  26
   5  -1  -7 7.87910 0.95205   3
   5  -1  -7 13.4907 1.52323  17
   5  -1  -7 11.3554 2.58080  18
   5  -1  -7 5.26436 1.69547   2
   5  -1  -7 9.36571 2.90031  19
   5  -1  -7 9.77417 2.10143  25
   5  -1  -7 8.83655 1.54409  16
   4  -1  -7 50.6051 5.78742  19
   4  -1  -7 52.8415 3.94283   3
   4  -1  -7 52.0643 5.67188  26
   4  -1  -7 60.1874 5.20923   4
   4  -1  -7 61.1961 5.43336  10
   4  -1  -7 55.3680 4.45599  16
   4  -1  -7 59.2424 5.47183   2
   3  -1  -7 259.966 20.2918   2
   3  -1  -7 248.842 18.9762   4
   3  -1  -7 231.809 16.5912   3
   3  -1  -7 248.155 19.7735  10
   2  -1  -7 259.614 21.9369  10
   2  -1  -7 275.813 18.5486   3
   2  -1  -7 262.169 21.0575   4
   2  -1  -7 298.268 22.5944   2
   1  -1  -7 996.043 63.4291   3
   1  -1  -7 834.034 73.1481  10
   1  -1  -7 887.128 70.2460   4
   1  -1  -7 1071.01 75.6177   2
   0  -1  -7 1.74824 2.04668   2
   0  -1  -7 1.01333 0.56377   3
   2   1   7 20.6060 4.49077  26
   3   1   7 30.7130 5.34656  26
   3   1   7 31.6681 3.90279  16
   4   1   7 34.2205 5.66141  26
   4   1   7 40.1941 4.27422  16
   5   1   7 2.18704 2.98321  22
   5   1   7 1.89986 2.78172  26
   5   1   7 0.92455 1.19883  17
   5   1   7 -0.9148 1.93777  16
   6   1   7 65.9215 6.63131  26
   6   1   7 71.5414 6.67640  22
   6   1   7 70.4358 5.03626  17
   6   1   7 63.9242 5.12115  16
   9  -2  -7 22.7647 3.48284  20
   9  -2  -7 11.6632 2.63400  19
   8  -2  -7 12.2276 2.77736  18
   8  -2  -7 9.19424 3.78678  20
   8  -2  -7 18.2499 2.83254  19
   8  -2  -7 14.6566 1.45681  17
   7  -2  -7 14.8950 1.61137  17
   7  -2  -7 9.99011 3.12463  19
   7  -2  -7 16.2145 3.31300  18
   7  -2  -7 11.4217 3.87960  20
   6  -2  -7 129.146 12.9972  20
   6  -2  -7 110.151 10.6253  18
   6  -2  -7 113.004 10.1178  19
   6  -2  -7 113.950 8.00778  17
   6  -2  -7 94.7737 10.0695  10
   6  -2  -7 105.079 9.81643   4
   6  -2  -7 116.484 8.05752  16
   5  -2  -7 6.40870 2.52759  18
   5  -2  -7 5.77912 2.28483  10
   5  -2  -7 6.64449 1.98212  25
   5  -2  -7 3.98406 0.61645   3
   5  -2  -7 4.70253 1.36611  26
   5  -2  -7 5.50468 2.69739  19
   5  -2  -7 5.58166 2.80681  20
   5  -2  -7 8.61426 1.18956  17
   5  -2  -7 4.67070 1.10603  16
   5  -2  -7 2.20044 1.10082   2
   5  -2  -7 3.79546 2.13661   4
   4  -2  -7 469.201 33.7380   4
   4  -2  -7 435.825 36.1151  19
   4  -2  -7 428.665 29.8615   3
   4  -2  -7 425.035 30.8742  16
   4  -2  -7 449.524 35.8083   2
   4  -2  -7 488.290 35.2080  10
   4  -2  -7 437.901 30.2202  17
   3  -2  -7 79.4822 5.68859   3
   3  -2  -7 77.8013 7.56668  10
   3  -2  -7 84.1425 7.44103   2
   3  -2  -7 87.2359 7.36709   4
   2  -2  -7 36.4154 4.45539  10
   2  -2  -7 40.3150 4.33504   4
   2  -2  -7 50.0362 4.61887   2
   2  -2  -7 41.7289 3.10328   3
   1  -2  -7 10.1611 2.11799   2
   1  -2  -7 9.53045 2.61516  10
   1  -2  -7 8.74937 2.49799   4
   1  -2  -7 8.30616 0.92834   3
   0  -2  -7 6.66081 0.96162   3
   0  -2  -7 7.96287 2.57573   2
  -1  -2  -7 130.168 13.4045  26
  -2  -2  -7 35.4172 5.72061  26
   2   2   7 26.7900 5.21046  26
   3   2   7 4.04992 3.59109  26
   4   2   7 135.289 13.6280  26
   4   2   7 128.763 10.0481  16
   5   2   7 2.00902 1.48142  16
   5   2   7 1.98603 2.06887  26
   5   2   7 3.89102 2.12913  22
   6   2   7 4.54968 0.83728  16
   6   2   7 4.86091 1.15860  26
   9  -3  -7 3.46900 2.68656  20
   9  -3  -7 2.27129 2.24628  19
   8  -3  -7 22.2083 3.97719  19
   8  -3  -7 24.4306 3.57066  18
   8  -3  -7 27.0551 5.17075  20
   8  -3  -7 31.0211 2.12997  17
   7  -3  -7 25.8620 2.23615  17
   7  -3  -7 30.4864 3.81779  19
   7  -3  -7 26.2787 4.58697  20
   7  -3  -7 20.5881 3.91110  18
   6  -3  -7 0.49243 2.15477   4
   6  -3  -7 6.21193 2.25085  25
   6  -3  -7 2.55185 2.70487  19
   6  -3  -7 3.74076 0.94722  17
   6  -3  -7 2.69419 2.94697  20
   6  -3  -7 3.67880 2.05373  18
   6  -3  -7 3.90110 2.38276  10
   5  -3  -7 4.98142 1.15099   2
   5  -3  -7 6.33674 2.07908  10
   5  -3  -7 5.24954 0.60882   3
   5  -3  -7 6.65946 2.09421   4
   5  -3  -7 8.10788 2.67133  19
   5  -3  -7 8.09805 1.08776  16
   5  -3  -7 9.25518 1.16246  17
   5  -3  -7 9.04160 1.67071  25
   5  -3  -7 8.20012 2.83048  18
   4  -3  -7 17.8502 2.95408  19
   4  -3  -7 19.9620 3.27538  18
   4  -3  -7 16.4225 2.25667  25
   4  -3  -7 15.7816 3.16317  10
   4  -3  -7 14.6841 1.58596  17
   4  -3  -7 14.5062 2.17956  26
   4  -3  -7 12.0320 2.03742   2
   4  -3  -7 17.9319 3.10982   4
   4  -3  -7 21.2027 3.43841  24
   4  -3  -7 15.3401 1.66836  16
   4  -3  -7 12.1188 1.16796   3
   3  -3  -7 84.1041 7.18896   2
   3  -3  -7 79.4054 7.61037  10
   3  -3  -7 75.2369 5.45742   3
   3  -3  -7 77.2629 7.28248   4
   2  -3  -7 4.42424 0.70756   3
   2  -3  -7 7.03536 2.54352   4
   2  -3  -7 5.82133 1.58632   2
   2  -3  -7 6.72107 2.67063  10
   1  -3  -7 74.3041 5.30840   3
   1  -3  -7 70.3631 7.34637  10
   1  -3  -7 83.4749 7.39428   2
   1  -3  -7 69.6581 7.05324   4
   0  -3  -7 94.0681 10.7355  26
   0  -3  -7 119.416 10.4060   2
   0  -3  -7 112.852 7.66622   3
  -1  -3  -7 103.167 9.79793  26
   1   3   7 77.9295 9.55949  26
  -2  -3  -7 112.718 11.8415  26
   2   3   7 94.8129 11.3321  26
  -3  -3  -7 81.8547 9.90195  26
   3   3   7 59.7277 8.86198  26
   4   3   7 0.00892 2.50965  26
   4   3   7 2.76644 2.54143  16
   5   3   7 10.6846 2.27139  16
   5   3   7 13.3111 3.24234  26
   5   3   7 6.24164 2.49734  22
   9  -4  -7 92.4013 8.20679  19
   9  -4  -7 89.9740 10.1282  20
   8  -4  -7 98.6864 8.99421  19
   8  -4  -7 93.7565 11.4541  20
   8  -4  -7 101.081 9.23364  18
   7  -4  -7 2.03453 2.73185  19
   7  -4  -7 0.87939 3.13767  20
   7  -4  -7 0.95997 2.85791  18
   7  -4  -7 1.06696 0.55754  17
   7  -4  -7 0.36700 1.56306  25
   6  -4  -7 45.6744 4.91127  25
   6  -4  -7 47.6893 3.42440  17
   6  -4  -7 52.5139 6.22626  18
   6  -4  -7 40.5568 5.33403   4
   6  -4  -7 49.1295 5.10681  19
   6  -4  -7 35.3435 5.58274  10
   5  -4  -7 66.5276 6.54720  19
   5  -4  -7 56.2931 6.09119   4
   5  -4  -7 60.1485 6.99475  24
   5  -4  -7 65.1149 7.20561  18
   5  -4  -7 61.8812 6.42084  10
   5  -4  -7 66.9282 4.65740  17
   5  -4  -7 60.8973 5.74043  25
   4  -4  -7 43.3665 4.80213  19
   4  -4  -7 47.2022 5.17006  10
   4  -4  -7 39.4825 5.64721  18
   4  -4  -7 43.7634 3.22501  16
   4  -4  -7 45.4087 5.63721  24
   4  -4  -7 44.8118 4.25999  25
   4  -4  -7 46.0160 4.88212   4
   4  -4  -7 38.9584 2.87392   3
   4  -4  -7 34.1759 3.78862   2
   4  -4  -7 38.5793 3.11588  17
   3  -4  -7 1.48180 2.27186   4
   3  -4  -7 0.23006 1.17939   2
   3  -4  -7 -0.6725 2.76745  18
   3  -4  -7 0.79994 1.72646  10
   3  -4  -7 0.61171 1.01001  17
   3  -4  -7 -0.5281 1.18436  16
   3  -4  -7 0.41750 0.33152   3
   2  -4  -7 27.8337 4.64089  26
   2  -4  -7 37.1926 2.68524   3
   2  -4  -7 39.2275 4.18447   2
   2  -4  -7 32.9048 4.35555  10
   2  -4  -7 32.8785 4.20302   4
   1  -4  -7 21.1652 1.86608   3
   1  -4  -7 21.1821 2.87651  16
   1  -4  -7 28.3291 3.80646   2
   1  -4  -7 20.1754 3.69460   4
   1  -4  -7 22.2877 3.97304  10
   1  -4  -7 20.3120 3.74379  26
   0  -4  -7 8.71113 2.70197  16
   0  -4  -7 7.35665 2.78425   2
   0  -4  -7 9.39653 1.20345   3
   0  -4  -7 7.31632 3.35070  26
  -1  -4  -7 55.9371 7.50031  26
  -2  -4  -7 0.08057 2.61677  26
   2   4   7 0.20444 2.50380  26
  -3  -4  -7 77.4653 9.61632  26
   3   4   7 58.0216 8.79983  26
  -4  -4  -7 44.6640 6.04271  26
   4   4   7 37.7363 5.65018  26
   5   4   7 15.1966 2.86346  26
   5   4   7 19.5392 2.24685  16
   9  -5  -7 2.85635 1.72409  19
   9  -5  -7 3.61332 1.92308  20
   8  -5  -7 1.27165 1.84299  19
   8  -5  -7 2.91985 2.15112  18
   8  -5  -7 1.04949 2.06887  20
   7  -5  -7 55.6831 6.65024  18
   7  -5  -7 46.4424 4.75173  25
   7  -5  -7 54.3341 5.52521  19
   6  -5  -7 71.5006 7.09951  19
   6  -5  -7 59.0703 6.86928   4
   6  -5  -7 65.5527 6.36330  25
   6  -5  -7 73.9883 7.85807  18
   6  -5  -7 69.5787 4.81006  17
   5  -5  -7 0.08516 2.28448  19
   5  -5  -7 1.09940 2.98000  24
   5  -5  -7 1.25604 2.08634  10
   5  -5  -7 1.17281 1.41257  25
   5  -5  -7 0.00624 0.63514  17
   5  -5  -7 1.67286 2.13659   4
   5  -5  -7 3.08634 3.03341  18
   4  -5  -7 240.657 22.9530   2
   4  -5  -7 309.898 23.7338  19
   4  -5  -7 294.211 24.9408  18
   4  -5  -7 285.112 19.9297  16
   4  -5  -7 299.174 23.7843  10
   4  -5  -7 287.469 24.2244  24
   4  -5  -7 289.590 22.7720   4
   4  -5  -7 306.991 19.6959  17
   4  -5  -7 295.006 21.8434  25
   3  -5  -7 5.22178 2.77394  10
   3  -5  -7 7.66116 2.04297  25
   3  -5  -7 4.73928 0.65216   3
   3  -5  -7 8.94649 1.29276  17
   3  -5  -7 4.50008 3.15311  18
   3  -5  -7 7.06904 1.53905  16
   3  -5  -7 4.58215 2.63212   4
   3  -5  -7 7.14033 2.92382  24
   3  -5  -7 4.77679 1.50048   2
   3  -5  -7 5.82724 1.94633  26
   2  -5  -7 41.9885 3.43666  17
   2  -5  -7 36.0712 5.16103  18
   2  -5  -7 34.1124 5.19445  26
   2  -5  -7 43.1617 5.21736  24
   2  -5  -7 48.6264 4.73892   2
   2  -5  -7 43.7837 3.95467  16
   2  -5  -7 41.8878 5.45504  10
   2  -5  -7 37.0450 4.22661  25
   2  -5  -7 43.7039 5.59563   4
   2  -5  -7 41.0601 3.07679   3
   1  -5  -7 30.6822 2.53258   3
   1  -5  -7 32.4760 3.17059  17
   1  -5  -7 28.5882 4.59638  26
   1  -5  -7 33.6020 4.64271   4
   1  -5  -7 35.0773 3.71089  16
   1  -5  -7 32.7813 4.35677   2
   1  -5  -7 32.1480 4.68567  10
   1  -5  -7 29.4027 3.36204  25
   0  -5  -7 42.8452 4.97425  16
   0  -5  -7 50.5620 6.30337  26
   0  -5  -7 40.6850 5.11011  10
   0  -5  -7 40.7452 3.31169   3
   0  -5  -7 36.7932 4.48049  25
   0  -5  -7 46.4241 5.77238   2
   0  -5  -7 40.9367 4.91616   4
  -1  -5  -7 3.03737 2.11234  16
  -1  -5  -7 -0.4063 2.15583  25
  -1  -5  -7 0.80761 2.55207  26
  -2  -5  -7 38.6174 6.27471  26
   2   5   7 26.3613 5.65102  26
  -3  -5  -7 282.528 23.3091  26
   3   5   7 202.716 22.6547  26
  -4  -5  -7 5.60510 3.72444  26
   4   5   7 7.55273 3.49100  26
   9  -6  -7 5.07922 1.80359  19
   9  -6  -7 2.72701 1.71544  18
   8  -6  -7 10.9978 3.29847  18
   8  -6  -7 8.44468 2.73944  19
   7  -6  -7 30.5284 4.86308  18
   7  -6  -7 38.8079 4.48559  25
   7  -6  -7 40.0291 4.45146  19
   6  -6  -7 7.66159 3.28412  24
   6  -6  -7 11.1906 2.36962  19
   6  -6  -7 10.2304 3.43498  18
   6  -6  -7 11.0328 2.67528  25
   5  -6  -7 96.8564 9.82432  10
   5  -6  -7 106.199 8.96457  25
   5  -6  -7 113.075 10.6687  18
   5  -6  -7 116.251 9.74157  19
   5  -6  -7 89.3946 9.34643   4
   5  -6  -7 98.2717 9.82022  24
   5  -6  -7 113.895 7.42695  17
   4  -6  -7 5.12716 1.73165  25
   4  -6  -7 4.27090 1.16041  17
   4  -6  -7 4.83152 2.26762  24
   4  -6  -7 3.51055 2.00002   4
   4  -6  -7 4.32230 2.09460  10
   4  -6  -7 2.66616 2.24813  18
   3  -6  -7 1.86358 2.73903  24
   3  -6  -7 -0.8037 1.97832  25
   3  -6  -7 2.02254 1.50245  16
   3  -6  -7 0.98908 2.96067  18
   3  -6  -7 0.03425 0.28458   3
   3  -6  -7 2.23832 2.42246  10
   3  -6  -7 0.32002 1.24714   2
   3  -6  -7 -0.2373 1.04365  17
   3  -6  -7 1.92947 1.97866  26
   3  -6  -7 -0.4696 2.18515   4
   2  -6  -7 1.15709 0.49008   3
   2  -6  -7 1.39473 2.48726  10
   2  -6  -7 -0.6287 1.41503   2
   2  -6  -7 -0.5172 2.48041  24
   2  -6  -7 -0.5438 1.98086  25
   2  -6  -7 1.72971 1.58161  16
   2  -6  -7 -1.0763 2.93388  18
   2  -6  -7 2.24914 2.47992   4
   2  -6  -7 0.04401 2.18209  26
   2  -6  -7 0.88214 1.18132  17
   1  -6  -7 141.838 10.1547  16
   1  -6  -7 129.687 11.5215   4
   1  -6  -7 127.171 9.21247   3
   1  -6  -7 122.191 10.6060  25
   1  -6  -7 120.143 13.0184  26
   1  -6  -7 141.906 9.49750  17
   1  -6  -7 131.595 12.0253  10
   1  -6  -7 144.518 12.1742   2
   0  -6  -7 26.8259 4.84001  26
   0  -6  -7 28.4895 2.99957  17
   0  -6  -7 14.0348 3.67298   4
   0  -6  -7 16.0584 3.93591  10
   0  -6  -7 28.5571 3.34129  25
   0  -6  -7 20.5266 4.21798   2
   0  -6  -7 31.2969 3.75546  16
   0  -6  -7 23.7830 2.12286   3
  -1  -6  -7 132.552 10.1969  16
  -1  -6  -7 110.260 9.70676  25
  -1  -6  -7 128.829 13.2526  26
  -2  -6  -7 170.009 14.2188  25
  -2  -6  -7 197.252 17.8470  26
  -3  -6  -7 1.40024 3.80287  26
   3   6   7 -0.5790 3.61612  26
  -4  -6  -7 0.08655 2.20198  26
   4   6   7 0.63268 2.12438  26
   9  -7  -7 9.01857 1.92610  18
   9  -7  -7 9.19336 1.89969  19
   8  -7  -7 129.521 12.0620  18
   8  -7  -7 138.346 11.7745  19
   7  -7  -7 48.5311 5.83709  19
   7  -7  -7 55.0892 6.61661  18
   7  -7  -7 53.7922 5.39977  25
   6  -7  -7 176.472 15.7007  18
   6  -7  -7 166.478 15.2156  24
   6  -7  -7 171.079 13.6396  25
   6  -7  -7 175.036 14.6508  19
   5  -7  -7 1.94929 2.45995  10
   5  -7  -7 3.62039 2.43680   4
   5  -7  -7 1.98852 0.56532  17
   5  -7  -7 1.58599 2.96974  18
   5  -7  -7 2.54319 2.43470  25
   5  -7  -7 0.84029 3.27539  24
   4  -7  -7 14.3905 2.95170  18
   4  -7  -7 14.2957 2.99988  24
   4  -7  -7 10.1741 2.73137  10
   4  -7  -7 11.0088 2.76200   4
   4  -7  -7 12.4246 1.42026  17
   4  -7  -7 14.2881 2.87702  25
   3  -7  -7 10.9929 2.64605  25
   3  -7  -7 8.48161 2.47593   4
   3  -7  -7 10.9829 1.34658  16
   3  -7  -7 8.75604 2.56151  10
   3  -7  -7 6.36440 1.48865   2
   3  -7  -7 9.68659 1.42915  17
   3  -7  -7 9.72310 3.20040  24
   3  -7  -7 12.6964 2.73797  18
   3  -7  -7 6.60420 0.71473   3
   2  -7  -7 146.265 12.8573  18
   2  -7  -7 140.501 9.74454  17
   2  -7  -7 134.053 12.1554  24
   2  -7  -7 119.967 11.8188   4
   2  -7  -7 144.814 12.1339   2
   2  -7  -7 112.438 12.2348  10
   2  -7  -7 138.305 10.8568  25
   2  -7  -7 125.204 12.9680  26
   2  -7  -7 152.451 10.1035  16
   1  -7  -7 35.5641 3.01278  17
   1  -7  -7 29.9624 3.42401  16
   1  -7  -7 32.3379 4.80772  26
   1  -7  -7 29.0491 3.65749  25
   1  -7  -7 25.1530 4.48229   4
   1  -7  -7 32.5726 4.55595  18
   1  -7  -7 21.7993 4.49722  10
   0  -7  -7 3.13047 1.75227  25
   0  -7  -7 -0.0173 3.36100  26
   0  -7  -7 2.30677 1.90487  17
   0  -7  -7 0.31553 2.46220  16
  -1  -7  -7 31.5783 4.16433  16
  -1  -7  -7 29.7433 5.54731  26
  -1  -7  -7 27.0223 3.64380  25
  -2  -7  -7 15.6618 2.72254  16
  -2  -7  -7 11.4150 3.46550  26
  -2  -7  -7 11.3205 2.04836  25
  -3  -7  -7 0.98376 1.96594  16
  -3  -7  -7 0.78646 3.59617  26
   3   7   7 -0.0682 3.36184  26
   8  -8  -7 -0.2788 1.71408  18
   8  -8  -7 0.74631 2.11453  19
   7  -8  -7 22.7350 3.16421  18
   7  -8  -7 15.9410 2.86431  25
   7  -8  -7 14.5615 3.01394  19
   6  -8  -7 2.63504 2.91604  18
   6  -8  -7 7.53236 3.28051  24
   6  -8  -7 8.26541 1.99698  25
   5  -8  -7 47.7562 6.52712  24
   5  -8  -7 53.2392 5.00492  25
   5  -8  -7 51.4338 6.49026  18
   4  -8  -7 4.51204 1.96883  25
   4  -8  -7 2.53825 0.83720  17
   4  -8  -7 4.01274 3.27782  24
   4  -8  -7 1.02992 2.91196  18
   3  -8  -7 425.661 33.4806  18
   3  -8  -7 377.643 26.6563  17
   3  -8  -7 369.525 32.2657  24
   3  -8  -7 397.302 29.5973  25
   2  -8  -7 72.7646 5.65935  16
   2  -8  -7 64.4017 7.41992  26
   2  -8  -7 66.0822 7.27708  24
   2  -8  -7 73.6196 6.67926  25
   2  -8  -7 68.9954 7.73387  18
   2  -8  -7 70.8222 5.38950  17
   1  -8  -7 46.0530 4.98497  25
   1  -8  -7 43.1486 5.07116  18
   1  -8  -7 42.6765 3.88848  17
   1  -8  -7 42.7976 4.25999  16
   1  -8  -7 27.7174 4.99671  26
   0  -8  -7 3.89151 3.42192  26
   0  -8  -7 2.59258 2.46280  25
   0  -8  -7 2.03434 1.87676  17
   0  -8  -7 5.25303 2.33941  18
   0  -8  -7 5.58123 2.79173  16
  -1  -8  -7 0.09237 1.91329  18
  -1  -8  -7 -0.5381 1.52049  25
  -1  -8  -7 1.43005 3.24352  26
  -1  -8  -7 -0.7146 2.58624  16
  -2  -8  -7 4.95231 2.02792  16
  -2  -8  -7 2.47557 3.49473  26
  -2  -8  -7 2.80356 1.89013  25
  -3  -8  -7 3.51964 2.04393  26
   8  -9  -7 33.4987 3.82694  18
   7  -9  -7 3.16946 2.16593  25
   7  -9  -7 2.63175 1.77137  18
   6  -9  -7 63.3064 5.42886  25
   6  -9  -7 56.1349 6.07812  18
   6  -9  -7 57.1613 6.77507  24
   5  -9  -7 11.3349 3.12507  18
   5  -9  -7 21.1497 2.72846  25
   5  -9  -7 15.3628 3.10144  24
   4  -9  -7 31.7002 4.49990  24
   4  -9  -7 32.9711 2.57806  17
   4  -9  -7 31.7276 4.15421  25
   4  -9  -7 35.9162 4.51977  18
   3  -9  -7 85.3494 8.57756  24
   3  -9  -7 86.0492 8.53830  18
   3  -9  -7 81.9141 6.11442  17
   3  -9  -7 88.5080 7.72745  25
   2  -9  -7 0.28249 1.05925  16
   2  -9  -7 0.80484 1.73323  25
   2  -9  -7 -0.7340 2.54730  18
   2  -9  -7 0.79076 1.29613  17
   1  -9  -7 -1.9521 2.08171  26
   1  -9  -7 0.29049 1.51123  16
   1  -9  -7 0.91717 1.12832  17
   1  -9  -7 2.05202 2.38483  25
   0  -9  -7 185.018 13.2821  17
   0  -9  -7 192.507 14.6482  25
   0  -9  -7 168.159 17.6460  26
   0  -9  -7 209.516 13.7974  16
  -1  -9  -7 31.4224 3.86664  25
  -1  -9  -7 28.1139 4.29103  26
  -1  -9  -7 33.8372 3.24430  16
  -1  -9  -7 30.0254 2.86919  17
  -2  -9  -7 9.84914 2.09531  26
  -2  -9  -7 9.30843 1.49966  16
   7 -10  -7 9.27738 1.73421  25
   7 -10  -7 5.57546 2.21907  18
   6 -10  -7 75.5383 7.09623  24
   6 -10  -7 72.4941 7.25167  18
   5 -10  -7 52.5311 5.84766  24
   5 -10  -7 54.5585 5.59351  18
   5 -10  -7 61.4945 5.64050  25
   4 -10  -7 82.6375 8.64160  24
   4 -10  -7 83.7329 8.04544  18
   4 -10  -7 93.2022 7.43577  25
   3 -10  -7 12.8203 3.10550  25
   3 -10  -7 18.3549 3.04363  24
   3 -10  -7 20.2674 1.93031  17
   2 -10  -7 2.25747 0.88925  17
   2 -10  -7 1.12516 2.50854  25
   1 -10  -7 256.905 17.7077  17
   1 -10  -7 256.493 17.7559  16
   0 -10  -7 1.63611 1.04768  17
   0 -10  -7 2.11907 1.10113  16
   0 -10  -7 1.92290 1.46659  26
   0 -10  -7 2.42467 2.12402  25
  -1 -10  -7 0.45035 1.36214  26
  -1 -10  -7 -0.4844 0.91771  16
  -1 -10  -7 0.55448 0.83780  17
  -1 -10  -7 0.19554 1.14019  25
   7 -11  -7 -1.6121 1.47065  25
   6 -11  -7 3.89505 1.80842  24
   6 -11  -7 4.81230 1.40676  25
   5 -11  -7 44.0564 5.08881  24
   5 -11  -7 50.4699 4.40346  25
   4 -11  -7 207.321 18.5274  24
   4 -11  -7 229.096 16.7479  25
   3 -11  -7 70.4735 6.19443  25
   3 -11  -7 55.5853 6.23165  24
   3 -11  -7 70.2953 4.62775  17
   2 -11  -7 9.44519 1.19449  17
   2 -11  -7 13.5237 2.11496  25
   1 -11  -7 63.9493 4.68043  17
   1 -11  -7 62.9604 5.43795  25
   0 -11  -7 5.40171 1.38027  25
   0 -11  -7 5.77025 0.88276  17
   5 -12  -7 56.2179 4.13151  25
   5 -12  -7 37.8887 4.64202  24
   4 -12  -7 7.33174 1.48219  25
   4 -12  -7 6.68905 1.73576  24
   3 -12  -7 48.4700 4.26635  25
   2 -12  -7 43.5040 3.83456  25
   0 -12   8 0.32027 1.16851  17
   1 -12   8 18.6965 1.86299  17
   2 -12   8 1.27526 1.77877  23
  -2 -11   8 32.1028 3.07286  24
  -2 -11   8 19.2507 2.36696  16
  -2 -11   8 21.3212 3.07351  26
  -1 -11   8 9.99845 2.01044  26
  -1 -11   8 12.0896 1.92472  16
  -1 -11   8 14.8741 2.20779  24
  -1 -11   8 11.3762 1.84520  17
   0 -11   8 64.5326 5.61390  24
   0 -11   8 60.0372 4.47252  16
   0 -11   8 54.6705 4.73178  17
   1 -11   8 13.6290 3.06793  23
   1 -11   8 8.72700 1.82592  17
   2 -11   8 2.35289 2.68645  23
   2 -11   8 2.79092 1.15233  17
   3 -11   8 40.5500 5.82445  23
   4 -11   8 1.73357 1.51726  23
  -3 -10   8 5.13097 1.99549  24
  -3 -10   8 2.32493 2.33243  26
  -3 -10   8 3.65366 1.90046  16
  -2 -10   8 3.44048 2.18662  16
  -2 -10   8 5.43097 2.21411  24
  -2 -10   8 4.42689 2.73567  26
  -1 -10   8 34.0274 4.70225  26
  -1 -10   8 29.2056 3.49324  16
  -1 -10   8 30.9553 3.91905  24
   0 -10   8 27.0455 2.94442  17
   0 -10   8 16.4624 3.37201  24
   0 -10   8 23.4706 3.21987  16
   0 -10   8 25.7605 3.97968  26
   0 -10   8 31.6150 4.76670  23
   1 -10   8 12.8236 2.55889  26
   1 -10   8 17.3976 4.48082  23
   1 -10   8 15.3128 2.08277  17
   1 -10   8 11.1726 2.03388  16
   2 -10   8 45.0022 6.21244  23
   2 -10   8 43.8390 4.00035  17
   3 -10   8 29.3052 4.08253  23
   3 -10   8 17.1673 3.88383  22
   3 -10   8 22.6179 2.26733  17
   4 -10   8 10.1670 2.48447  23
   4 -10   8 7.66347 2.18883  22
   4   9  -8 42.9284 4.78241  26
  -4  -9   8 39.1888 5.72091  26
  -4  -9   8 33.7055 4.14955  16
  -4  -9   8 40.6658 4.49149  24
  -3  -9   8 2.44888 3.09382  26
  -3  -9   8 3.28249 2.55671  16
  -2  -9   8 0.91175 4.01916  26
  -2  -9   8 0.55208 3.25399  16
  -1  -9   8 168.216 11.7225  16
  -1  -9   8 116.164 14.7684  23
  -1  -9   8 150.725 10.6417  17
   0  -9   8 46.9360 6.46689  26
   0  -9   8 38.6569 4.51786  17
   0  -9   8 37.4917 4.62633  16
   0  -9   8 32.7470 4.36212  24
   0  -9   8 43.3004 6.00235  23
   1  -9   8 29.3314 3.51932  17
   1  -9   8 37.4997 5.11672  26
   1  -9   8 25.2660 5.57698  23
   1  -9   8 35.7638 3.85204  16
   2  -9   8 50.6537 7.78511  23
   2  -9   8 50.5760 4.08803  17
   2  -9   8 43.1848 3.91644  16
   3  -9   8 5.14892 3.36753  22
   3  -9   8 8.96051 3.76757  23
   3  -9   8 6.85736 1.58227  17
   4  -9   8 44.4816 3.64410  17
   4  -9   8 49.9598 5.74494  22
   4  -9   8 52.7347 5.89324  23
   5  -9   8 2.87437 1.85688  22
   5   8  -8 87.5021 8.81842  26
  -5  -8   8 96.1301 10.2692  26
   4   8  -8 28.2338 4.12177  26
  -4  -8   8 28.5420 5.20472  26
  -3  -8   8 11.8849 5.03012  26
  -2  -8   8 181.002 15.3417  16
  -2  -8   8 226.960 19.7879  26
  -1  -8   8 3.69640 3.51238  23
  -1  -8   8 1.54026 2.96716  26
  -1  -8   8 0.61645 2.55774  16
   0  -8   8 -3.3749 3.18600  16
   0  -8   8 1.82005 3.48714  26
   0  -8   8 -3.2586 3.88913  23
   0  -8   8 -0.5120 1.48297  17
   1  -8   8 0.60161 3.01997  26
   1  -8   8 1.25733 1.95821  16
   1  -8   8 -0.0362 1.33112  17
   1  -8   8 -0.0751 4.24271  23
   2  -8   8 1.43525 2.30683  26
   2  -8   8 1.48056 1.98105  16
   2  -8   8 3.87479 3.05894  23
   2  -8   8 3.53654 3.39802  22
   2  -8   8 -0.0204 1.71907  17
   3  -8   8 28.7441 5.39615  23
   3  -8   8 38.5332 5.07082  22
   4  -8   8 31.7929 2.90566  17
   4  -8   8 39.4507 4.85504  22
   4  -8   8 27.7757 4.83783  23
   5  -8   8 0.39485 0.51808  17
   5  -8   8 -0.6356 2.06514  22
   6   7  -8 78.0103 8.06494  26
   6   7  -8 84.9350 6.25978  16
   6   7  -8 87.3871 9.07499  20
   5   7  -8 67.6125 6.49989  26
  -5  -7   8 45.4822 7.36988  26
   4   7  -8 1.45515 2.61372  26
  -4  -7   8 -0.8017 4.48729  26
   3   7  -8 0.76908 1.69799  26
  -3  -7   8 0.77332 3.30557  26
  -2  -7   8 6.22308 3.56183  26
  -2  -7   8 6.56745 3.18568  16
  -1  -7   8 12.3578 4.02369  23
  -1  -7   8 5.24458 4.19876   9
  -1  -7   8 17.9397 4.83289  26
  -1  -7   8 12.1298 3.96203  16
  -1  -7   8 5.99925 4.65590  15
   0  -7   8 6.80010 3.43722  16
   0  -7   8 9.76897 1.99427  17
   0  -7   8 13.2799 4.21865  26
   0  -7   8 8.12134 4.08182  23
   1  -7   8 -1.0138 2.23127  13
   1  -7   8 -3.8213 2.59755  16
   1  -7   8 1.39210 3.21286  26
   1  -7   8 0.77251 2.41849   7
   1  -7   8 2.14820 3.96271  23
   2  -7   8 10.4749 2.34773  17
   2  -7   8 14.7777 2.92552  26
   2  -7   8 14.6491 3.76175  23
   2  -7   8 15.4053 3.48599  22
   2  -7   8 10.7945 2.82837  16
   3  -7   8 82.3329 9.24430  22
   3  -7   8 75.7153 6.07299  17
   3  -7   8 78.5024 8.77804  23
   3  -7   8 68.2799 5.97278  16
   3  -7   8 79.8913 7.68060  26
   4  -7   8 1.27176 3.29394  23
   4  -7   8 0.36925 1.33337  17
   4  -7   8 1.70979 2.51680  22
   5  -7   8 2.11869 2.21431  22
   6  -7   8 8.02668 1.99039  22
   6   6  -8 30.3976 4.07266  26
   6   6  -8 32.3682 3.07035  16
   6   6  -8 33.9762 4.52686  20
   5   6  -8 -0.0389 2.50542  26
  -5  -6   8 -1.4237 4.50947  26
   4   6  -8 55.6095 6.09734  26
  -4  -6   8 47.5271 7.53980  26
   3   6  -8 3.06905 1.19619  12
   3   6  -8 0.94828 1.07570   6
   3   6  -8 1.55319 2.40659  26
  -3  -6   8 3.48829 3.56002  15
  -3  -6   8 2.55739 3.18114   9
  -3  -6   8 0.42802 4.58600  26
   2   6  -8 4.97280 1.31236  12
   2   6  -8 4.45974 1.25238   6
  -2  -6   8 5.61199 3.31558  26
  -2  -6   8 5.26599 3.44390  15
  -2  -6   8 3.68899 3.10500   9
  -1  -6   8 41.1056 3.21821   3
  -1  -6   8 36.6651 6.65910  15
  -1  -6   8 57.6654 6.99527  26
  -1  -6   8 38.1117 4.68031  16
  -1  -6   8 39.3023 6.87761   2
  -1  -6   8 35.3268 6.11327   9
   0  -6   8 40.0461 6.23898   2
   0  -6   8 44.7599 3.34976   3
   0  -6   8 41.9095 4.77208  16
   0  -6   8 50.0298 6.17522  26
   1  -6   8 3.01924 2.76687  16
   1  -6   8 2.62990 2.88209   2
   1  -6   8 -0.6323 2.94055  13
   1  -6   8 1.68356 3.19998  26
   1  -6   8 0.89130 0.47614   3
   1  -6   8 2.83166 1.50483  17
   1  -6   8 -0.3474 2.77038   7
   2  -6   8 104.982 10.3517   7
   2  -6   8 128.187 11.2674  26
   2  -6   8 116.596 10.8379  13
   2  -6   8 95.9840 11.3996  23
   2  -6   8 107.755 7.97087  17
   2  -6   8 102.802 11.1890  22
   2  -6   8 98.1002 8.77357  16
   3  -6   8 22.4103 2.65408  17
   3  -6   8 19.3674 3.38926  26
   3  -6   8 18.7910 4.34983  23
   3  -6   8 15.4322 2.65455  16
   3  -6   8 23.0741 4.40644  22
   4  -6   8 2.92684 3.19697  23
   4  -6   8 2.95425 3.63154  22
   4  -6   8 2.22908 1.12323  16
   4  -6   8 3.97733 1.28870  17
   5  -6   8 52.9203 6.92941  22
   5  -6   8 54.4758 4.18502  17
   6  -6   8 61.0202 6.30216  22
   7   5  -8 1.09591 1.27907  26
   7   5  -8 1.63197 0.91555  16
   7   5  -8 1.31643 1.54568  20
   6   5  -8 21.0564 2.30153  16
   6   5  -8 18.0886 2.99861  26
   6   5  -8 12.4381 3.80958  20
   5   5  -8 9.10939 2.90972  26
   5   5  -8 8.03651 2.18355  16
   4   5  -8 -0.0307 1.62367  26
  -4  -5   8 0.17372 3.18039  26
   3   5  -8 375.436 29.5793  26
   3   5  -8 307.904 17.4945   6
   3   5  -8 302.622 17.4332  12
  -3  -5   8 321.976 26.7935   9
  -3  -5   8 324.458 30.2730  26
  -3  -5   8 298.625 27.8857  15
   2   5  -8 214.403 18.3487  26
   2   5  -8 189.346 10.9707   6
   2   5  -8 180.389 10.9289  12
  -2  -5   8 198.368 18.1404  15
  -2  -5   8 194.815 19.3433  26
  -2  -5   8 195.142 17.2400   9
  -1  -5   8 68.2185 7.18217  15
  -1  -5   8 57.6517 4.23152   3
  -1  -5   8 57.5454 6.97170   9
  -1  -5   8 50.9537 6.97589   2
  -1  -5   8 55.3119 7.24980  26
   0  -5   8 -0.1219 2.73797   2
   0  -5   8 4.35625 0.68886   3
   0  -5   8 3.33822 3.57852  26
   0  -5   8 3.46260 2.88916  16
   1  -5   8 78.3823 4.98892   3
   1  -5   8 67.9757 7.65563   7
   1  -5   8 76.6532 8.48414  26
   1  -5   8 63.5880 7.80397  22
   1  -5   8 66.6789 8.09198   2
   1  -5   8 70.3453 7.89455  13
   1  -5   8 56.0896 5.70269  17
   1  -5   8 61.9261 6.56068  16
   2  -5   8 45.2012 6.44084  13
   2  -5   8 42.1104 3.08425   3
   2  -5   8 46.8556 5.86444  22
   2  -5   8 37.8280 4.46727  16
   2  -5   8 36.3230 4.00788  17
   2  -5   8 33.7008 5.64734   2
   2  -5   8 40.5163 5.73171  26
   2  -5   8 47.2723 6.38038   7
   3  -5   8 28.0558 5.07099   7
   3  -5   8 29.4090 3.13233  17
   3  -5   8 27.2612 5.02643  13
   3  -5   8 18.8904 3.79398  26
   3  -5   8 19.9548 3.14840  16
   3  -5   8 30.4126 4.35870  22
   3  -5   8 19.7436 4.45289  23
   4  -5   8 28.9186 3.30217  16
   4  -5   8 31.1558 3.27799  17
   4  -5   8 31.1899 4.43221  26
   4  -5   8 37.1410 5.09139  22
   5  -5   8 4.04804 3.03719  22
   5  -5   8 6.50701 1.17890  17
   6  -5   8 15.9389 3.43677  22
   6  -5   8 28.1276 2.02746  17
   7   4  -8 1.85991 1.97902  20
   7   4  -8 0.01149 1.44619  16
   7   4  -8 -0.2820 1.15686  17
   7   4  -8 0.62716 1.91782  26
   6   4  -8 -0.3982 2.32695  26
   6   4  -8 -0.3392 1.81112  16
   5   4  -8 58.9753 4.93550  16
   5   4  -8 55.6416 6.27013  26
   4   4  -8 46.2193 5.34226  26
   4   4  -8 37.4865 3.08053   6
   4   4  -8 34.8400 3.03776  12
  -4  -4   8 33.7292 6.80534   9
  -4  -4   8 32.5687 7.13090  15
   3   4  -8 68.1001 4.75464  12
   3   4  -8 91.3310 7.97292  26
   3   4  -8 67.0109 4.72218   6
  -3  -4   8 64.9212 9.48073  26
  -3  -4   8 72.3038 8.65996   9
  -3  -4   8 77.0265 9.09763  15
   2   4  -8 46.0578 5.48633  26
  -2  -4   8 38.7023 6.23767   9
  -2  -4   8 39.4342 6.53998  15
  -2  -4   8 48.8876 6.79879  26
  -1  -4   8 21.0532 4.68829   2
  -1  -4   8 31.5439 4.63537  26
  -1  -4   8 16.7130 4.14197  15
  -1  -4   8 17.2837 3.99957   9
  -1  -4   8 22.5531 1.92682   3
   0  -4   8 109.162 11.5681  26
   0  -4   8 82.8001 9.25862  16
   0  -4   8 115.353 10.1884   7
   0  -4   8 114.550 11.2745   2
   0  -4   8 118.164 10.4806  13
   0  -4   8 129.327 8.00945   3
   1  -4   8 25.5071 2.06091   3
   1  -4   8 26.3412 4.79680   2
   1  -4   8 27.9859 4.78509  26
   1  -4   8 33.8448 5.11292   7
   1  -4   8 22.6622 3.66035  16
   1  -4   8 23.8890 3.00526  17
   1  -4   8 19.6523 4.11032  22
   1  -4   8 27.7959 5.04552  13
   2  -4   8 282.142 26.6121  26
   2  -4   8 320.012 19.6813   3
   2  -4   8 355.273 24.2097  13
   2  -4   8 308.968 26.7423  22
   2  -4   8 339.610 23.4242   7
   2  -4   8 258.356 20.1960  17
   2  -4   8 245.471 20.7125  16
   2  -4   8 259.586 24.6873   2
   3  -4   8 105.500 13.3896  23
   3  -4   8 122.192 9.94402  16
   3  -4   8 149.023 12.5269   7
   3  -4   8 140.135 12.7685  13
   3  -4   8 123.443 9.33159  17
   3  -4   8 145.916 13.3462  22
   3  -4   8 140.963 12.8901  26
   4  -4   8 3.98616 1.68039  17
   4  -4   8 4.64438 1.45997  16
   4  -4   8 5.02529 2.70254  22
   4  -4   8 5.19238 2.24964  26
   5  -4   8 17.5871 1.96058  17
   5  -4   8 25.4584 3.55597  22
   5  -4   8 16.0779 1.97557  16
   6  -4   8 0.31098 0.58913  17
   6  -4   8 -0.8928 1.63540  22
   8   3  -8 4.37378 1.77192  20
   8   3  -8 1.94019 0.67243  17
   7   3  -8 35.3069 5.87545  20
   7   3  -8 37.7940 3.12157  16
   7   3  -8 33.4656 3.11632  17
   7   3  -8 31.2859 4.05646  26
   6   3  -8 66.2131 5.38010  17
   6   3  -8 69.7774 7.71760  26
   6   3  -8 82.6659 6.10400  16
   5   3  -8 23.4726 3.29700  26
   5   3  -8 13.4629 2.34537   6
   5   3  -8 12.1848 2.23626  12
   5   3  -8 26.5577 2.84833  16
  -5  -3   8 10.7710 4.91452   9
  -5  -3   8 7.60855 5.00124  15
   4   3  -8 3.76906 2.29447  19
   4   3  -8 2.27661 1.36269   6
   4   3  -8 3.65428 1.82609  16
   4   3  -8 1.00641 1.31149  12
   4   3  -8 2.85279 2.08760   2
   4   3  -8 2.31735 0.69639   3
   4   3  -8 3.17163 2.15563  26
  -4  -3   8 3.13969 4.08254  15
  -4  -3   8 4.67679 4.17472   9
   3   3  -8 36.8247 3.15528  12
   3   3  -8 38.7176 4.98331  26
   3   3  -8 40.6639 3.10506   6
   2   3  -8 -0.0939 1.51043  26
  -2  -3   8 1.60585 2.84407  26
   0  -3   8 93.8896 10.4439   2
   0  -3   8 93.6679 11.1236  26
   0  -3   8 101.531 9.33550   7
   0  -3   8 102.498 9.65274  13
   0  -3   8 111.587 7.27626   3
   1  -3   8 37.6398 5.36315   7
   1  -3   8 30.8865 2.27137   3
   1  -3   8 31.8949 5.07282  13
   1  -3   8 20.5384 4.27273  22
   1  -3   8 28.4720 5.04155  26
   1  -3   8 21.5258 3.74004  16
   1  -3   8 23.5437 4.70375   2
   2  -3   8 210.091 12.7224   3
   2  -3   8 185.171 17.8748  26
   2  -3   8 163.049 13.8416  16
   2  -3   8 216.970 15.9107   7
   2  -3   8 176.861 16.7022   2
   2  -3   8 207.213 16.2627  13
   2  -3   8 170.958 13.1264  17
   2  -3   8 164.960 17.6107  22
   3  -3   8 12.1087 3.41749  26
   3  -3   8 7.87970 2.59667   2
   3  -3   8 7.86040 2.03033  16
   3  -3   8 9.35346 2.91700  22
   3  -3   8 11.1530 3.49599  13
   3  -3   8 9.15742 3.28595   7
   3  -3   8 8.81154 2.00609  17
   4  -3   8 13.2767 3.14007  26
   4  -3   8 13.5256 2.51705  16
   4  -3   8 12.8026 2.15384  17
   4  -3   8 16.3613 4.05231  22
   5  -3   8 50.4526 3.88943  17
   5  -3   8 44.7772 5.15665  26
   5  -3   8 55.0653 6.55643  22
   5  -3   8 47.3979 4.01508  16
   6  -3   8 1.75354 0.96752  17
   6  -3   8 1.97470 2.16812  22
   8   2  -8 32.5661 5.27168  20
   8   2  -8 34.2083 2.71235  17
   7   2  -8 41.2248 3.85108  16
   7   2  -8 37.7730 5.03422  26
   7   2  -8 47.1975 3.67598  17
   7   2  -8 41.5978 6.80117  20
   6   2  -8 -0.3510 1.40131  26
   6   2  -8 -0.1186 1.28645  17
   6   2  -8 -0.4889 2.45459  20
   6   2  -8 -0.3171 2.27732  19
   6   2  -8 0.30813 1.18675  16
   5   2  -8 1.55846 1.30331  17
   5   2  -8 0.87348 1.90752  26
   5   2  -8 0.81614 2.36659  19
   5   2  -8 -0.5850 1.74523   2
   5   2  -8 0.20974 1.67459  16
   5   2  -8 2.00264 1.14279   6
   5   2  -8 0.72814 0.94795  12
  -5  -2   8 -1.8250 3.93377  15
  -5  -2   8 -0.3063 3.71586   9
   4   2  -8 471.356 37.9665   2
   4   2  -8 443.454 24.3380  12
   4   2  -8 435.552 24.4236   6
   4   2  -8 529.821 41.5239  26
   4   2  -8 430.966 31.3615   3
   4   2  -8 449.708 37.7826  19
   4   2  -8 490.274 32.5707  16
   3   2  -8 8.00206 2.46334  26
   3   2  -8 7.14103 1.28117   6
   3   2  -8 8.84209 2.38617   2
   3   2  -8 5.12100 0.85918   3
   3   2  -8 7.60730 1.37866  12
   2   2  -8 13.3243 1.32892   3
   0   2  -8 17.6861 2.75132  10
   0   2  -8 19.6364 2.72100   4
   0  -2   8 18.5191 1.62389   3
   0  -2   8 15.1770 3.88421   2
   0  -2   8 19.5125 3.71235   7
   0  -2   8 19.2513 3.89448  13
   1  -2   8 148.558 12.3944   7
   1  -2   8 150.371 9.70196   3
   1  -2   8 125.286 13.0410   2
   1  -2   8 143.219 12.6915  13
   1  -2   8 124.553 14.1346  26
   2  -2   8 4.65535 3.29967  26
   2  -2   8 1.37498 2.98983  13
   2  -2   8 3.00951 2.35946  16
   2  -2   8 1.05882 0.52259   3
   2  -2   8 -0.3848 2.60471   7
   2  -2   8 0.84530 2.40842   2
   3  -2   8 20.3047 4.17965  26
   3  -2   8 20.9265 2.70563  17
   3  -2   8 26.0662 4.70253   7
   3  -2   8 19.5805 3.17233  16
   3  -2   8 25.1829 4.73526  13
   3  -2   8 15.0229 3.71152   2
   4  -2   8 1.40150 2.42513  22
   4  -2   8 1.79310 1.75403  17
   4  -2   8 1.41411 2.70412  26
   4  -2   8 2.22275 2.10871  16
   5  -2   8 9.57852 1.81066  16
   5  -2   8 7.28020 2.23459  26
   5  -2   8 9.67482 2.56201  22
   5  -2   8 6.06744 1.64191  17
   6  -2   8 0.10866 1.46716  22
   6  -2   8 1.45315 0.75879  17
   8   1  -8 53.9104 7.09909  20
   8   1  -8 60.5676 4.40010  17
   7   1  -8 14.9064 1.94833  16
   7   1  -8 17.7234 3.66013  20
   7   1  -8 11.6564 1.80450  17
   7   1  -8 14.0391 2.55582  26
   7   1  -8 14.3172 2.70413  19
   6   1  -8 6.46786 1.90070  16
   6   1  -8 5.58635 1.78547  26
   6   1  -8 4.41964 3.55412  20
   6   1  -8 7.34690 2.90013  19
   6   1  -8 5.77692 1.47613  17
   5   1  -8 114.249 7.73386  12
   5   1  -8 117.694 9.23177   3
   5   1  -8 135.134 11.5888  19
   5   1  -8 123.626 11.7783   2
   5   1  -8 147.841 9.53787  17
   5   1  -8 116.424 7.75351   6
   5   1  -8 151.717 9.85474  16
   5   1  -8 146.813 12.5617  26
   4   1  -8 19.3926 1.86438   3
   4   1  -8 22.2848 3.15043  10
   4   1  -8 22.8317 3.31426  26
   4   1  -8 20.2989 2.23452   6
   4   1  -8 22.2108 2.13172  17
   4   1  -8 20.0696 3.40790   2
   4   1  -8 20.7988 2.24812  12
   4   1  -8 23.9825 3.11327   4
   4   1  -8 29.9888 2.81646  16
   3   1  -8 4.12683 1.93025   2
   3   1  -8 7.66711 1.73878   4
   3   1  -8 5.28167 1.32762  12
   3   1  -8 4.77836 1.23933   6
   3   1  -8 6.08726 0.86081   3
   3   1  -8 4.37432 1.67292  10
   3   1  -8 4.97879 2.19249  26
   2   1  -8 12.4721 2.18703   4
   2   1  -8 12.4609 2.63916   2
   2   1  -8 10.4653 1.20413   3
   2   1  -8 13.9384 2.35103  10
   1   1  -8 18.0112 1.71486   3
   1   1  -8 18.2954 2.76390   4
   1   1  -8 18.1384 2.90739  10
   1   1  -8 24.9596 3.35713   2
  -1  -1   8 22.6056 3.66934  13
  -1  -1   8 21.0268 3.49261   7
   0  -1   8 38.6613 5.41293  13
   0  -1   8 42.1141 5.45541   7
   1  -1   8 103.036 9.44576   7
   1  -1   8 97.8760 10.0021   2
   1  -1   8 95.4556 9.55137  13
   1  -1   8 83.9203 10.1401  26
   1  -1   8 103.285 6.86361   3
   2  -1   8 167.016 13.7425   7
   2  -1   8 164.738 10.9056   3
   2  -1   8 148.494 15.6707  26
   2  -1   8 147.853 12.1134  16
   2  -1   8 157.884 13.9856  13
   2  -1   8 163.419 14.7665   2
   3  -1   8 4.94562 2.89473   2
   3  -1   8 6.00408 2.51447  16
   3  -1   8 3.48938 3.34044  26
   3  -1   8 2.64607 3.02500   7
   3  -1   8 4.21862 3.18714  13
   4  -1   8 50.4371 6.62615  26
   4  -1   8 46.6302 4.10365  17
   4  -1   8 49.6162 5.04335  16
   5  -1   8 11.9493 1.83546  16
   5  -1   8 13.8877 2.82879  22
   5  -1   8 12.4410 2.00661  17
   5  -1   8 10.2257 2.77181  26
   6  -1   8 5.96433 0.96495  17
   6  -1   8 5.31092 2.01970  22
   9   0  -8 0.89956 1.67905  20
   8   0  -8 134.223 14.6671  20
   8   0  -8 111.858 11.0327  19
   8   0  -8 145.090 9.20770  17
   7   0  -8 10.2108 2.21360  26
   7   0  -8 5.82029 3.50956  20
   7   0  -8 10.9872 1.64279  16
   7   0  -8 5.69959 2.62891  19
   7   0  -8 9.72316 1.60511  17
   6   0  -8 103.770 7.64950  16
   6   0  -8 102.941 11.9358  20
   6   0  -8 97.7610 9.55570  19
   6   0  -8 95.8092 7.22507  17
   6   0  -8 104.186 9.78734  26
   5   0  -8 126.619 11.2721  10
   5   0  -8 131.883 10.8652   4
   5   0  -8 137.851 12.4708  26
   5   0  -8 110.667 11.5468   2
   5   0  -8 140.128 11.9059  19
   5   0  -8 142.605 9.80926  16
   5   0  -8 121.177 9.13373   3
   5   0  -8 145.614 9.41994  17
   4   0  -8 193.484 18.3493  26
   4   0  -8 206.830 15.8052   4
   4   0  -8 207.711 13.9562  17
   4   0  -8 211.175 16.4828  10
   4   0  -8 203.057 10.9600  12
   4   0  -8 203.438 14.4116  16
   4   0  -8 185.437 13.7220   3
   4   0  -8 206.716 17.0776   2
   4   0  -8 201.993 10.9868   6
   3   0  -8 192.613 10.3319   6
   3   0  -8 194.177 10.3224  12
   3   0  -8 177.644 13.0258   3
   3   0  -8 196.332 15.6532  10
   3   0  -8 201.901 15.0503   4
   2   0  -8 81.8963 7.25392   2
   2   0  -8 70.2266 5.24440   3
   2   0  -8 75.6743 6.57632   4
   2   0  -8 70.5819 6.79222  10
   1   0  -8 23.7341 3.25888  10
   1   0  -8 24.6362 3.20007   4
   1   0  -8 21.8453 1.90540   3
   1   0  -8 25.7355 3.72681   2
  -1   0  -8 0.08398 3.25733  26
   1   0   8 0.33069 3.33596  26
   2   0   8 19.1315 4.52220  26
   2   0   8 18.4679 3.86515   7
   2   0   8 21.7993 4.12752  13
   3   0   8 1.87957 3.40469  26
   3   0   8 -2.4234 1.78538  13
   3   0   8 -1.3638 2.37525  16
   3   0   8 0.33764 2.01732   7
   4   0   8 22.6428 3.27681  16
   4   0   8 24.4912 4.43056  26
   5   0   8 0.13515 1.20146  16
   5   0   8 0.41994 1.89412  22
   5   0   8 0.45311 1.59171  17
   5   0   8 0.77106 1.63023  26
   6   0   8 61.8589 4.45510  17
   6   0   8 59.5700 6.00629  22
   9  -1  -8 109.272 11.8062  20
   8  -1  -8 0.27089 0.82546  17
   8  -1  -8 0.95140 2.20030  20
   8  -1  -8 -0.1946 2.21023  19
   7  -1  -8 11.2031 3.06426  20
   7  -1  -8 4.96355 2.82101  19
   7  -1  -8 8.71347 0.96410  16
   7  -1  -8 7.04481 1.39750  17
   6  -1  -8 0.82938 1.14672  17
   6  -1  -8 0.59436 1.39591  26
   6  -1  -8 -0.1379 2.98750  19
   6  -1  -8 -0.7364 1.81890  10
   6  -1  -8 0.51157 1.16100  16
   6  -1  -8 0.71954 2.14105  18
   6  -1  -8 1.90812 1.96959   4
   6  -1  -8 -1.0837 2.91002  20
   5  -1  -8 7.56389 2.02115   2
   5  -1  -8 14.8814 1.47310  17
   5  -1  -8 15.2266 3.39499  19
   5  -1  -8 10.9754 2.31204   4
   5  -1  -8 12.1682 2.17392  25
   5  -1  -8 12.2045 2.63082  18
   5  -1  -8 11.0780 3.14434  20
   5  -1  -8 8.77117 1.03653   3
   5  -1  -8 9.64908 1.74110  16
   5  -1  -8 8.56055 2.10022  26
   5  -1  -8 9.97379 2.35961  10
   4  -1  -8 32.0065 2.78793  17
   4  -1  -8 30.3074 2.47696   3
   4  -1  -8 39.9385 4.44867  19
   4  -1  -8 33.8290 3.76808  10
   4  -1  -8 31.7486 3.57803   4
   4  -1  -8 34.2216 3.30126  16
   4  -1  -8 34.3583 4.38167  18
   4  -1  -8 29.0579 4.13745  26
   4  -1  -8 30.9495 3.89067   2
   3  -1  -8 120.016 8.93711   3
   3  -1  -8 141.747 11.4857   2
   3  -1  -8 135.093 12.4128  26
   3  -1  -8 133.010 11.2049  10
   3  -1  -8 126.553 10.7033   4
   2  -1  -8 167.504 12.0494   3
   2  -1  -8 181.734 14.1612   4
   2  -1  -8 174.979 14.7082  10
   2  -1  -8 186.082 15.1124   2
   1  -1  -8 42.9705 3.22621   3
   1  -1  -8 43.5141 5.05950   2
   1  -1  -8 41.0516 4.85372  10
   1  -1  -8 41.8836 4.67425   4
  -1  -1  -8 51.5005 7.32857  26
   1   1   8 45.5715 6.83081  26
   2   1   8 72.8456 9.21765  26
   3   1   8 2.79095 2.56639  13
   3   1   8 4.61410 2.03950  16
   3   1   8 6.84345 3.04919  26
   3   1   8 2.65751 2.42655   7
   4   1   8 1.68546 1.74530  16
   4   1   8 0.92229 2.35338  26
   5   1   8 7.18007 2.67640  26
   5   1   8 5.46819 1.92834  16
   5   1   8 7.71562 2.77115  22
   9  -2  -8 4.43161 1.59108  19
   9  -2  -8 9.92263 2.30799  20
   8  -2  -8 5.64081 1.75847  18
   8  -2  -8 7.18580 3.43035  20
   8  -2  -8 4.15129 2.72224  19
   8  -2  -8 9.31277 1.17957  17
   7  -2  -8 102.153 10.7628  18
   7  -2  -8 125.315 13.6768  20
   7  -2  -8 128.249 8.48365  17
   7  -2  -8 122.986 11.1995  19
   6  -2  -8 76.6793 5.30284  16
   6  -2  -8 76.6686 5.31957  17
   6  -2  -8 70.2378 7.43781  18
   6  -2  -8 74.1708 8.90689  20
   6  -2  -8 68.1791 7.57372  19
   6  -2  -8 58.7840 6.81375  10
   6  -2  -8 58.4796 6.54090   4
   5  -2  -8 130.133 9.20832  16
   5  -2  -8 135.782 11.7247  18
   5  -2  -8 139.030 10.1646  25
   5  -2  -8 129.726 11.2973  10
   5  -2  -8 129.226 11.5124  19
   5  -2  -8 122.817 10.7897   4
   5  -2  -8 107.568 8.68381   3
   5  -2  -8 132.871 11.7594  26
   5  -2  -8 141.514 8.98174  17
   5  -2  -8 108.899 10.8301   2
   4  -2  -8 494.509 33.7581  16
   4  -2  -8 542.745 36.9530   4
   4  -2  -8 433.748 32.5911   3
   4  -2  -8 505.630 33.0139  17
   4  -2  -8 496.131 40.8575  18
   4  -2  -8 481.516 36.1440  25
   4  -2  -8 427.936 42.9682  26
   4  -2  -8 514.523 38.4332  10
   4  -2  -8 502.850 39.5037  19
   3  -2  -8 1.89486 1.56646   4
   3  -2  -8 2.38717 2.02514  26
   3  -2  -8 3.88735 1.84643  10
   3  -2  -8 2.53292 1.65614   2
   3  -2  -8 1.14216 0.48652   3
   3  -2  -8 2.85886 1.60574  16
   2  -2  -8 45.8268 3.52006   3
   2  -2  -8 47.1093 5.40343  10
   2  -2  -8 49.1163 5.19068   2
   2  -2  -8 46.7523 5.17726   4
   2  -2  -8 50.5743 5.84713  26
   1  -2  -8 0.29316 2.04905  10
   1  -2  -8 0.86882 2.01767   4
   1  -2  -8 0.25925 2.64828  26
   1  -2  -8 0.40761 1.93391   2
   1  -2  -8 0.23245 0.49918   3
   0  -2  -8 37.2669 5.28591  26
   0  -2  -8 26.8089 2.38232   3
   0  -2  -8 35.5915 4.98918   2
  -1  -2  -8 76.1871 9.00500  26
   1   2   8 65.1285 9.07800  26
  -2  -2  -8 8.43120 3.27711  26
   2   2   8 10.2157 3.28008  26
   3   2   8 11.5824 4.38309  26
   4   2   8 39.3876 5.34600  26
   4   2   8 32.1217 3.75946  16
   5   2   8 1.28040 1.27175  16
   5   2   8 -0.4895 2.16607  22
   5   2   8 -0.4516 1.56847  26
   9  -3  -8 4.56022 1.82530  19
   9  -3  -8 8.74220 2.16842  20
   8  -3  -8 96.2662 11.1618  20
   8  -3  -8 100.425 6.76526  17
   8  -3  -8 91.1988 9.31330  18
   8  -3  -8 106.838 9.48726  19
   7  -3  -8 42.4613 6.56939  20
   7  -3  -8 45.9251 3.41625  17
   7  -3  -8 44.0362 5.93555  19
   7  -3  -8 43.4518 5.80304  18
   6  -3  -8 33.7194 4.62449  19
   6  -3  -8 33.6829 2.75969  17
   6  -3  -8 25.3398 4.31308   4
   6  -3  -8 25.0011 4.45390  10
   6  -3  -8 33.4439 4.34821  18
   6  -3  -8 35.3133 3.72524  25
   5  -3  -8 15.2558 1.53566  17
   5  -3  -8 13.0298 1.44076  16
   5  -3  -8 15.3177 2.33773  25
   5  -3  -8 10.4345 1.74258  26
   5  -3  -8 6.77786 1.55742   2
   5  -3  -8 13.9977 3.18949  19
   5  -3  -8 16.8603 2.93721   4
   5  -3  -8 11.8789 1.03272   3
   5  -3  -8 19.0432 3.40217  18
   5  -3  -8 16.1028 2.98402  10
   4  -3  -8 4.30882 1.72720  26
   4  -3  -8 4.62151 1.51750   2
   4  -3  -8 3.73279 1.71873  25
   4  -3  -8 5.47241 2.81153  18
   4  -3  -8 4.49992 1.32682  16
   4  -3  -8 2.66257 2.31717  10
   4  -3  -8 4.15534 0.61217   3
   4  -3  -8 4.86853 2.36135   4
   4  -3  -8 5.46703 2.57911  19
   4  -3  -8 4.73826 1.08378  17
   3  -3  -8 1.74696 2.02757  26
   3  -3  -8 0.03765 1.44679   2
   3  -3  -8 0.74712 2.75606  18
   3  -3  -8 -0.4373 1.06724  17
   3  -3  -8 1.02644 2.20552   4
   3  -3  -8 0.24545 0.39404   3
   3  -3  -8 -0.2252 2.19119  10
   3  -3  -8 0.41997 1.42958  16
   2  -3  -8 121.094 8.05840  17
   2  -3  -8 117.207 10.1068   2
   2  -3  -8 110.687 8.46253  16
   2  -3  -8 105.166 10.0469  10
   2  -3  -8 104.942 10.9542  26
   2  -3  -8 104.787 9.64093   4
   2  -3  -8 108.287 7.74746   3
   1  -3  -8 43.2536 4.05876  16
   1  -3  -8 35.6798 4.77725   2
   1  -3  -8 35.1203 4.91027   4
   1  -3  -8 41.4442 5.38472  26
   1  -3  -8 34.1242 5.08700  10
   1  -3  -8 34.9020 2.85206   3
   0  -3  -8 1.28304 0.53654   3
   0  -3  -8 1.06343 2.22506  26
   0  -3  -8 0.58487 1.61835   2
  -1  -3  -8 479.120 38.8515  26
   1   3   8 370.698 38.5361  26
  -2  -3  -8 48.1468 6.55606  26
   2   3   8 36.3433 5.88482  26
  -3  -3  -8 2.56196 3.05942  26
   3   3   8 -1.0190 2.70428  26
   4   3   8 -1.8064 2.24255  16
   4   3   8 -0.8736 3.24490  26
   5   3   8 41.6696 4.82726  22
   5   3   8 45.6850 3.85191  16
   5   3   8 50.3127 5.09652  26
   9  -4  -8 1.81616 1.58274  20
   9  -4  -8 1.03437 1.66267  19
   8  -4  -8 66.5972 7.20504  18
   8  -4  -8 63.1018 8.37098  20
   8  -4  -8 75.8394 6.83708  19
   7  -4  -8 2.44483 0.75806  17
   7  -4  -8 1.38521 2.06275  18
   7  -4  -8 0.07288 2.75071  19
   6  -4  -8 104.898 8.39322  25
   6  -4  -8 88.2921 9.49820  10
   6  -4  -8 102.158 7.04254  17
   6  -4  -8 110.023 10.0417  18
   6  -4  -8 105.906 9.51250  19
   6  -4  -8 74.2977 8.92488   4
   5  -4  -8 24.2243 3.92835   4
   5  -4  -8 14.8483 1.22831   3
   5  -4  -8 21.3918 3.54991  10
   5  -4  -8 22.6335 3.81401  18
   5  -4  -8 22.9286 2.61649  25
   5  -4  -8 22.6951 1.87046  17
   5  -4  -8 16.4893 1.70023   2
   5  -4  -8 26.6915 3.61412  19
   4  -4  -8 262.010 16.3211  17
   4  -4  -8 196.031 21.1871  26
   4  -4  -8 210.599 16.0117   3
   4  -4  -8 258.197 18.0944  25
   4  -4  -8 219.996 16.6299  16
   4  -4  -8 231.360 19.0182   4
   4  -4  -8 272.140 19.8893  19
   4  -4  -8 241.007 19.8928  10
   4  -4  -8 262.246 20.2942  24
   4  -4  -8 245.354 20.6050  18
   3  -4  -8 97.1435 8.98090   2
   3  -4  -8 99.2219 9.00795  19
   3  -4  -8 107.454 7.18667  17
   3  -4  -8 109.195 9.85660  26
   3  -4  -8 94.1340 8.09499  25
   3  -4  -8 88.5632 9.27144  10
   3  -4  -8 93.4062 8.95482   4
   3  -4  -8 93.6261 6.92439   3
   3  -4  -8 86.4560 9.44295  18
   3  -4  -8 115.230 7.59622  16
   3  -4  -8 102.913 9.46083  24
   2  -4  -8 42.7433 4.22872  16
   2  -4  -8 46.2955 5.41886   4
   2  -4  -8 44.1378 3.23413   3
   2  -4  -8 43.7626 5.60775  10
   2  -4  -8 40.9710 3.66875  17
   2  -4  -8 41.1231 4.25220  25
   2  -4  -8 36.8276 5.53293  26
   2  -4  -8 46.8631 4.95293   2
   1  -4  -8 51.3609 6.40499  26
   1  -4  -8 54.1181 4.15732   3
   1  -4  -8 54.4700 6.44214  10
   1  -4  -8 58.9154 6.06618   2
   1  -4  -8 60.3889 6.32822   4
   1  -4  -8 55.5351 4.88129  16
   1  -4  -8 60.4679 4.73978  17
   0  -4  -8 121.440 11.4148  10
   0  -4  -8 125.153 8.86290   3
   0  -4  -8 146.574 12.0353   2
   0  -4  -8 118.765 12.4755  26
   0  -4  -8 128.419 11.0521   4
   0  -4  -8 116.614 9.56785  16
  -1  -4  -8 53.1830 7.54814  26
  -2  -4  -8 85.2745 10.1598  26
   2   4   8 64.2259 9.68476  26
  -3  -4  -8 15.0474 3.93439  26
   3   4   8 10.8389 3.45555  26
   4   4   8 36.1686 5.03618  26
   9  -5  -8 32.1001 3.78122  19
   8  -5  -8 42.0281 5.14551  18
   8  -5  -8 47.5964 5.02589  19
   7  -5  -8 18.7655 3.03245  25
   7  -5  -8 22.7127 3.55293  18
   7  -5  -8 26.1752 3.51359  19
   6  -5  -8 15.2317 3.85146  18
   6  -5  -8 12.0302 1.37173  17
   6  -5  -8 13.7350 2.18941  25
   6  -5  -8 11.2537 3.11807  19
   5  -5  -8 220.757 15.3613  17
   5  -5  -8 230.030 17.1942  25
   5  -5  -8 191.417 17.9732   4
   5  -5  -8 235.112 19.3489  24
   5  -5  -8 234.591 19.9325  18
   5  -5  -8 207.954 18.8464  10
   5  -5  -8 236.217 18.8858  19
   4  -5  -8 0.56423 0.87591   2
   4  -5  -8 2.45910 1.89260  10
   4  -5  -8 1.36538 1.56906  19
   4  -5  -8 2.29235 3.01526  24
   4  -5  -8 0.83319 1.91877  25
   4  -5  -8 0.47234 1.71896   4
   4  -5  -8 0.53435 0.97489  17
   4  -5  -8 0.64775 0.92721  16
   4  -5  -8 0.92889 0.29353   3
   4  -5  -8 1.96159 2.28151  18
   3  -5  -8 9.76456 2.73132  26
   3  -5  -8 10.2558 3.13202  24
   3  -5  -8 10.0752 1.96669  16
   3  -5  -8 9.54504 1.50412  17
   3  -5  -8 7.75681 2.12811  25
   3  -5  -8 7.79764 2.17256   2
   3  -5  -8 4.82889 2.87488  10
   3  -5  -8 5.14883 2.84584   4
   3  -5  -8 6.28935 0.83052   3
   3  -5  -8 9.14252 3.49328  18
   2  -5  -8 16.0574 1.63461   3
   2  -5  -8 20.3585 3.56304  26
   2  -5  -8 24.4618 2.74069  16
   2  -5  -8 16.7447 3.85652   4
   2  -5  -8 14.1232 2.98051   2
   2  -5  -8 25.3303 2.36715  17
   2  -5  -8 16.5269 4.00319  18
   2  -5  -8 16.9037 3.92976  10
   2  -5  -8 19.5816 2.70887  25
   1  -5  -8 6.56977 1.75516  17
   1  -5  -8 6.93888 2.56452  10
   1  -5  -8 8.69538 2.42442  16
   1  -5  -8 5.91655 0.99976   3
   1  -5  -8 6.85178 2.44412   4
   1  -5  -8 7.27054 3.21115  26
   1  -5  -8 7.53778 2.03490  25
   1  -5  -8 8.47325 2.66520   2
   0  -5  -8 23.7471 4.29123   4
   0  -5  -8 24.0537 2.30821   3
   0  -5  -8 30.1897 5.05565  26
   0  -5  -8 22.5169 4.41376   2
   0  -5  -8 21.5323 4.34537  10
   0  -5  -8 31.0412 3.80078  16
  -1  -5  -8 18.7160 5.18175  26
  -1  -5  -8 23.1181 3.95030  16
  -2  -5  -8 58.1139 7.34085  26
   2   5   8 46.3606 7.07545  26
  -3  -5  -8 139.089 13.1597  26
   3   5   8 106.078 12.7265  26
  -4  -5  -8 7.50730 2.41398  26
   4   5   8 3.97095 2.05647  26
   9  -6  -8 -0.1167 1.35539  18
   9  -6  -8 -0.7634 1.44322  19
   8  -6  -8 1.85869 2.84770  18
   8  -6  -8 1.65579 2.41626  19
   7  -6  -8 101.881 9.10783  19
   7  -6  -8 103.425 8.15043  25
   7  -6  -8 91.1406 10.0429  18
   6  -6  -8 30.5326 2.15069  17
   6  -6  -8 31.8184 3.94926  19
   6  -6  -8 29.4299 4.78984  18
   6  -6  -8 28.9665 3.56416  25
   5  -6  -8 3.69905 2.17661   4
   5  -6  -8 6.40048 2.53650  10
   5  -6  -8 1.82213 2.23989  25
   5  -6  -8 4.88840 0.88458  17
   5  -6  -8 4.74451 3.37740  24
   5  -6  -8 4.59764 2.52045  19
   5  -6  -8 7.66135 2.79475  18
   4  -6  -8 0.05770 2.45526  10
   4  -6  -8 2.44056 3.18402  24
   4  -6  -8 0.82960 0.98445  17
   4  -6  -8 0.18719 3.34657  18
   4  -6  -8 0.88005 2.47383   4
   4  -6  -8 2.01330 2.30795  25
   3  -6  -8 201.388 14.8898  25
   3  -6  -8 209.082 13.3227  17
   3  -6  -8 229.946 13.7109  16
   3  -6  -8 159.476 16.5197  10
   3  -6  -8 166.318 15.9203   4
   3  -6  -8 161.797 12.9667   3
   3  -6  -8 190.496 17.3988  18
   3  -6  -8 194.258 17.5493  26
   3  -6  -8 189.726 16.5875  24
   2  -6  -8 228.695 17.9059  25
   2  -6  -8 218.705 19.0862   4
   2  -6  -8 249.278 16.2686  17
   2  -6  -8 243.790 16.7361  16
   2  -6  -8 216.749 21.4463  26
   2  -6  -8 208.176 19.8004  10
   2  -6  -8 251.363 20.5673  18
   2  -6  -8 234.876 19.7301   2
   1  -6  -8 7.14430 3.39137  26
   1  -6  -8 8.38429 1.86334  17
   1  -6  -8 5.11873 2.30639   4
   1  -6  -8 4.78105 2.13805  25
   1  -6  -8 7.69132 2.49976  16
   1  -6  -8 5.90343 2.39980  10
   1  -6  -8 4.55068 2.59969   2
   0  -6  -8 130.696 12.8760  10
   0  -6  -8 138.560 12.4699   4
   0  -6  -8 142.943 10.9683  16
   0  -6  -8 142.404 11.1927  25
   0  -6  -8 134.130 14.2920  26
  -1  -6  -8 42.7736 4.90858  16
  -1  -6  -8 52.0509 6.81581  26
  -2  -6  -8 1.81107 3.94500  26
  -2  -6  -8 -2.3933 2.89740  16
   3   6   8 25.7218 4.63886  26
   8  -7  -8 112.956 11.3554  18
   8  -7  -8 129.503 10.6130  19
   7  -7  -8 5.33323 3.04169  18
   7  -7  -8 5.72604 1.76377  25
   7  -7  -8 5.39673 2.50764  19
   6  -7  -8 7.92219 2.44825  25
   6  -7  -8 7.23274 2.55015  19
   6  -7  -8 9.73769 2.78292  18
   5  -7  -8 55.7620 3.95586  17
   5  -7  -8 54.3703 5.57680  25
   5  -7  -8 51.0908 6.83807  24
   5  -7  -8 55.3046 7.12055  18
   4  -7  -8 1.08827 2.38045  25
   4  -7  -8 0.02491 2.44410  10
   4  -7  -8 1.72988 0.98140  17
   4  -7  -8 0.70660 2.33125  24
   4  -7  -8 0.67103 2.43746   4
   4  -7  -8 -0.2956 3.31372  18
   3  -7  -8 209.274 20.1517  10
   3  -7  -8 269.864 16.9009  16
   3  -7  -8 245.371 18.3770  25
   3  -7  -8 227.950 20.4322  24
   3  -7  -8 250.863 16.6018  17
   3  -7  -8 236.572 20.9994  18
   3  -7  -8 206.542 19.3155   4
   2  -7  -8 4.59781 2.80416   4
   2  -7  -8 4.18106 2.85893  10
   2  -7  -8 12.6321 2.13176  16
   2  -7  -8 10.5712 1.81141  17
   2  -7  -8 7.60258 2.74705  26
   2  -7  -8 9.32477 2.54902  25
   2  -7  -8 11.9444 2.85612  18
   1  -7  -8 6.71875 1.89893  17
   1  -7  -8 8.72967 3.45894  26
   1  -7  -8 10.5742 3.57905  18
   1  -7  -8 12.7795 2.14869  16
   1  -7  -8 10.1082 2.51266  25
   0  -7  -8 37.6111 5.69599  26
   0  -7  -8 33.9709 3.35959  17
   0  -7  -8 35.7913 4.48526  25
   0  -7  -8 35.4438 4.16364  16
  -1  -7  -8 0.72362 1.99885  25
  -1  -7  -8 2.56009 2.78066  26
  -1  -7  -8 4.16401 2.10822  16
  -2  -7  -8 39.2347 5.41682  26
  -2  -7  -8 36.7175 3.99836  16
  -3  -7  -8 -0.3416 1.84004  26
   8  -8  -8 6.31721 1.71696  19
   8  -8  -8 7.67942 2.06693  18
   7  -8  -8 0.98096 1.97896  18
   7  -8  -8 1.53895 1.55978  25
   7  -8  -8 -0.0006 1.97733  19
   6  -8  -8 72.8523 6.10020  25
   6  -8  -8 65.4869 6.91197  24
   6  -8  -8 71.7749 7.25559  18
   5  -8  -8 94.7807 8.88141  18
   5  -8  -8 93.8940 7.59444  25
   5  -8  -8 82.2458 8.55908  24
   4  -8  -8 33.4159 4.07187  25
   4  -8  -8 35.3995 4.94220  24
   4  -8  -8 35.6065 2.79384  17
   4  -8  -8 31.6499 4.95864  18
   3  -8  -8 534.119 35.4011  17
   3  -8  -8 529.345 43.9677  18
   3  -8  -8 537.609 39.0174  25
   3  -8  -8 477.892 42.6977  24
   2  -8  -8 4.03064 1.71911  16
   2  -8  -8 4.12632 1.54841  17
   2  -8  -8 4.50485 3.04194  18
   2  -8  -8 3.06160 1.81242  25
   2  -8  -8 3.88810 2.39880  26
   1  -8  -8 1.44874 2.72318  26
   1  -8  -8 -0.3388 2.26422  25
   1  -8  -8 -0.2713 1.59110  17
   1  -8  -8 -0.8100 1.92508  16
   1  -8  -8 2.40658 3.05797  18
   0  -8  -8 -0.4878 1.47488  25
   0  -8  -8 1.33071 2.04706  18
   0  -8  -8 0.64810 2.30207  16
   0  -8  -8 0.11919 1.14785  17
   0  -8  -8 1.49066 3.20832  26
  -1  -8  -8 140.194 14.0728  26
  -1  -8  -8 139.383 11.4622  25
  -1  -8  -8 166.302 10.9307  16
  -1  -8  -8 140.432 12.8658  18
  -2  -8  -8 4.82267 2.08984  16
  -2  -8  -8 4.00773 2.87320  26
   8  -9  -8 22.7055 2.89075  18
   7  -9  -8 93.2799 9.19201  18
   7  -9  -8 109.086 8.16004  25
   6  -9  -8 -2.1487 2.35467  18
   6  -9  -8 0.88593 1.49369  25
   6  -9  -8 2.12012 2.00144  24
   5  -9  -8 9.49658 2.61711  24
   5  -9  -8 6.99813 2.88997  18
   5  -9  -8 9.98145 2.05726  25
   4  -9  -8 11.3696 2.78566  24
   4  -9  -8 3.72146 2.78416  18
   4  -9  -8 13.1184 2.97583  25
   4  -9  -8 12.9929 1.27475  17
   3  -9  -8 66.7989 7.98112  24
   3  -9  -8 83.4505 6.91948  25
   3  -9  -8 76.5310 8.28189  18
   3  -9  -8 86.3444 5.85938  17
   2  -9  -8 4.48989 0.68930  16
   2  -9  -8 3.46465 2.80393  18
   2  -9  -8 4.82213 1.89476  25
   2  -9  -8 3.66893 1.38171  17
   1  -9  -8 20.9664 2.14045  16
   1  -9  -8 15.9147 2.79905  26
   1  -9  -8 20.7582 2.53909  25
   1  -9  -8 13.0249 2.05330  17
   1  -9  -8 14.1417 3.19571  18
   0  -9  -8 173.162 13.3481  25
  -1  -9  -8 0.23247 1.57953  25
  -1  -9  -8 1.25645 2.14604  26
  -1  -9  -8 1.60016 1.57503  16
  -1  -9  -8 2.25353 1.06563  17
   7 -10  -8 30.8149 2.86393  25
   7 -10  -8 23.0555 3.16460  18
   6 -10  -8 1.61532 1.45481  18
   6 -10  -8 1.15246 1.93513  25
   5 -10  -8 12.6375 2.54824  24
   5 -10  -8 19.7190 2.25031  25
   5 -10  -8 9.46668 2.59373  18
   4 -10  -8 0.60000 2.04042  24
   4 -10  -8 -0.7177 1.64054  25
   4 -10  -8 0.47091 2.28371  18
   3 -10  -8 166.578 12.9653  25
   3 -10  -8 165.002 11.2894  17
   3 -10  -8 159.988 14.4661  18
   2 -10  -8 81.2396 5.89959  17
   2 -10  -8 84.6035 6.89590  25
   1 -10  -8 0.68540 0.90754  17
   1 -10  -8 0.79168 1.56049  25
   0 -10  -8 48.8134 4.16905  25
   0 -10  -8 46.7734 3.66281  17
   6 -11  -8 81.0461 6.45363  25
   5 -11  -8 0.65059 1.27256  25
   5 -11  -8 1.58660 1.68103  24
   4 -11  -8 359.741 29.4933  24
   3 -11  -8 117.038 9.38899  25
   2 -11  -8 2.07163 1.93567  25
   2 -11  -8 2.13964 0.64197  17
   1 -11  -8 4.34669 0.83604  17
   1 -11  -8 2.04932 1.79238  25
   4 -12  -8 93.6168 7.29319  25
  -1 -11   9 0.35983 1.20858  17
  -1 -11   9 -0.2487 1.12021  24
  -1 -11   9 -0.3762 1.06610  16
   0 -11   9 5.57498 1.67402  24
   0 -11   9 3.75931 1.56948  17
   1 -11   9 125.211 11.8906  23
   1 -11   9 110.673 8.20467  17
   2 -11   9 5.68303 0.95978  17
   2 -11   9 5.30633 2.14298  23
   3 -11   9 -1.3130 2.23758  23
  -3 -10   9 22.6804 2.72954  24
  -3 -10   9 18.6580 2.95791  26
  -3 -10   9 13.8604 2.19375  16
  -2 -10   9 2.63413 2.31574  26
  -2 -10   9 1.00869 1.70384  24
  -2 -10   9 1.21563 1.85456  16
  -1 -10   9 4.38681 1.79504  16
  -1 -10   9 6.50703 1.65208  17
  -1 -10   9 6.45259 2.27380  26
  -1 -10   9 5.08415 2.33897  24
   0 -10   9 126.363 9.21176  17
   0 -10   9 119.914 9.25188  16
   0 -10   9 117.245 10.7035  24
   0 -10   9 143.692 13.1328  23
   0 -10   9 131.435 11.8708  26
   1 -10   9 2.80314 2.53081  23
   1 -10   9 4.03623 1.13311  16
   1 -10   9 5.26312 1.44525  17
   2 -10   9 1.96412 3.34859  23
   2 -10   9 1.00183 1.02139  17
   3 -10   9 35.1393 2.80364  17
   3 -10   9 38.5935 5.48699  23
   4 -10   9 6.26197 2.42444  23
  -4  -9   9 39.6775 4.50607  24
  -4  -9   9 54.8299 5.76283  26
  -3  -9   9 33.2284 5.33749  26
  -3  -9   9 19.7204 3.27906  16
  -2  -9   9 16.6214 3.00422  16
  -2  -9   9 22.5877 4.06044  26
  -1  -9   9 23.0128 3.11834  16
  -1  -9   9 19.4769 4.10368  23
  -1  -9   9 9.63313 2.93085  24
  -1  -9   9 14.4002 2.85858  17
  -1  -9   9 19.8599 3.67145  26
   0  -9   9 11.4640 3.54175  26
   0  -9   9 12.4255 3.12574  16
   0  -9   9 10.9588 2.60197  24
   0  -9   9 18.9671 3.61694  23
   0  -9   9 10.0093 2.56404  17
   1  -9   9 13.9912 2.13081  17
   1  -9   9 12.0869 4.33827  23
   1  -9   9 11.1542 2.92668  26
   1  -9   9 16.0631 2.55457  16
   2  -9   9 44.3766 5.81318  23
   2  -9   9 37.9546 3.08236  16
   2  -9   9 43.4062 3.91231  17
   3  -9   9 24.6597 2.62806  17
   3  -9   9 24.6512 3.81122  23
   3  -9   9 25.7303 3.59370  22
   4  -9   9 0.46516 2.40435  22
   4  -9   9 0.67570 0.66446  17
   4  -9   9 1.67009 2.30502  23
   5   8  -9 1.03348 1.43638  26
  -5  -8   9 1.80971 2.52437  26
   4   8  -9 294.517 25.9180  26
  -4  -8   9 272.745 26.6572  26
  -3  -8   9 32.0811 4.28270  16
  -3  -8   9 30.8328 5.16632  26
  -2  -8   9 15.9449 4.38896  16
  -2  -8   9 17.6026 5.15438  26
  -1  -8   9 13.9925 4.18964  23
  -1  -8   9 12.9729 4.11695  16
  -1  -8   9 16.5618 4.80311  26
   0  -8   9 17.3869 4.35512  26
   0  -8   9 14.6716 3.01534  16
   0  -8   9 14.6686 2.35372  17
   0  -8   9 6.35994 4.34570  23
   1  -8   9 113.686 8.58465  17
   1  -8   9 108.598 12.1945  23
   1  -8   9 106.885 8.90673  16
   1  -8   9 130.666 11.8387  26
   2  -8   9 14.0537 2.38132  17
   2  -8   9 12.9905 4.30563  23
   2  -8   9 18.9357 2.56873  16
   2  -8   9 19.9398 3.20708  26
   3  -8   9 19.2753 3.15364  22
   3  -8   9 7.23944 1.75258  17
   3  -8   9 16.0046 3.91404  23
   4  -8   9 69.2375 7.07693  23
   4  -8   9 62.6952 4.79477  17
   4  -8   9 69.1714 7.04628  22
   5  -8   9 21.3565 2.91313  22
   6   7  -9 67.0724 6.58158  26
   6   7  -9 68.6583 7.43950  20
   5   7  -9 27.3904 3.77492  26
  -5  -7   9 25.5891 4.77978  26
   4   7  -9 9.98322 2.88812  26
  -4  -7   9 6.66172 4.64942  26
   3   7  -9 -0.7217 1.59058  26
  -3  -7   9 -0.2224 3.28965  26
  -2  -7   9 50.7698 6.56941  16
  -2  -7   9 57.2920 7.95160  26
  -1  -7   9 4.98650 3.36390  26
  -1  -7   9 5.78466 2.84058  16
  -1  -7   9 4.80685 3.71421  23
   0  -7   9 2.87103 3.90912  23
   0  -7   9 2.01365 3.13193  16
   0  -7   9 0.24415 1.52900  17
   0  -7   9 2.18519 3.82327  26
   1  -7   9 204.065 20.6643  23
   1  -7   9 224.299 19.5848  26
   1  -7   9 184.426 15.2792  16
   2  -7   9 10.5212 3.72762  22
   2  -7   9 6.37380 3.96270  23
   2  -7   9 5.79150 2.74110  26
   2  -7   9 4.78390 2.10735  17
   2  -7   9 3.02416 2.31654  16
   3  -7   9 7.43218 3.55245  23
   3  -7   9 6.11358 1.56174  16
   3  -7   9 13.8582 3.91912  22
   3  -7   9 5.06840 1.80137  17
   3  -7   9 8.36957 2.24776  26
   4  -7   9 3.71598 2.39153  22
   4  -7   9 3.19084 2.74620  23
   4  -7   9 3.92340 1.05359  17
   5  -7   9 2.20944 1.87366  22
   6   6  -9 0.61560 1.08340  16
   6   6  -9 -0.6507 1.41683  26
   6   6  -9 -0.0099 1.57338  20
   5   6  -9 2.43788 2.50483  26
  -5  -6   9 3.04730 4.66724  26
   4   6  -9 1.07259 2.40630  26
  -4  -6   9 4.68024 4.70685  26
   3   6  -9 253.904 21.2654  26
  -3  -6   9 191.365 22.2185  26
   2   6  -9 23.7539 2.91157  12
   2   6  -9 19.6551 2.74939   6
  -2  -6   9 37.4825 6.00140   9
  -2  -6   9 35.0634 6.26334  26
  -2  -6   9 32.0109 6.03912  15
  -1  -6   9 18.1258 4.79233  26
  -1  -6   9 5.92180 4.29366  15
  -1  -6   9 10.7232 3.78568  16
  -1  -6   9 3.27300 3.74887   9
   0  -6   9 8.75220 3.27572  16
   0  -6   9 9.59923 4.15083  26
   1  -6   9 7.21894 3.71585  26
   1  -6   9 4.14625 2.21390  17
   1  -6   9 3.98163 3.08057  16
   2  -6   9 11.5746 3.04612  16
   2  -6   9 9.58632 3.86969  23
   2  -6   9 18.0934 3.85208  26
   2  -6   9 16.2970 3.90485  22
   2  -6   9 15.3522 2.15980  17
   3  -6   9 18.7837 2.77844  16
   3  -6   9 23.8696 4.51842  22
   3  -6   9 23.5697 3.61925  26
   3  -6   9 25.8029 2.58863  17
   3  -6   9 17.5516 4.24320  23
   4  -6   9 0.94632 3.12097  22
   4  -6   9 2.93914 1.13525  17
   5  -6   9 14.5965 2.64750  22
   5  -6   9 9.63992 1.32821  17
   7   5  -9 18.5169 2.50289  26
   7   5  -9 21.4194 1.88881  16
   7   5  -9 22.5404 3.13545  20
   6   5  -9 44.3303 3.90741  16
   6   5  -9 47.1518 6.37147  20
   6   5  -9 45.2872 5.11611  26
   5   5  -9 1.47297 1.71927  26
   5   5  -9 2.10311 2.05639  16
   4   5  -9 17.4349 3.34131  26
  -4  -5   9 16.4541 5.44679  26
   3   5  -9 188.807 15.7711  26
   3   5  -9 163.442 9.52557   6
   3   5  -9 153.704 9.46523  12
  -3  -5   9 153.234 16.9745  26
  -3  -5   9 149.809 15.6968  15
  -3  -5   9 161.017 15.0950   9
   2   5  -9 21.6810 2.56923  12
   2   5  -9 28.8946 4.10330  26
   2   5  -9 21.5266 2.50004   6
  -2  -5   9 31.9495 5.82351  15
  -2  -5   9 31.9487 5.53770   9
  -2  -5   9 24.6095 5.59248  26
  -1  -5   9 4.79159 3.33327  15
  -1  -5   9 11.0860 4.56356  26
  -1  -5   9 1.76226 2.91376   9
   0  -5   9 4.17610 0.79462   3
   0  -5   9 1.72468 3.10945   2
   0  -5   9 6.18298 3.93529  26
   0  -5   9 5.54667 3.20564  16
   1  -5   9 3.27527 2.43285   2
   1  -5   9 3.13752 2.08135  16
   1  -5   9 0.48794 2.91122  13
   1  -5   9 4.52727 0.74035   3
   1  -5   9 4.98816 2.18691  17
   1  -5   9 3.40837 3.37015   7
   1  -5   9 6.65907 3.61919  26
   2  -5   9 143.350 10.8806  17
   2  -5   9 139.212 13.2567   7
   2  -5   9 144.399 13.6574  13
   2  -5   9 169.359 14.9182  22
   2  -5   9 132.709 11.6534  16
   2  -5   9 169.978 14.7197  26
   3  -5   9 7.77111 2.42214  16
   3  -5   9 13.0007 3.03507  22
   3  -5   9 10.9794 3.47097  23
   3  -5   9 7.72481 2.07367  17
   3  -5   9 6.21007 2.65984  26
   4  -5   9 2.56729 1.15000  17
   4  -5   9 1.68386 1.29721  16
   4  -5   9 1.78113 3.04863  22
   4  -5   9 1.54341 1.52276  26
   5  -5   9 14.2441 2.66914  22
   5  -5   9 14.4321 1.58058  17
   6  -5   9 3.23735 1.36191  22
   7   4  -9 100.192 10.4836  26
   7   4  -9 120.768 12.3164  20
   7   4  -9 119.721 8.20114  16
   6   4  -9 3.73258 2.37825  26
   6   4  -9 1.00904 1.80847  16
   6   4  -9 5.96481 2.59735  20
   5   4  -9 22.4003 3.45660  26
   5   4  -9 24.3871 2.72711  16
   4   4  -9 0.92354 1.04846  12
   4   4  -9 0.20913 1.02705   6
   4   4  -9 1.71099 2.24875  26
  -4  -4   9 -1.0011 3.09045  15
  -4  -4   9 1.05788 3.04296   9
   3   4  -9 42.3474 3.23698  12
   3   4  -9 45.6548 4.94857  26
   3   4  -9 39.3653 3.11962   6
  -3  -4   9 36.8648 6.12016  26
  -3  -4   9 37.3292 6.84258  15
  -3  -4   9 33.8364 6.33244   9
   2   4  -9 224.725 18.7112  26
  -2  -4   9 202.200 18.2812  15
  -2  -4   9 198.311 17.4318   9
  -2  -4   9 174.120 19.3035  26
  -1  -4   9 10.3076 3.40003   9
  -1  -4   9 13.0315 3.80533  15
  -1  -4   9 10.6135 3.55029  26
   0  -4   9 0.21183 0.48479   3
   0  -4   9 -0.7602 2.86126  16
   0  -4   9 1.08833 3.55184  26
   0  -4   9 1.99845 3.20249   2
   1  -4   9 497.804 35.4369  13
   1  -4   9 382.502 31.8505  16
   1  -4   9 395.793 40.1856  22
   1  -4   9 491.252 30.3116   3
   1  -4   9 504.439 34.5131   7
   1  -4   9 391.546 37.5358   2
   1  -4   9 504.458 40.9725  26
   2  -4   9 41.5726 5.76251   7
   2  -4   9 27.6684 4.77382  26
   2  -4   9 28.0075 3.27110  17
   2  -4   9 22.2142 3.67673  16
   2  -4   9 36.5726 5.65452  13
   2  -4   9 28.0449 4.66168  22
   3  -4   9 5.96230 2.88500  26
   3  -4   9 8.58504 2.08230  17
   3  -4   9 5.95880 3.02960  23
   3  -4   9 8.10538 3.54926  22
   3  -4   9 6.28730 2.37940  16
   4  -4   9 34.5797 3.74399  16
   4  -4   9 37.2241 3.60417  17
   4  -4   9 40.0457 5.94280  22
   4  -4   9 38.7182 4.75462  26
   5  -4   9 39.2540 3.08048  17
   5  -4   9 35.0348 4.54618  22
   6  -4   9 3.00039 1.34793  22
   6  -4   9 5.11969 0.71845  17
   7   3  -9 13.1177 2.15100  26
   7   3  -9 8.91479 1.29602  17
   7   3  -9 5.91660 3.07085  20
   7   3  -9 16.9414 1.69355  16
   6   3  -9 11.2315 2.30760  16
   6   3  -9 17.7627 1.95517  17
   6   3  -9 23.6949 4.02606  20
   6   3  -9 14.8002 3.05471  26
   5   3  -9 5.58478 2.42000  26
   5   3  -9 5.96840 2.05459  16
   4   3  -9 20.4925 3.28258  19
   4   3  -9 12.3922 2.12202  12
   4   3  -9 20.4993 2.75131  16
   4   3  -9 22.8432 3.48580  26
  -4  -3   9 20.8749 5.11556  15
  -4  -3   9 18.5558 4.84779   9
   3   3  -9 282.494 24.9931  26
   3   3  -9 266.649 14.9082  12
   3   3  -9 274.345 14.9452   6
   2   3  -9 16.1097 3.24598  26
  -2  -3   9 10.1832 4.51993  26
  -1  -3   9 17.5375 3.91387  26
   0  -3   9 121.349 10.7397   7
   0  -3   9 114.068 12.6364  26
   0  -3   9 122.293 10.9904  13
   1  -3   9 53.3833 6.46941   7
   1  -3   9 48.2550 7.38058  26
   1  -3   9 52.3546 3.73676   3
   1  -3   9 45.4836 5.28030  16
   1  -3   9 53.8157 6.69265  13
   1  -3   9 43.8768 6.86239   2
   1  -3   9 48.8816 6.65622  22
   2  -3   9 8.50194 3.74909   7
   2  -3   9 9.31135 3.64034  22
   2  -3   9 7.50285 3.32938   2
   2  -3   9 6.08017 3.64624  13
   2  -3   9 3.49182 2.72995  16
   2  -3   9 9.00858 3.75990  26
   2  -3   9 4.72281 2.02042  17
   3  -3   9 12.1613 2.98275  16
   3  -3   9 17.7556 3.89136  26
   3  -3   9 18.3025 4.14381  22
   3  -3   9 17.5445 2.54508  17
   4  -3   9 45.1661 5.51653  22
   4  -3   9 41.7552 5.45728  26
   4  -3   9 41.3962 4.27466  16
   4  -3   9 42.4935 3.97544  17
   5  -3   9 14.0106 1.80797  17
   5  -3   9 15.9850 1.79681  16
   5  -3   9 10.2416 2.95971  22
   6  -3   9 81.3765 7.44119  22
   6  -3   9 75.8898 5.48758  17
   8   2  -9 0.29675 1.66182  20
   8   2  -9 0.45465 0.97337  17
   7   2  -9 2.33460 1.42006  16
   7   2  -9 3.03623 1.01472  17
   7   2  -9 1.57383 1.84398  26
   7   2  -9 2.32730 2.19766  20
   6   2  -9 17.7782 4.48675  20
   6   2  -9 16.8675 3.24093  19
   6   2  -9 26.1572 2.68253  16
   6   2  -9 22.0225 3.31823  26
   6   2  -9 23.4357 2.62628  17
   5   2  -9 16.3861 2.13412  17
   5   2  -9 6.31389 2.06009   6
   5   2  -9 19.5721 2.88140  19
   5   2  -9 19.0999 2.62126  16
   5   2  -9 8.46826 2.14721  12
   5   2  -9 15.8418 3.00716  26
   4   2  -9 158.093 14.4108   2
   4   2  -9 138.616 11.3545   3
   4   2  -9 187.272 15.3753  26
   4   2  -9 152.231 9.37003   6
   4   2  -9 188.727 12.0605  16
   3   2  -9 867.399 70.5666   2
   3   2  -9 886.672 45.1148  12
   3   2  -9 783.966 58.9870   3
   3   2  -9 988.907 77.7860  26
  -2  -2   9 8.41385 4.15589  26
   1   2  -9 -0.5930 2.52059  26
  -1  -2   9 1.23821 3.58654  26
   0   2  -9 67.3323 7.60455  26
   0  -2   9 54.2848 7.52969  26
   0  -2   9 52.7902 6.39684   7
   0  -2   9 53.8360 6.59661  13
   1  -2   9 306.223 27.8395  26
   1  -2   9 310.290 23.6245   7
   1  -2   9 311.239 24.3209  13
   1  -2   9 257.155 25.6250   2
   1  -2   9 302.367 20.2078   3
   2  -2   9 285.561 22.4073  16
   2  -2   9 260.856 26.5340   2
   2  -2   9 330.048 24.7465   7
   2  -2   9 333.111 28.8725  26
   2  -2   9 328.846 21.2001   3
   2  -2   9 338.413 25.5319  13
   3  -2   9 5.23342 1.98532  16
   3  -2   9 5.35989 2.53500  26
   3  -2   9 2.07508 3.44496  22
   3  -2   9 4.71990 2.01249  17
   4  -2   9 138.136 11.1146  16
   4  -2   9 161.668 14.5291  22
   4  -2   9 148.559 14.2791  26
   4  -2   9 146.642 10.6036  17
   5  -2   9 34.8711 4.56619  22
   5  -2   9 38.1786 3.32088  16
   5  -2   9 36.9885 4.23322  26
   5  -2   9 42.4479 3.21914  17
   8   1  -9 14.8734 2.80364  20
   8   1  -9 6.68308 1.28010  17
   7   1  -9 234.630 20.2493  19
   7   1  -9 266.289 16.9884  17
   7   1  -9 231.121 22.1412  26
   7   1  -9 249.154 17.3263  16
   6   1  -9 20.1914 3.70199  19
   6   1  -9 23.9403 2.26234  17
   6   1  -9 24.6591 2.73025  16
   6   1  -9 19.3281 3.26139  26
   6   1  -9 23.1846 4.53447  20
   5   1  -9 7.73423 1.64999  17
   5   1  -9 8.32245 2.42840  19
   5   1  -9 8.08833 2.03530  16
   5   1  -9 8.14536 2.44931  26
   4   1  -9 165.782 11.2592  17
   4   1  -9 157.236 9.09132   6
   4   1  -9 170.063 11.7357  16
   4   1  -9 161.513 14.0941   2
   4   1  -9 160.890 14.9351  26
   4   1  -9 165.986 9.09668  12
   4   1  -9 141.907 11.0091   3
   3   1  -9 84.4111 4.66719   6
   3   1  -9 69.0389 5.28972   3
   3   1  -9 69.3005 7.36691  26
   3   1  -9 82.1110 4.67835  12
   3   1  -9 70.5227 7.09095   2
   3   1  -9 72.1638 5.79212  16
   2   1  -9 25.4029 3.10958   4
   2   1  -9 33.7220 4.07703  26
   2   1  -9 25.1696 3.29633  10
   2   1  -9 28.8313 3.90853   2
   2   1  -9 21.8889 2.07020   3
   1   1  -9 52.5699 5.25594   4
   1   1  -9 69.9963 7.13340  26
   1   1  -9 51.4366 5.43932  10
  -1  -1   9 46.0786 7.28860  26
   0   1  -9 152.420 13.2866  10
   0   1  -9 162.216 12.8358   4
   0   1  -9 183.096 15.6037  26
   0  -1   9 132.752 15.6389  26
   0  -1   9 154.845 13.3554   7
   0  -1   9 152.496 13.6689  13
   1  -1   9 11.9388 3.70057  13
   1  -1   9 11.5087 3.71906   7
   1  -1   9 10.4833 3.27023  26
   2  -1   9 257.491 22.7875  26
   2  -1   9 258.112 20.3420  13
   2  -1   9 259.371 19.7865   7
   2  -1   9 209.820 17.5590  16
   3  -1   9 2.94489 1.89913  16
   3  -1   9 0.42415 3.38121  26
   4  -1   9 1.84160 1.59208  16
   4  -1   9 3.49549 2.18376  26
   4  -1   9 3.06215 3.08238  22
   4  -1   9 1.96569 1.73427  17
   5  -1   9 4.68961 1.49090  17
   5  -1   9 7.45920 2.11362  22
   5  -1   9 6.72055 1.59183  16
   5  -1   9 4.88033 1.96009  26
   8   0  -9 1.19455 0.94089  17
   8   0  -9 2.15909 2.07948  20
   8   0  -9 0.94321 1.30184  19
   7   0  -9 74.2888 8.18210  26
   7   0  -9 88.9569 8.33065  19
   7   0  -9 102.161 10.1666  20
   7   0  -9 85.5881 6.34916  16
   7   0  -9 84.3456 6.32727  17
   6   0  -9 0.34404 3.03618  20
   6   0  -9 2.65931 1.88207  26
   6   0  -9 3.33558 1.61936  16
   6   0  -9 5.92289 3.20032  19
   6   0  -9 2.79434 1.36960  17
   5   0  -9 4.12649 2.01435   2
   5   0  -9 5.34432 3.26274  19
   5   0  -9 5.96568 1.87124  16
   5   0  -9 5.60672 2.16139  26
   5   0  -9 7.61392 1.54470  17
   4   0  -9 1.71645 0.58938   3
   4   0  -9 0.80524 1.74382   2
   4   0  -9 4.26849 1.75148  16
   4   0  -9 2.20600 1.73386  10
   4   0  -9 3.37207 1.29620  17
   4   0  -9 2.30707 1.92903  26
   4   0  -9 1.31077 1.65368   4
   3   0  -9 2.28794 1.81779   4
   3   0  -9 3.46694 0.66580   3
   3   0  -9 3.70659 1.91947  10
   2   0  -9 486.389 35.7254   3
   2   0  -9 587.683 43.2251   2
   2   0  -9 528.488 39.9618   4
   2   0  -9 574.574 47.4014  26
   2   0  -9 492.525 41.5718  10
   2   0  -9 528.090 37.0587  16
   1   0  -9 19.1145 3.30697  10
   1   0  -9 24.7656 4.06009  26
   1   0  -9 20.2632 3.21909   4
  -1   0   9 13.5314 3.28754   7
  -1   0   9 9.88234 3.05959  13
   0   0  -9 83.0884 7.50821   4
   0   0  -9 76.5212 7.70512  10
   0   0  -9 102.002 9.60125  26
   0   0   9 71.1650 9.68243  26
   0   0   9 76.7821 8.02953   7
   0   0   9 68.8988 8.07911  13
  -1   0  -9 40.7221 5.97562  26
   1   0   9 34.0606 5.79587  26
   1   0   9 24.0480 4.92842  13
   1   0   9 26.7859 4.93911   7
   2   0   9 11.2795 3.81530   7
   2   0   9 7.45063 3.67287  13
   2   0   9 11.1282 4.23943  26
   3   0   9 33.9588 5.05107  26
   3   0   9 31.2050 3.70810  16
   4   0   9 2.00287 1.57882  16
   4   0   9 0.58615 1.96754  26
   4   0   9 -1.9181 2.03202  22
   5   0   9 41.4020 4.65418  22
   5   0   9 44.6635 4.77065  26
   5   0   9 34.9827 3.35636  16
   8  -1  -9 40.5921 3.28944  17
   8  -1  -9 42.6593 5.02882  19
   8  -1  -9 49.8227 6.29704  20
   7  -1  -9 75.2257 8.01331  19
   7  -1  -9 78.2716 5.71838  17
   7  -1  -9 81.4065 9.71327  20
   6  -1  -9 167.905 11.4351  17
   6  -1  -9 148.980 14.8903  26
   6  -1  -9 159.588 11.6677  16
   6  -1  -9 176.679 17.7918  20
   6  -1  -9 163.748 14.4890  19
   5  -1  -9 122.128 10.6860  19
   5  -1  -9 123.216 8.09961  17
   5  -1  -9 116.553 10.7651  26
   5  -1  -9 130.069 8.50572  16
   5  -1  -9 100.594 10.0733   2
   5  -1  -9 94.9947 9.92681  10
   5  -1  -9 105.130 10.4640  18
   5  -1  -9 92.6122 9.51762   4
   4  -1  -9 6.14738 1.32890  17
   4  -1  -9 5.74972 2.01649   2
   4  -1  -9 5.78121 2.13656  26
   4  -1  -9 6.39531 2.47596  18
   4  -1  -9 7.33508 1.79667  16
   4  -1  -9 4.04301 1.96021   4
   4  -1  -9 6.48183 2.24706  10
   4  -1  -9 4.11365 0.75470   3
   3  -1  -9 231.539 19.2300  10
   3  -1  -9 228.066 16.1921  17
   3  -1  -9 277.378 21.7457  26
   3  -1  -9 242.928 19.8730   2
   3  -1  -9 217.489 20.2000  18
   3  -1  -9 210.592 16.0055   3
   3  -1  -9 243.076 18.5055   4
   3  -1  -9 247.049 16.8525  16
   2  -1  -9 98.1322 9.28822  10
   2  -1  -9 89.1398 9.56915  18
   2  -1  -9 116.364 10.5255  26
   2  -1  -9 110.354 9.65406   2
   2  -1  -9 111.929 8.08874  16
   2  -1  -9 109.358 9.02202   4
   2  -1  -9 91.6066 7.14749   3
   1  -1  -9 10.4302 2.75508   4
   1  -1  -9 9.15136 1.14867   3
   1  -1  -9 8.60440 2.70532  10
   1  -1  -9 11.2309 3.46109  26
   1  -1  -9 9.67962 2.77582   2
   0  -1  -9 -1.3565 3.14927  26
   0  -1  -9 -0.9709 2.04953  10
   0  -1  -9 -0.2219 2.04052   4
   0   1   9 1.82590 3.67962  26
  -1  -1  -9 2.04379 3.68507  26
   1   1   9 4.50087 3.86274  26
  -2  -1  -9 38.7242 5.95871  26
   2   1   9 18.1905 4.28041  13
   2   1   9 23.5549 5.20468  26
   2   1   9 19.7647 4.31377   7
   3   1   9 17.1941 2.81411  16
   3   1   9 19.4099 4.68342  26
   4   1   9 6.15824 3.22766  26
   4   1   9 6.41987 2.40829  16
   5   1   9 12.2467 2.08678  22
   5   1   9 10.7507 1.53566  16
   5   1   9 7.56864 1.91163  26
   9  -2  -9 3.17666 1.40038  19
   8  -2  -9 5.46810 3.00213  20
   8  -2  -9 8.36468 0.97568  17
   8  -2  -9 5.80108 2.73741  19
   7  -2  -9 111.992 7.46992  17
   7  -2  -9 104.237 11.9627  20
   7  -2  -9 112.982 10.1886  19
   7  -2  -9 86.4283 9.69232  18
   6  -2  -9 224.606 15.1203  16
   6  -2  -9 219.106 14.9082  17
   6  -2  -9 189.118 18.6702  18
   6  -2  -9 225.837 18.5802  19
   5  -2  -9 0.99780 1.34059   2
   5  -2  -9 1.21898 1.60200  10
   5  -2  -9 1.10562 1.53786   4
   5  -2  -9 -0.3908 3.01880  19
   5  -2  -9 1.54607 1.13791  17
   5  -2  -9 0.33832 1.84474  25
   5  -2  -9 0.57266 1.31904  16
   5  -2  -9 0.53113 1.48430  26
   5  -2  -9 3.77225 2.68275  18
   4  -2  -9 1.56083 2.09622   4
   4  -2  -9 0.92310 1.84475  26
   4  -2  -9 0.38155 1.99398  10
   4  -2  -9 1.15459 1.12317  17
   4  -2  -9 0.39592 1.58209   2
   4  -2  -9 2.47061 2.70718  19
   4  -2  -9 0.17899 0.39930   3
   4  -2  -9 -0.4661 1.45575  16
   4  -2  -9 0.14832 2.60290  18
   3  -2  -9 49.1561 5.68707  10
   3  -2  -9 54.8565 5.54951   2
   3  -2  -9 53.7580 4.58525  16
   3  -2  -9 50.8078 6.00073  18
   3  -2  -9 48.9779 3.80463  17
   3  -2  -9 49.1469 5.93047  26
   3  -2  -9 53.1937 5.51275   4
   3  -2  -9 44.5003 3.65075   3
   2  -2  -9 48.6110 3.78155   3
   2  -2  -9 58.2579 5.71861   4
   2  -2  -9 53.9918 5.73328   2
   2  -2  -9 54.7181 6.41922  26
   2  -2  -9 49.4129 3.96892  17
   2  -2  -9 47.8070 6.17445  18
   2  -2  -9 45.8156 4.91829  16
   2  -2  -9 49.3827 5.79890  10
   1  -2  -9 78.6664 5.95911   3
   1  -2  -9 89.1013 8.48137   2
   1  -2  -9 81.9067 7.08194  16
   1  -2  -9 86.8074 9.33310  26
   1  -2  -9 78.8309 7.92425  10
   1  -2  -9 88.0676 7.76144   4
   0  -2  -9 1.59654 1.71727   4
   0  -2  -9 1.46108 3.29342  26
   0  -2  -9 -0.1880 1.56372  10
   1   2   9 123.027 13.3833  26
   2   2   9 123.290 13.4670  26
   3   2   9 1.10064 2.65581  26
   4   2   9 7.84720 2.39618  16
   4   2   9 6.46631 3.21993  26
   5   2   9 1.51161 0.93298  16
   5   2   9 1.17069 1.18847  26
   9  -3  -9 -0.3588 1.28997  19
   8  -3  -9 1.58360 2.75423  20
   8  -3  -9 -0.6442 2.69585  19
   8  -3  -9 1.88291 1.56074  18
   7  -3  -9 230.937 21.5533  18
   7  -3  -9 258.218 21.1610  19
   7  -3  -9 263.299 17.2419  17
   6  -3  -9 1.63658 2.11381  25
   6  -3  -9 1.49107 2.72239  18
   6  -3  -9 -0.0548 3.17374  19
   6  -3  -9 1.01931 1.13252  17
   5  -3  -9 13.7390 2.69025  18
   5  -3  -9 7.40405 1.67790  26
   5  -3  -9 11.9084 2.25082  25
   5  -3  -9 8.32959 2.81272   4
   5  -3  -9 12.1630 3.37866  19
   5  -3  -9 7.97149 2.85160  10
   5  -3  -9 4.73138 1.55579   2
   5  -3  -9 11.1679 1.48653  17
   5  -3  -9 9.06030 1.41288  16
   4  -3  -9 0.24584 0.39875   3
   4  -3  -9 -2.0504 2.02348   4
   4  -3  -9 1.86702 2.80698  18
   4  -3  -9 -1.4009 2.56282  19
   4  -3  -9 0.39940 1.01239  17
   4  -3  -9 0.92685 1.62218  25
   4  -3  -9 0.12727 2.21200  10
   4  -3  -9 1.35595 1.38373  16
   4  -3  -9 1.01092 1.44227   2
   4  -3  -9 1.13936 1.76134  26
   3  -3  -9 86.5291 8.47446  26
   3  -3  -9 73.1624 5.96056   3
   3  -3  -9 83.7053 8.77316  18
   3  -3  -9 89.6876 6.26622  17
   3  -3  -9 90.4040 8.00206   2
   3  -3  -9 88.6709 6.52543  16
   3  -3  -9 86.0390 8.15022   4
   3  -3  -9 85.2198 8.45410  10
   2  -3  -9 69.3247 7.23115  10
   2  -3  -9 75.6678 5.52978  17
   2  -3  -9 69.5220 7.89155  26
   2  -3  -9 72.8767 7.22990   2
   2  -3  -9 70.7902 6.95848   4
   2  -3  -9 62.4846 7.84242  18
   2  -3  -9 78.8165 6.05893  16
   2  -3  -9 67.3792 5.13364   3
   1  -3  -9 0.93131 2.32586   4
   1  -3  -9 0.97231 0.65132   3
   1  -3  -9 2.43647 2.34764   2
   1  -3  -9 2.32356 2.30518  16
   1  -3  -9 3.37250 2.60443  10
   1  -3  -9 0.33062 3.09764  26
   0  -3  -9 23.0096 4.38275   4
   0  -3  -9 36.6904 5.03819  26
   0  -3  -9 25.6370 4.64546  10
  -1  -3  -9 1.26620 3.84295  26
   1   3   9 0.93182 4.11037  26
  -2  -3  -9 -1.6556 4.04015  26
   2   3   9 -2.4274 3.96141  26
  -3  -3  -9 5.93163 4.19478  26
   3   3   9 -1.3810 3.51232  26
   4   3   9 13.4008 2.10607  16
   4   3   9 16.7727 3.62585  26
   9  -4  -9 0.99817 1.43267  19
   8  -4  -9 -0.8141 1.92642  19
   8  -4  -9 -0.1724 1.70986  18
   7  -4  -9 1.97546 0.74395  17
   7  -4  -9 1.69478 2.03741  19
   7  -4  -9 1.75120 2.72735  18
   6  -4  -9 5.56104 2.23682  25
   6  -4  -9 6.18926 2.40446  18
   6  -4  -9 9.88947 2.61621  19
   6  -4  -9 6.49053 1.23395  17
   5  -4  -9 130.607 10.0064  25
   5  -4  -9 130.183 8.81895  17
   5  -4  -9 96.2358 11.2199  10
   5  -4  -9 97.6027 10.7839   4
   5  -4  -9 123.067 11.4977  18
   5  -4  -9 144.316 11.4036  19
   5  -4  -9 126.063 8.75749  16
   4  -4  -9 17.1659 2.98845  18
   4  -4  -9 10.6220 2.88315  10
   4  -4  -9 10.8387 2.11345  25
   4  -4  -9 9.57437 1.01434   3
   4  -4  -9 6.92696 1.88993   2
   4  -4  -9 11.9772 2.88616   4
   4  -4  -9 12.8677 2.99214  19
   4  -4  -9 9.36008 2.08861  26
   4  -4  -9 11.7715 1.47114  17
   4  -4  -9 12.1458 1.67217  16
   3  -4  -9 81.5969 5.81122  17
   3  -4  -9 63.5684 5.47213   3
   3  -4  -9 70.4422 7.77792   4
   3  -4  -9 91.2516 8.25078  26
   3  -4  -9 76.1487 7.48446   2
   3  -4  -9 69.4082 8.04177  10
   3  -4  -9 79.7620 7.50521  19
   3  -4  -9 79.8884 8.59561  18
   3  -4  -9 93.0618 6.30149  16
   2  -4  -9 330.572 28.8520   2
   2  -4  -9 301.976 23.6348   3
   2  -4  -9 334.745 27.4467   4
   2  -4  -9 364.773 31.6785  26
   2  -4  -9 384.441 24.0516  17
   2  -4  -9 375.580 24.7153  16
   2  -4  -9 337.425 28.6171  10
   2  -4  -9 360.728 30.1322  18
   1  -4  -9 58.1314 5.42765  16
   1  -4  -9 52.5404 7.17242  26
   1  -4  -9 57.1622 6.20235  10
   1  -4  -9 54.0678 5.90836   4
   1  -4  -9 53.9206 6.32942   2
   1  -4  -9 49.5397 4.09651   3
   1  -4  -9 57.1901 4.71161  17
   0  -4  -9 5.30888 2.22419  16
   0  -4  -9 6.24638 2.45285   4
   0  -4  -9 5.21664 2.44010  10
   0  -4  -9 6.64183 3.05342  26
  -1  -4  -9 9.99702 3.59705  26
  -2  -4  -9 44.4140 6.44194  26
   2   4   9 37.4028 5.96690  26
   3   4   9 141.313 14.3325  26
   4   4   9 2.38940 1.45108  16
   4   4   9 4.06399 2.00270  26
   9  -5  -9 13.9570 2.54395  19
   8  -5  -9 29.4438 3.83735  19
   8  -5  -9 26.1385 3.51076  18
   7  -5  -9 46.9389 5.50274  19
   7  -5  -9 43.0262 5.78116  18
   7  -5  -9 36.3671 3.92925  25
   6  -5  -9 105.726 8.85107  19
   6  -5  -9 90.7667 7.72427  25
   6  -5  -9 87.4966 9.80306  18
   6  -5  -9 94.6442 6.65832  17
   5  -5  -9 62.4713 8.00883  18
   5  -5  -9 71.6464 6.67070  19
   5  -5  -9 63.6248 4.95905  17
   5  -5  -9 73.9340 6.17296  25
   4  -5  -9 28.9149 3.95848   2
   4  -5  -9 46.2465 3.28821  17
   4  -5  -9 33.1239 4.41243  26
   4  -5  -9 39.7831 5.30793  18
   4  -5  -9 39.8981 5.69716  10
   4  -5  -9 47.6043 4.33446  25
   4  -5  -9 45.3458 5.03732  19
   4  -5  -9 38.1146 3.38697  16
   4  -5  -9 37.7382 4.84922   4
   3  -5  -9 32.7054 5.08981  10
   3  -5  -9 31.2077 4.84941   4
   3  -5  -9 43.0723 5.45545  18
   3  -5  -9 31.3162 3.96908  25
   3  -5  -9 38.1866 4.85737  26
   3  -5  -9 37.0061 3.21485  17
   3  -5  -9 38.5944 3.68031  16
   3  -5  -9 28.7539 4.40372  24
   2  -5  -9 67.0361 7.18024   4
   2  -5  -9 69.9956 7.94436  18
   2  -5  -9 59.8123 5.73921  25
   2  -5  -9 57.4446 7.19416  10
   2  -5  -9 62.6734 7.35316  26
   2  -5  -9 74.9651 5.70072  16
   2  -5  -9 60.6146 4.89364  17
   1  -5  -9 72.9878 8.94900  26
   1  -5  -9 66.1618 7.82453   4
   1  -5  -9 90.2953 6.88449  16
   1  -5  -9 66.6722 8.12488  10
   1  -5  -9 82.3558 6.18084  17
   0  -5  -9 81.3682 8.95871  26
   0  -5  -9 76.1259 6.71304  16
  -1  -5  -9 15.4052 2.93279  16
  -1  -5  -9 16.3530 4.10807  26
  -2  -5  -9 34.3198 5.54011  26
   2   5   9 16.7381 4.88065  26
   3   5   9 22.8227 3.77101  26
   8  -6  -9 0.35335 1.98791  18
   8  -6  -9 1.38379 1.75255  19
   7  -6  -9 11.5354 2.76200  18
   7  -6  -9 6.63873 2.68537  19
   7  -6  -9 13.1287 2.42620  25
   6  -6  -9 14.1817 3.18848  18
   6  -6  -9 10.3867 2.94028  19
   6  -6  -9 18.9975 1.40296  17
   6  -6  -9 11.0976 2.57302  25
   5  -6  -9 -0.4434 1.97209  25
   5  -6  -9 0.51543 0.79302  17
   5  -6  -9 0.02362 2.35649  19
   5  -6  -9 -0.0253 3.56202  18
   4  -6  -9 18.8868 4.26514  18
   4  -6  -9 16.9392 1.51589  16
   4  -6  -9 20.6158 2.08709  17
   4  -6  -9 22.5828 2.58816  25
   4  -6  -9 22.2408 4.04803  24
   3  -6  -9 40.7888 4.98186  26
   3  -6  -9 25.4010 4.38962  24
   3  -6  -9 43.2635 5.46670  18
   3  -6  -9 40.5331 3.73526  16
   3  -6  -9 34.7615 4.15830  25
   3  -6  -9 26.1853 4.61761   4
   3  -6  -9 28.2929 4.92597  10
   3  -6  -9 37.8579 3.21001  17
   2  -6  -9 44.2605 5.67056  26
   2  -6  -9 42.6296 3.85387  17
   2  -6  -9 42.5744 4.12162  25
   2  -6  -9 47.2718 5.84679  18
   2  -6  -9 49.6976 4.33480  16
   2  -6  -9 23.0925 5.26659  10
   1  -6  -9 108.426 8.22714  16
   1  -6  -9 98.5322 10.6693  26
   1  -6  -9 106.677 7.49027  17
   1  -6  -9 90.5089 8.19424  25
   0  -6  -9 345.636 23.4695  16
   0  -6  -9 304.446 30.0840  26
  -1  -6  -9 1.31459 2.87715  16
  -1  -6  -9 -1.1693 3.84874  26
  -2  -6  -9 104.688 8.17000  16
  -2  -6  -9 100.702 11.2442  26
  -3  -6  -9 7.44232 2.29352  26
   3   6   9 4.20685 2.17909  26
   8  -7  -9 -0.1294 1.88204  18
   8  -7  -9 0.73158 1.41831  19
   7  -7  -9 19.0215 2.25757  25
   7  -7  -9 11.7220 2.84110  19
   7  -7  -9 16.4444 2.98060  18
   6  -7  -9 56.3962 7.38172  18
   6  -7  -9 58.5216 5.89748  19
   6  -7  -9 65.8045 5.73299  25
   5  -7  -9 0.00572 2.23667  24
   5  -7  -9 0.83497 2.05076  25
   5  -7  -9 1.59980 0.66514  17
   5  -7  -9 -0.4517 3.36216  18
   4  -7  -9 42.0984 3.04531  17
   4  -7  -9 26.0083 4.67541  24
   4  -7  -9 37.1892 4.40233  25
   4  -7  -9 31.4824 5.08405  18
   3  -7  -9 21.8690 4.71675  18
   3  -7  -9 40.2977 3.20623  16
   3  -7  -9 31.6494 3.86307  25
   3  -7  -9 38.4427 3.18155  17
   3  -7  -9 36.0796 4.28913  24
   2  -7  -9 39.9722 5.23157  26
   2  -7  -9 37.6171 4.05852  25
   2  -7  -9 41.6264 5.46205  18
   2  -7  -9 38.2625 3.70631  17
   2  -7  -9 46.6758 3.97558  16
   1  -7  -9 12.8828 1.85714  17
   1  -7  -9 3.74483 2.20277  25
   1  -7  -9 10.6879 2.44607  16
   1  -7  -9 10.1917 2.85949  18
   1  -7  -9 8.09066 3.26783  26
   0  -7  -9 6.32150 3.62422  26
   0  -7  -9 3.34022 1.90900  17
   0  -7  -9 7.35409 2.53389  18
   0  -7  -9 5.67885 2.63412  16
  -1  -7  -9 21.3887 2.83575  16
  -1  -7  -9 22.2411 4.01353  26
  -2  -7  -9 49.9580 5.97304  26
  -2  -7  -9 54.0259 4.46373  16
  -2  -7  -9 47.5090 5.53025  18
   8  -8  -9 5.26176 1.79272  18
   7  -8  -9 7.45793 1.62787  25
   7  -8  -9 5.47575 2.12399  18
   6  -8  -9 0.35100 2.97358  18
   6  -8  -9 -0.4804 1.41980  25
   5  -8  -9 54.6785 6.58605  18
   5  -8  -9 49.8068 6.30330  24
   5  -8  -9 50.2509 3.54924  17
   5  -8  -9 59.5728 5.21370  25
   4  -8  -9 1.24719 1.75567  25
   4  -8  -9 0.50346 2.91241  24
   4  -8  -9 0.01353 3.17569  18
   4  -8  -9 2.13813 0.85798  17
   3  -8  -9 0.80663 1.19779  17
   3  -8  -9 -0.5682 2.96762  18
   3  -8  -9 0.59469 2.35816  25
   2  -8  -9 1.80900 1.67784  26
   2  -8  -9 2.24406 1.28694  16
   2  -8  -9 -0.1864 2.86153  18
   2  -8  -9 4.63980 2.39507  25
   2  -8  -9 2.00660 1.48216  17
   1  -8  -9 23.1386 2.18300  17
   1  -8  -9 22.9381 3.26183  18
   1  -8  -9 11.5385 2.65558  25
   1  -8  -9 14.3665 2.28415  16
   1  -8  -9 14.0900 3.06583  26
   0  -8  -9 25.3345 2.43047  17
   0  -8  -9 18.3605 3.78631  26
   0  -8  -9 19.2611 2.76788  16
   0  -8  -9 26.2285 3.50472  18
   0  -8  -9 19.8376 2.64048  25
  -1  -8  -9 7.61950 2.87676  26
  -1  -8  -9 13.2063 2.11400  18
  -1  -8  -9 9.65919 1.80113  16
   7  -9  -9 -2.0371 2.03054  18
   7  -9  -9 2.03413 1.32392  25
   6  -9  -9 94.4411 7.37159  25
   6  -9  -9 87.1203 8.51773  18
   5  -9  -9 0.83323 2.50105  18
   5  -9  -9 0.23852 1.94046  25
   5  -9  -9 3.38935 2.11585  24
   4  -9  -9 13.8603 2.61263  24
   4  -9  -9 8.01257 2.93399  18
   4  -9  -9 15.5441 1.36556  17
   4  -9  -9 11.2529 2.48581  25
   3  -9  -9 40.3060 4.71796  18
   3  -9  -9 38.5644 4.46119  25
   3  -9  -9 37.6876 3.10600  17
   2  -9  -9 61.8900 6.56296  18
   2  -9  -9 58.9493 4.51654  17
   2  -9  -9 61.3105 5.31916  25
   1  -9  -9 1.20805 1.39097  17
   1  -9  -9 0.71500 1.98449  25
   1  -9  -9 1.40451 1.62888  18
   1  -9  -9 1.25980 1.18167  26
   1  -9  -9 0.83296 0.89439  16
   0  -9  -9 29.2467 2.44097  16
   0  -9  -9 22.3145 3.29166  26
   0  -9  -9 23.6651 2.29921  17
   7 -10  -9 7.77759 1.35359  25
   6 -10  -9 30.2642 2.91825  25
   6 -10  -9 27.1777 3.32531  18
   5 -10  -9 4.95152 2.23448  18
   5 -10  -9 4.07571 1.83101  25
   4 -10  -9 151.477 13.7742  18
   4 -10  -9 165.283 12.2228  25
   3 -10  -9 1.77907 1.50078  18
   3 -10  -9 1.55410 0.73951  17
   3 -10  -9 1.07169 1.53574  25
   2 -10  -9 10.7040 1.17526  17
   2 -10  -9 9.61898 1.80409  25
   1 -10  -9 2.55667 1.04587  17
   1 -10  -9 3.77320 1.30019  25
   5 -11  -9 1.76490 1.04901  25
   4 -11  -9 167.740 12.7201  25
   3 -11  -9 93.7412 7.46579  25
   1 -11  10 69.8463 5.06542  17
  -2 -10  10 69.4579 6.33354  26
  -2 -10  10 53.2965 4.85474  16
  -1 -10  10 41.4572 4.66670  26
  -1 -10  10 28.6127 3.70101  24
  -1 -10  10 37.5569 3.67099  16
   0 -10  10 2.81149 2.10649  23
   0 -10  10 0.41700 1.17085  16
   0 -10  10 0.91654 1.76519  17
   0 -10  10 1.30568 1.49113  26
   1 -10  10 97.0074 7.04225  17
   2 -10  10 32.2560 4.79936  23
   2 -10  10 24.7946 2.50165  17
   3 -10  10 35.0401 4.17187  23
  -3  -9  10 84.8256 8.24877  24
  -3  -9  10 110.390 10.2007  26
  -2  -9  10 -1.3463 1.86625  16
  -2  -9  10 -1.2724 2.16657  24
  -2  -9  10 0.06082 2.40284  26
  -1  -9  10 2.66009 3.07745  26
  -1  -9  10 0.67629 2.09139  23
  -1  -9  10 -0.0104 1.97969  24
  -1  -9  10 -1.4805 2.62627  16
   0  -9  10 18.0765 2.51847  17
   0  -9  10 21.9579 3.96498  23
   0  -9  10 22.1949 2.83516  16
   0  -9  10 26.9077 3.67622  26
   1  -9  10 7.47194 2.18763  17
   1  -9  10 14.2021 2.05372  16
   1  -9  10 24.1877 3.66449  23
   1  -9  10 12.9316 2.46658  26
   2  -9  10 4.17196 2.31873  23
   2  -9  10 4.42747 1.58218  17
   3  -9  10 38.2948 3.27845  17
   3  -9  10 47.2337 5.46157  23
   4   8 -10 28.0633 3.56105  26
  -4  -8  10 18.4411 4.07359  26
  -3  -8  10 31.8130 4.14430  16
  -3  -8  10 43.4229 5.75234  26
  -2  -8  10 18.2106 3.92766  26
  -2  -8  10 15.0536 3.23058  16
  -1  -8  10 36.5777 5.78886  26
  -1  -8  10 31.0195 4.77737  16
  -1  -8  10 38.7280 5.40651  23
   0  -8  10 2.56117 3.38378  26
   0  -8  10 2.48395 3.08952  16
   0  -8  10 0.67593 2.13861  17
   0  -8  10 3.40634 2.74188  23
   1  -8  10 2.17673 3.68274  23
   1  -8  10 5.82142 2.60404  16
   1  -8  10 5.90831 2.97502  26
   1  -8  10 3.38753 1.51629  17
   2  -8  10 85.7974 8.31741  23
   2  -8  10 72.3168 7.16032  26
   2  -8  10 70.4356 5.85284  17
   2  -8  10 67.5179 5.64110  16
   3  -8  10 6.81336 2.01467  22
   3  -8  10 2.86291 2.82191  23
   3  -8  10 5.02773 1.14659  17
   4  -8  10 -0.2527 0.78309  17
   4  -8  10 -0.6759 1.28999  23
   4  -8  10 -0.0300 1.97138  22
   5   7 -10 7.61515 1.87156  26
  -5  -7  10 7.92076 3.10947  26
   4   7 -10 68.6101 6.65123  26
  -4  -7  10 39.7594 7.20644  26
   3   7 -10 37.3219 4.73032  26
  -3  -7  10 39.4380 5.98885  26
  -2  -7  10 101.154 10.0492  26
  -2  -7  10 75.4116 7.82800  16
  -2  -7  10 83.9067 9.99626  23
  -1  -7  10 1.67161 3.07967  26
  -1  -7  10 0.56687 3.62312  23
  -1  -7  10 -0.3860 2.56515  16
   0  -7  10 1.98472 2.16457  17
   0  -7  10 -1.5479 3.75496  26
   0  -7  10 0.25087 2.64946  23
   0  -7  10 1.11329 3.28486  16
   1  -7  10 54.6221 6.49585  26
   1  -7  10 40.6413 5.94763  23
   1  -7  10 29.1179 4.36670  16
   2  -7  10 1.39976 2.05382  16
   2  -7  10 2.41787 2.46854  23
   2  -7  10 2.42493 2.44470  26
   3  -7  10 2.45999 2.86859  22
   3  -7  10 0.67321 1.99668  23
   3  -7  10 1.62141 0.93015  16
   4  -7  10 18.8008 3.03363  22
   6   6 -10 0.54761 1.26162  26
   6   6 -10 0.99391 2.03489  20
   6   6 -10 0.83787 0.97600  16
   5   6 -10 79.7545 6.02546  16
   5   6 -10 77.4361 7.55901  26
  -5  -6  10 58.9948 8.46784  26
   4   6 -10 3.14884 1.82173  26
  -4  -6  10 2.56881 3.26426  26
   3   6 -10 112.963 10.4898  26
  -3  -6  10 80.5404 11.9450  26
  -2  -6  10 76.7931 10.2093  26
  -1  -6  10 46.8367 5.40618  16
  -1  -6  10 52.1386 7.07241  26
   0  -6  10 14.1607 3.74552  16
   0  -6  10 15.9404 4.71744  26
   1  -6  10 10.4591 3.88477  26
   1  -6  10 6.31136 3.07710  16
   1  -6  10 7.34891 2.39656  17
   2  -6  10 1.20528 3.18563  23
   2  -6  10 -1.2656 2.82819  22
   2  -6  10 -0.6281 1.98743  17
   2  -6  10 -1.8830 2.60383  26
   2  -6  10 -0.3932 1.67879  16
   3  -6  10 76.7502 8.68553  22
   3  -6  10 73.9049 8.82713  23
   3  -6  10 78.4867 6.19039  16
   3  -6  10 75.9245 5.93564  17
   3  -6  10 85.4512 7.92427  26
   4  -6  10 2.58122 0.93324  17
   4  -6  10 2.59526 2.63456  22
   5  -6  10 1.20928 1.92691  22
   6   5 -10 87.2447 6.73806  16
   6   5 -10 80.0172 8.62129  26
   6   5 -10 104.340 10.1021  20
   5   5 -10 12.5195 2.89971  26
   5   5 -10 12.0083 1.92675  16
   4   5 -10 0.13499 2.30435  26
  -4  -5  10 5.13068 4.77050  26
   3   5 -10 74.1203 7.42939  26
  -3  -5  10 61.0149 8.62311  26
   2   5 -10 0.98585 2.47253  26
  -2  -5  10 0.07700 4.35813  26
  -2  -5  10 0.25801 3.82068   9
  -2  -5  10 1.94052 4.26231  15
  -1  -5  10 14.6788 4.14874  26
   0  -5  10 28.3983 4.20291  16
   0  -5  10 44.2820 5.85165  26
   1  -5  10 29.2936 3.39828  17
   1  -5  10 39.6471 5.72351  26
   1  -5  10 31.3668 3.92216  16
   2  -5  10 47.9669 4.43447  17
   2  -5  10 55.9587 6.84837  22
   2  -5  10 55.4375 5.66015  16
   2  -5  10 59.5563 6.98576  26
   2  -5  10 44.9475 6.33785  23
   3  -5  10 13.3196 3.49016  23
   3  -5  10 12.4609 3.46226  22
   3  -5  10 22.1726 2.78271  16
   3  -5  10 20.0820 3.30719  26
   3  -5  10 23.2563 2.42652  17
   4  -5  10 -0.2575 0.96832  16
   4  -5  10 -0.5349 1.72869  22
   4  -5  10 -1.0248 1.37939  17
   5  -5  10 -0.2374 0.56995  17
   5  -5  10 0.32381 1.95136  22
   7   4 -10 78.3133 7.89284  26
   7   4 -10 96.3951 9.32390  20
   7   4 -10 72.5523 6.01042  17
   7   4 -10 94.9157 6.17222  16
   6   4 -10 18.4943 2.81307  26
   6   4 -10 23.8454 2.40547  16
   6   4 -10 13.9325 3.57932  20
   5   4 -10 10.8362 2.72070  26
   5   4 -10 9.64880 2.21306  16
   4   4 -10 7.91558 2.60808  19
   4   4 -10 7.20151 2.17572  26
   3   4 -10 7.03951 1.66648   6
   3   4 -10 12.5009 2.96570  26
   3   4 -10 5.81866 1.65946  12
  -3  -4  10 9.95867 4.81736  26
  -3  -4  10 6.67700 4.29111   9
  -3  -4  10 6.58547 4.60814  15
   2   4 -10 1.24843 1.02481  12
   2   4 -10 2.89449 1.88198  26
   2   4 -10 2.96752 1.12984   6
  -2  -4  10 0.68944 3.15873  26
  -2  -4  10 1.00453 3.02704   9
  -2  -4  10 -0.0182 3.40148  15
   1   4 -10 12.2829 3.72452  26
  -1  -4  10 9.40067 4.77531  26
   0  -4  10 3.45005 3.18986  16
   0  -4  10 1.29061 3.85743  26
   1  -4  10 1.45921 2.09682  16
   1  -4  10 3.61567 2.77214  13
   1  -4  10 4.35288 2.82448  26
   1  -4  10 3.39469 2.76298   7
   2  -4  10 131.447 10.0236  17
   2  -4  10 139.876 13.4299  22
   2  -4  10 123.191 10.3414  16
   2  -4  10 145.929 13.7577  26
   3  -4  10 3.27284 1.91179  17
   3  -4  10 2.05032 2.29202  22
   3  -4  10 1.26426 2.52881  26
   3  -4  10 1.54179 2.18596  16
   4  -4  10 8.99082 1.91433  26
   4  -4  10 8.46646 1.34243  16
   4  -4  10 7.26251 1.73183  17
   4  -4  10 9.51169 2.92572  22
   5  -4  10 17.6396 1.76191  17
   5  -4  10 21.3955 2.75466  22
   7   3 -10 26.3567 3.28219  26
   7   3 -10 34.8659 4.31424  20
   7   3 -10 29.7692 2.49177  17
   7   3 -10 27.6794 2.50175  16
   6   3 -10 2.98111 1.63193  26
   6   3 -10 2.88789 2.98744  20
   6   3 -10 0.41913 1.36369  17
   6   3 -10 3.72330 1.33987  16
   5   3 -10 55.1914 4.63779  16
   5   3 -10 53.4437 5.86416  26
   5   3 -10 49.2452 5.70308  19
   4   3 -10 3.08745 2.78911  19
   4   3 -10 5.35895 1.97317  26
   4   3 -10 4.76673 1.64023  16
   3   3 -10 45.0073 5.51854  26
   3   3 -10 40.4437 3.17425  12
   3   3 -10 38.9015 3.10852   6
  -3  -3  10 39.4974 7.37769  26
   2   3 -10 97.7484 8.89915  26
  -2  -3  10 70.2339 9.69074  26
  -1  -3  10 16.2237 4.79009  26
   0  -3  10 0.27553 3.71177  26
   1  -3  10 14.4819 3.77500  13
   1  -3  10 15.8208 3.77600   7
   1  -3  10 13.5706 3.56833  22
   1  -3  10 13.8392 3.46247  16
   1  -3  10 14.3245 4.31818  26
   2  -3  10 74.5625 8.38799  22
   2  -3  10 60.6712 6.63340  16
   2  -3  10 76.8975 8.74754  26
   3  -3  10 70.7322 7.32967  22
   3  -3  10 67.7428 7.22512  26
   3  -3  10 65.1497 5.21118  17
   3  -3  10 57.0984 5.54650  16
   4  -3  10 27.7986 3.32147  16
   4  -3  10 29.7914 3.21010  17
   4  -3  10 34.7535 4.29096  26
   4  -3  10 32.5221 4.30474  22
   5  -3  10 26.5209 3.24143  22
   5  -3  10 22.6953 2.11270  17
   8   2 -10 0.99704 0.61421  17
   8   2 -10 0.70793 1.35841  20
   7   2 -10 3.67639 1.25776  17
   7   2 -10 4.49186 2.76935  20
   7   2 -10 4.75035 1.66546  26
   7   2 -10 5.95842 1.27290  16
   6   2 -10 135.499 12.6954  20
   6   2 -10 100.633 10.5386  26
   6   2 -10 107.341 7.88239  17
   6   2 -10 95.2745 9.66814  19
   6   2 -10 108.626 8.12410  16
   5   2 -10 11.9019 3.32765  19
   5   2 -10 21.8406 2.42765  16
   5   2 -10 15.9547 2.23990  17
   5   2 -10 16.5264 2.84017  26
   4   2 -10 88.7194 8.89730  26
   4   2 -10 83.4149 7.01903  16
   3   2 -10 80.3496 8.23386  26
   3   2 -10 72.8212 4.90799   6
   3   2 -10 75.0437 5.01246  12
   2   2 -10 0.91663 2.28072  26
  -2  -2  10 -0.2519 3.84020  26
   1   2 -10 55.1649 6.61047  26
  -1  -2  10 38.4520 6.75508  26
   0  -2  10 108.983 12.2451  26
   1  -2  10 8.69522 3.82071  13
   1  -2  10 13.4537 4.02690   7
   1  -2  10 13.4489 4.51730  26
   2  -2  10 153.358 14.1100  26
   2  -2  10 125.706 13.3678  22
   2  -2  10 126.678 10.8622  16
   3  -2  10 11.1693 2.92281  16
   3  -2  10 9.01187 3.54712  22
   3  -2  10 12.1018 2.96726  26
   4  -2  10 2.69835 2.14898  26
   4  -2  10 4.88534 1.43272  16
   4  -2  10 3.07051 2.82289  22
   4  -2  10 3.15839 1.65261  17
   5  -2  10 5.13553 1.04011  17
   5  -2  10 7.52998 1.74249  22
   8   1 -10 6.37736 1.92687  20
   8   1 -10 4.19792 0.80898  17
   7   1 -10 4.20768 1.60860  26
   7   1 -10 5.10410 1.66683  19
   7   1 -10 3.54991 2.88002  20
   7   1 -10 3.98995 1.33441  17
   7   1 -10 4.48303 1.19663  16
   6   1 -10 22.7493 2.59744  17
   6   1 -10 30.6770 3.62488  19
   6   1 -10 24.2351 2.77889  16
   6   1 -10 22.2551 3.41517  26
   6   1 -10 16.7185 4.16893  20
   5   1 -10 78.4357 7.92600  26
   5   1 -10 80.8428 6.24170  16
   5   1 -10 76.9925 5.85438  17
   5   1 -10 81.2327 8.14725  19
   4   1 -10 114.753 11.5290  26
   4   1 -10 114.585 11.0611   2
   4   1 -10 125.231 9.10177  16
   3   1 -10 7.42385 1.69433  16
   3   1 -10 4.35843 1.90539   2
   3   1 -10 3.74475 0.88369   3
   3   1 -10 7.88299 2.12808  26
   2   1 -10 67.1863 7.85456  26
  -1  -1  10 304.772 28.5916  26
   0   1 -10 67.4608 7.31743  26
   0  -1  10 43.1459 6.96507  26
   0  -1  10 39.8377 6.04388   7
   0  -1  10 34.2920 5.97910  13
   1  -1  10 114.049 10.9879   7
   1  -1  10 117.976 12.8798  26
   1  -1  10 114.461 11.3217  13
   2  -1  10 203.083 16.5145  16
   2  -1  10 239.716 21.3851  26
   3  -1  10 4.55200 1.97282  16
   3  -1  10 2.84065 2.37483  22
   3  -1  10 -0.1426 3.21119  26
   4  -1  10 6.51245 2.15837  22
   4  -1  10 6.92619 1.42663  17
   4  -1  10 5.18482 2.08988  16
   4  -1  10 5.62325 2.57668  26
   5  -1  10 0.52292 0.78873  17
   5  -1  10 0.69179 1.26220  22
   5  -1  10 -0.1193 0.67844  16
   8   0 -10 1.55744 0.86479  17
   8   0 -10 0.78346 1.66540  19
   8   0 -10 1.99927 1.76735  20
   7   0 -10 60.5758 6.86852  20
   7   0 -10 50.8046 6.01958  19
   7   0 -10 52.3386 4.11669  16
   7   0 -10 55.2123 4.29054  17
   6   0 -10 59.7446 5.08619  16
   6   0 -10 71.6017 4.93167  17
   6   0 -10 67.1863 6.64817  19
   6   0 -10 58.1516 6.50078  26
   6   0 -10 70.2750 8.26717  20
   5   0 -10 26.3745 2.69326  17
   5   0 -10 21.3500 4.30776  19
   5   0 -10 21.5822 3.40957  26
   5   0 -10 23.9779 2.82613  16
   4   0 -10 126.128 8.13216  17
   4   0 -10 120.291 8.39863  16
   4   0 -10 90.5641 7.80683   3
   4   0 -10 118.936 10.7184  26
   4   0 -10 106.142 10.1997   2
   3   0 -10 2.55262 1.84674  10
   3   0 -10 -0.3260 1.66452   4
   3   0 -10 0.03485 2.08658  26
   3   0 -10 2.05185 0.71884   3
   3   0 -10 2.24303 1.78028  16
   3   0 -10 1.63550 1.93583   2
   2   0 -10 164.387 13.5579   4
   2   0 -10 152.828 14.0747  10
   2   0 -10 205.006 16.2366  26
   2   0 -10 138.330 11.5154   3
   2   0 -10 181.065 15.0141   2
   2   0 -10 179.761 12.3120  16
   1   0 -10 39.2819 5.03823  10
   1   0 -10 42.4230 4.92041   4
   1   0 -10 51.7378 5.83601  26
  -1   0  10 40.2250 6.18096  26
   0   0 -10 3.12622 2.24154   4
   0   0 -10 3.66680 3.34985  26
   0   0 -10 3.51250 2.32507  10
   0   0  10 2.16740 2.90632   7
   0   0  10 2.37033 4.00655  26
   0   0  10 3.18890 2.92084  13
   1   0  10 38.2248 5.69946   7
   1   0  10 42.3832 6.29171  26
   1   0  10 38.7532 5.86883  13
   2   0  10 3.02386 3.87261  26
   3   0  10 14.1710 2.51734  16
   3   0  10 13.6832 3.33907  26
   4   0  10 62.5520 6.81557  26
   4   0  10 66.0597 5.65740  16
   4   0  10 66.9295 7.28589  22
   5   0  10 13.2638 1.45438  16
   8  -1 -10 37.6106 4.00720  19
   8  -1 -10 38.6395 4.75611  20
   8  -1 -10 34.5649 2.81617  17
   7  -1 -10 8.34008 1.24318  17
   7  -1 -10 10.3711 2.61345  19
   7  -1 -10 12.4674 2.81560  20
   6  -1 -10 32.2598 3.17986  16
   6  -1 -10 33.9338 4.70795  19
   6  -1 -10 36.7452 2.90377  17
   6  -1 -10 31.1034 4.04559  26
   5  -1 -10 79.6965 8.85599   4
   5  -1 -10 108.279 7.89738  16
   5  -1 -10 104.895 10.0110  26
   5  -1 -10 86.8137 9.32445  10
   5  -1 -10 117.303 7.51858  17
   5  -1 -10 104.315 10.1195  19
   4  -1 -10 -0.0535 1.76399   4
   4  -1 -10 0.55979 0.54599   3
   4  -1 -10 1.84537 1.72468  16
   4  -1 -10 -0.5353 1.65468   2
   4  -1 -10 0.30092 1.90689  10
   4  -1 -10 -1.0546 1.93833  26
   4  -1 -10 -0.7362 1.19535  17
   3  -1 -10 19.7106 3.49492  26
   3  -1 -10 16.9096 2.61173  16
   3  -1 -10 14.6097 2.99128   4
   3  -1 -10 14.0947 2.92828  18
   3  -1 -10 16.4213 3.20479  10
   3  -1 -10 13.2139 2.99883   2
   3  -1 -10 12.0828 1.44482   3
   3  -1 -10 15.4366 1.75061  17
   2  -1 -10 108.552 10.7410  10
   2  -1 -10 141.065 11.9742  26
   2  -1 -10 114.613 11.1124  18
   2  -1 -10 121.872 10.4383   4
   2  -1 -10 133.865 9.17698  16
   2  -1 -10 130.569 11.3728   2
   2  -1 -10 103.651 8.45037   3
   1  -1 -10 30.6865 4.67914   4
   1  -1 -10 47.5192 5.81960  26
   1  -1 -10 32.4517 4.97614  10
   0  -1 -10 27.1610 4.67816  10
   0  -1 -10 54.6662 6.30527  26
   0  -1 -10 26.6628 4.41272   4
   0   1  10 23.9354 5.65469  26
   1   1  10 65.8328 7.33539  26
   1   1  10 38.1997 6.51047  13
   1   1  10 39.8424 6.45998   7
  -2  -1 -10 5.54073 4.46849  26
   2   1  10 3.12878 4.03615  26
   3   1  10 4.08494 2.61341  16
   3   1  10 4.85795 3.53353  26
   4   1  10 2.53116 2.69483  26
   4   1  10 0.91211 2.48285  22
   4   1  10 1.87951 2.03023  16
   8  -2 -10 16.5543 1.56252  17
   8  -2 -10 18.0348 2.77402  19
   7  -2 -10 4.09696 1.12949  17
   7  -2 -10 6.05241 2.46937  19
   6  -2 -10 147.235 9.99858  16
   6  -2 -10 146.477 12.9397  19
   6  -2 -10 137.033 9.89990  17
   6  -2 -10 128.337 12.5714  18
   5  -2 -10 49.2057 5.93244  10
   5  -2 -10 60.7756 6.55000  18
   5  -2 -10 60.1262 7.01686  19
   5  -2 -10 62.9736 4.60503  17
   5  -2 -10 60.8142 4.88849  16
   5  -2 -10 50.3344 5.73839   4
   5  -2 -10 59.6968 6.18316  26
   4  -2 -10 18.9413 3.24094  26
   4  -2 -10 18.5030 3.76087  19
   4  -2 -10 12.5975 2.92015   2
   4  -2 -10 17.2801 3.24032  10
   4  -2 -10 21.0957 2.55939  16
   4  -2 -10 19.6124 2.23294  17
   4  -2 -10 23.1845 3.65100  18
   4  -2 -10 16.5815 3.04545   4
   3  -2 -10 26.0548 3.79865   4
   3  -2 -10 16.6293 3.41036   2
   3  -2 -10 19.7219 2.01882   3
   3  -2 -10 31.6197 3.98938  18
   3  -2 -10 29.3605 4.06498  26
   3  -2 -10 24.3773 2.55432  17
   3  -2 -10 25.7782 3.96280  10
   3  -2 -10 29.3532 3.06673  16
   2  -2 -10 24.2475 2.40676   3
   2  -2 -10 29.7378 3.99331   2
   2  -2 -10 30.5089 3.29933  16
   2  -2 -10 26.5223 4.44624  10
   2  -2 -10 28.9323 4.39265   4
   2  -2 -10 31.4080 4.38268  26
   2  -2 -10 37.9056 4.52123  18
   1  -2 -10 11.0796 3.75411  26
   1  -2 -10 10.8459 2.78401  16
   1  -2 -10 10.5311 2.62748   4
   1  -2 -10 11.2270 2.85370  10
   1  -2 -10 9.30050 3.12176   2
   0  -2 -10 117.826 11.6462  10
   0  -2 -10 143.229 12.9615  26
   0  -2 -10 111.197 11.1378   4
  -1  -2 -10 8.84563 4.44516  26
   1   2  10 1.81787 4.33294  26
  -2  -2 -10 -2.2107 4.15555  26
   2   2  10 0.79615 3.88889  26
   3   2  10 17.6407 3.54912  26
   4   2  10 23.9477 3.30975  22
   4   2  10 22.7417 2.63488  16
   4   2  10 20.4194 3.19089  26
   8  -3 -10 0.18523 1.86027  18
   8  -3 -10 -0.2613 1.81298  19
   7  -3 -10 11.2630 3.56788  19
   7  -3 -10 13.5592 2.36155  18
   7  -3 -10 11.9688 1.40409  17
   6  -3 -10 44.3235 5.62917  18
   6  -3 -10 46.9469 6.13888  19
   6  -3 -10 39.9852 3.47870  17
   5  -3 -10 140.744 11.7579  18
   5  -3 -10 123.476 9.36763  16
   5  -3 -10 130.439 11.8099  19
   5  -3 -10 122.733 10.0494  25
   5  -3 -10 121.662 11.9289  26
   5  -3 -10 134.725 9.12579  17
   4  -3 -10 420.955 30.0478  16
   4  -3 -10 462.348 36.5728  18
   4  -3 -10 391.325 33.0430   4
   4  -3 -10 480.639 29.4154  17
   4  -3 -10 477.894 35.4190  19
   4  -3 -10 401.762 34.5189  10
   4  -3 -10 367.774 38.2494  26
   3  -3 -10 58.0021 6.89746  18
   3  -3 -10 55.2258 6.23691   4
   3  -3 -10 60.5243 5.13922  16
   3  -3 -10 55.1714 6.48514  10
   3  -3 -10 46.4292 4.11994   3
   3  -3 -10 53.5105 6.03049   2
   3  -3 -10 61.6152 4.36366  17
   3  -3 -10 68.0952 6.80413  26
   2  -3 -10 5.23800 1.72859  17
   2  -3 -10 3.03158 0.79804   3
   2  -3 -10 4.38428 2.79437  26
   2  -3 -10 2.91203 2.62451   4
   2  -3 -10 3.94756 2.37410  18
   2  -3 -10 4.09266 2.22952   2
   2  -3 -10 2.84032 2.20909  16
   2  -3 -10 3.28933 2.80632  10
   1  -3 -10 79.0254 8.26082  10
   1  -3 -10 93.5938 9.70138  26
   1  -3 -10 103.971 7.39944  16
   1  -3 -10 71.9833 5.99821   3
   1  -3 -10 83.3088 8.03475   4
   1  -3 -10 81.7505 8.74735   2
   0  -3 -10 27.3888 4.80500  10
   0  -3 -10 45.5980 5.90772  26
   0  -3 -10 29.5993 4.74265   4
  -1  -3 -10 9.47855 4.47655  26
   1   3  10 7.07204 4.55825  26
  -2  -3 -10 1.34876 2.92692  26
   2   3  10 0.87038 2.73534  26
   3   3  10 30.9195 4.96749  26
   4   3  10 0.56570 1.22097  22
   4   3  10 0.09172 1.53764  26
   8  -4 -10 7.24757 2.12280  19
   8  -4 -10 3.32460 2.17248  18
   7  -4 -10 8.82059 3.31183  19
   7  -4 -10 12.9130 1.29500  17
   7  -4 -10 5.65362 2.74844  18
   6  -4 -10 54.4856 4.37213  17
   6  -4 -10 64.6868 6.81462  19
   6  -4 -10 58.0285 6.25029  18
   6  -4 -10 60.8555 5.46266  25
   5  -4 -10 136.526 8.92322  17
   5  -4 -10 114.626 10.0018  25
   5  -4 -10 117.769 8.88155  16
   5  -4 -10 129.564 11.6202  18
   5  -4 -10 134.555 11.4946  19
   4  -4 -10 78.6429 9.16299  10
   4  -4 -10 101.655 8.91506  19
   4  -4 -10 104.582 9.67430  18
   4  -4 -10 83.8302 8.89704  26
   4  -4 -10 75.4434 8.75754   4
   4  -4 -10 87.2582 6.97316  16
   4  -4 -10 105.956 6.77609  17
   3  -4 -10 60.2339 4.98964  16
   3  -4 -10 47.5647 6.08782  10
   3  -4 -10 56.3593 6.29274  18
   3  -4 -10 55.1316 6.46322  26
   3  -4 -10 47.7164 5.88876   4
   3  -4 -10 52.7706 6.03777  19
   3  -4 -10 55.6702 4.42384  17
   2  -4 -10 13.4107 2.12224  17
   2  -4 -10 7.86677 3.34794  10
   2  -4 -10 12.8236 3.80477  18
   2  -4 -10 13.5719 2.57339  16
   2  -4 -10 7.43856 3.14808   4
   2  -4 -10 12.7697 3.28210  26
   1  -4 -10 5.47075 3.62699  26
   1  -4 -10 5.07406 2.51811  16
   1  -4 -10 1.64412 2.11786  10
   1  -4 -10 3.40220 2.25128   4
   0  -4 -10 7.23675 2.32629  16
   0  -4 -10 6.86795 4.14062  26
  -1  -4 -10 50.8751 7.41486  26
  -2  -4 -10 8.97607 3.25537  26
   2   4  10 7.06507 3.11382  26
  -3  -4 -10 0.63388 2.30588  26
   3   4  10 0.54109 2.03163  26
   8  -5 -10 148.394 12.2259  19
   8  -5 -10 136.545 12.4406  18
   7  -5 -10 6.05927 2.13313  19
   7  -5 -10 4.12564 2.69908  18
   6  -5 -10 58.6057 7.14525  18
   6  -5 -10 58.5056 6.48790  19
   6  -5 -10 56.7058 4.26435  17
   6  -5 -10 60.6698 5.46341  25
   5  -5 -10 218.503 19.2466  18
   5  -5 -10 220.593 18.1643  19
   5  -5 -10 205.029 16.4064  25
   5  -5 -10 219.146 14.8776  17
   4  -5 -10 2.96604 1.88078  25
   4  -5 -10 2.26307 1.14177  17
   4  -5 -10 2.35495 2.49672  19
   4  -5 -10 1.59326 1.44200  26
   4  -5 -10 2.08606 1.10347  16
   4  -5 -10 2.78690 3.42480  18
   3  -5 -10 89.6417 8.97269  26
   3  -5 -10 85.5280 9.44175  18
   3  -5 -10 81.0388 6.48363  17
   3  -5 -10 95.4614 6.95071  16
   2  -5 -10 18.3939 3.76225  26
   2  -5 -10 17.3011 4.25636  18
   2  -5 -10 23.8688 2.39445  17
   2  -5 -10 20.2800 2.98499  16
   1  -5 -10 81.4533 9.46409  26
   1  -5 -10 87.3585 7.24238  16
   1  -5 -10 82.5682 6.54951  17
   0  -5 -10 96.8343 7.64702  16
   0  -5 -10 88.3899 9.95788  26
  -1  -5 -10 25.6107 3.76525  16
  -1  -5 -10 25.0785 5.15722  26
  -2  -5 -10 24.5649 3.91814  26
   2   5  10 11.8061 3.38247  26
  -3  -5 -10 68.2650 7.11823  26
   8  -6 -10 -0.3043 1.46866  19
   8  -6 -10 0.84996 2.31881  18
   7  -6 -10 37.8610 4.82037  18
   7  -6 -10 39.8612 3.79524  25
   7  -6 -10 44.3513 5.06398  19
   6  -6 -10 1.68541 2.36473  19
   6  -6 -10 -0.0527 2.24733  18
   6  -6 -10 1.09222 0.66148  17
   6  -6 -10 0.68774 1.39205  25
   5  -6 -10 7.33905 2.83218  18
   5  -6 -10 1.92102 2.37670  19
   5  -6 -10 3.73398 1.94541  25
   5  -6 -10 5.61983 1.06639  17
   4  -6 -10 16.1196 1.34264  16
   4  -6 -10 19.3613 2.01542  17
   4  -6 -10 22.7606 3.71058  18
   4  -6 -10 15.2218 2.55748  25
   3  -6 -10 29.8940 3.08476  16
   3  -6 -10 29.5582 2.93535  17
   3  -6 -10 29.8094 4.07802  26
   3  -6 -10 29.0663 4.75990  18
   3  -6 -10 29.4417 3.75933  25
   2  -6 -10 25.7678 3.69971  18
   2  -6 -10 20.3809 2.40233  17
   2  -6 -10 15.3057 3.35490  26
   2  -6 -10 17.1401 2.64500  16
   1  -6 -10 12.9123 2.69654  16
   1  -6 -10 14.1842 3.09078  18
   1  -6 -10 10.7449 2.21547  17
   1  -6 -10 12.4071 3.70177  26
   0  -6 -10 88.2363 7.11106  16
   0  -6 -10 87.6346 9.40973  26
  -1  -6 -10 24.0355 3.38339  16
  -1  -6 -10 17.7622 4.39465  26
  -2  -6 -10 7.66119 2.35328  16
  -2  -6 -10 6.99213 3.26440  26
   8  -7 -10 0.74940 2.13587  18
   7  -7 -10 79.4999 7.72384  18
   7  -7 -10 78.9285 6.45828  25
   7  -7 -10 80.3608 7.39741  19
   6  -7 -10 1.80816 1.38272  25
   6  -7 -10 0.69418 2.13290  18
   5  -7 -10 1.19130 1.85841  25
   5  -7 -10 1.15140 0.67860  17
   5  -7 -10 0.39238 3.23406  18
   4  -7 -10 53.8307 5.48423  25
   4  -7 -10 57.2731 6.61127  18
   4  -7 -10 63.2339 4.47546  17
   3  -7 -10 0.16156 0.91676  17
   3  -7 -10 2.38689 2.19550  25
   3  -7 -10 -0.0588 2.26891  18
   2  -7 -10 5.21191 1.66126  17
   2  -7 -10 8.37436 1.81447  16
   2  -7 -10 6.84716 2.54042  18
   2  -7 -10 5.39223 2.24661  26
   2  -7 -10 3.97568 2.10197  25
   1  -7 -10 25.5709 2.58853  17
   1  -7 -10 16.3241 3.97271  18
   1  -7 -10 28.5640 2.89970  16
   1  -7 -10 27.2472 3.91577  26
   0  -7 -10 69.7691 7.82788  26
   0  -7 -10 66.2056 5.71391  17
   0  -7 -10 77.8985 5.96573  16
   0  -7 -10 79.8503 7.35809  18
  -1  -7 -10 49.2668 5.94112  26
  -1  -7 -10 52.5473 5.38073  18
  -1  -7 -10 52.9207 4.47864  16
   7  -8 -10 2.56448 1.21632  25
   7  -8 -10 1.02709 1.74378  18
   6  -8 -10 52.0675 5.31863  18
   6  -8 -10 43.8558 4.14480  25
   5  -8 -10 6.72826 1.98655  25
   5  -8 -10 13.4787 2.69421  18
   4  -8 -10 -1.4210 1.86987  25
   4  -8 -10 -0.8369 2.03196  18
   4  -8 -10 0.74829 0.75698  17
   3  -8 -10 2.00540 2.85246  18
   3  -8 -10 0.66557 0.80616  17
   3  -8 -10 2.29143 2.16480  25
   2  -8 -10 47.1646 3.83539  17
   2  -8 -10 49.6539 3.60787  16
   2  -8 -10 37.3959 4.12036  25
   1  -8 -10 66.8248 4.82003  17
   1  -8 -10 62.0272 6.82939  18
   1  -8 -10 65.5028 4.84657  16
   1  -8 -10 57.3473 6.25839  26
   0  -8 -10 2.78348 1.60468  26
   0  -8 -10 2.01177 1.65555  18
   0  -8 -10 2.73778 1.09092  17
   0  -8 -10 3.72329 1.15455  16
  -1  -8 -10 118.906 7.56670  16
  -1  -8 -10 88.8184 9.56271  26
   7  -9 -10 59.3666 5.30583  25
   7  -9 -10 76.0871 6.25302  18
   6  -9 -10 3.90498 1.64738  18
   6  -9 -10 7.82932 1.40473  25
   5  -9 -10 4.12935 1.30300  25
   5  -9 -10 3.70093 1.87958  18
   4  -9 -10 122.208 7.86490  17
   4  -9 -10 100.453 8.95269  25
   4  -9 -10 117.640 10.4150  18
   3  -9 -10 240.646 15.5442  17
   3  -9 -10 214.970 19.4982  18
   3  -9 -10 221.159 17.2541  25
   2  -9 -10 3.12761 0.92632  17
   2  -9 -10 2.28476 1.89631  25
   2  -9 -10 4.92707 1.86021  18
   1  -9 -10 150.285 10.4497  17
   1  -9 -10 150.541 12.9961  18
   5 -10 -10 13.1465 2.52913  18
   5 -10 -10 22.3389 2.15497  25
   4 -10 -10 122.106 10.0139  18
   4 -10 -10 106.420 8.73868  25
   3 -10 -10 1.78817 1.73723  18
   3 -10 -10 -0.3178 1.42428  25
   3 -10 -10 1.10737 0.42695  17
   2 -10 -10 4.13420 0.71463  17
  -1 -10  11 6.38444 1.20695  16
   0 -10  11 25.6151 2.37538  17
   1 -10  11 1.83485 1.65219  23
   1 -10  11 1.02511 1.12821  17
  -3  -9  11 8.68358 2.53149  26
  -2  -9  11 89.0137 7.87302  24
  -2  -9  11 94.5381 9.07356  26
  -1  -9  11 3.97505 1.74151  16
  -1  -9  11 4.19171 2.02578  26
  -1  -9  11 9.04950 2.93799  23
   0  -9  11 13.9385 2.01755  17
   0  -9  11 14.5722 2.35073  16
   0  -9  11 13.5333 2.76521  26
   0  -9  11 26.3607 3.49373  23
   1  -9  11 3.15281 1.25458  17
   1  -9  11 1.70117 0.99741  16
   1  -9  11 2.89574 2.14692  23
   2  -9  11 31.7006 3.91327  23
   2  -9  11 26.1218 2.45204  17
  -4  -8  11 -0.2733 2.30935  26
  -3  -8  11 6.19810 2.43789  16
  -3  -8  11 3.96902 2.68762  26
  -2  -8  11 -1.0780 3.16296  16
  -2  -8  11 4.90516 3.75835  26
  -1  -8  11 15.3589 4.02705  23
  -1  -8  11 27.1042 3.46697  16
  -1  -8  11 28.8038 4.24329  26
   0  -8  11 119.897 9.60679  16
   0  -8  11 130.329 12.1556  26
   0  -8  11 112.763 12.2598  23
   1  -8  11 1.99286 3.16798  23
   1  -8  11 0.21145 1.35978  16
   1  -8  11 1.32639 1.30810  17
   1  -8  11 0.88571 2.02583  26
   2  -8  11 8.46254 1.41574  17
   2  -8  11 4.45241 0.82593  16
   2  -8  11 2.83525 2.02301  23
   3  -8  11 54.7107 4.16906  17
   3  -8  11 54.4515 6.12775  23
   5   7 -11 26.1256 3.24553  26
   4   7 -11 170.238 14.3532  26
  -4  -7  11 125.599 15.1187  26
   3   7 -11 5.46864 1.97428  26
  -3  -7  11 5.90495 3.31586  26
  -2  -7  11 -3.8687 3.56614  16
  -2  -7  11 2.14010 4.17540  26
  -2  -7  11 0.63992 3.02807  23
  -1  -7  11 99.2590 11.3592  23
  -1  -7  11 103.598 9.48802  16
  -1  -7  11 127.753 12.0893  26
   0  -7  11 2.87133 2.60699  23
   0  -7  11 0.80561 3.39767  26
   0  -7  11 -0.5652 2.91300  16
   1  -7  11 2.57960 2.93334  26
   1  -7  11 2.81468 2.55076  16
   1  -7  11 3.32898 2.56689  23
   1  -7  11 2.94964 1.41100  17
   2  -7  11 31.8866 3.84248  26
   2  -7  11 16.7061 3.94104  23
   2  -7  11 29.3682 3.09486  16
   3  -7  11 8.29133 2.00623  23
   3  -7  11 9.44676 2.03660  22
   4  -7  11 17.4411 1.57973  17
   5   6 -11 124.562 10.5753  26
  -5  -6  11 89.5475 11.2412  26
   4   6 -11 9.76435 2.21246  26
  -4  -6  11 8.82654 3.58005  26
   3   6 -11 40.4228 5.07587  26
  -3  -6  11 22.3020 5.91412  26
   2   6 -11 17.7145 3.43397  26
  -2  -6  11 15.3624 5.11857  26
  -1  -6  11 3.90423 3.55907  16
  -1  -6  11 2.85483 4.31171  26
   0  -6  11 11.6221 3.40248  26
   0  -6  11 6.71298 2.61482  16
   1  -6  11 43.9633 4.08667  17
   1  -6  11 42.6966 5.92954  23
   1  -6  11 38.0136 4.52565  16
   1  -6  11 54.4694 5.97295  26
   2  -6  11 25.7932 3.35064  26
   2  -6  11 20.2929 3.39102  23
   2  -6  11 19.4409 2.45901  16
   2  -6  11 9.14063 2.34529  17
   3  -6  11 -0.3623 2.40905  22
   3  -6  11 0.04645 0.93702  16
   3  -6  11 -0.2273 1.03439  17
   3  -6  11 -0.8458 2.24629  23
   3  -6  11 1.28963 1.19285  26
   4  -6  11 26.9534 3.41501  22
   4  -6  11 27.0365 2.22017  17
   6   5 -11 5.22023 2.35435  20
   6   5 -11 10.8949 1.43296  16
   6   5 -11 10.5923 1.87383  26
   5   5 -11 168.702 15.4748  26
   5   5 -11 165.606 12.0884  16
   4   5 -11 16.3019 3.11556  26
  -4  -5  11 11.0381 4.84440  26
   3   5 -11 26.3352 3.78333  26
  -3  -5  11 20.8029 4.94293  26
   2   5 -11 49.6585 5.76934  26
  -2  -5  11 49.1221 7.02066  26
  -1  -5  11 18.2442 5.14165  26
   0  -5  11 83.3110 8.18995  16
   0  -5  11 110.821 10.6475  26
   1  -5  11 12.3556 3.46465  16
   1  -5  11 19.4434 4.36237  26
   2  -5  11 0.90794 2.44380  22
   2  -5  11 -0.0140 1.34467  17
   2  -5  11 -0.7747 2.62790  26
   2  -5  11 -0.1945 2.34428  16
   2  -5  11 1.58094 2.70307  23
   3  -5  11 24.8246 2.69004  16
   3  -5  11 31.2156 3.05944  17
   3  -5  11 17.9827 3.63312  23
   3  -5  11 28.5855 3.85776  22
   3  -5  11 34.9471 3.92408  26
   4  -5  11 0.84216 0.81990  17
   4  -5  11 -0.2681 1.39381  22
   7   4 -11 32.9170 2.52857  16
   6   4 -11 5.50093 1.30822  16
   6   4 -11 3.25645 1.60773  26
   6   4 -11 7.06516 2.08182  20
   5   4 -11 1.91878 1.75949  16
   5   4 -11 2.88152 2.17592  26
   4   4 -11 0.93316 1.68858  26
   4   4 -11 -1.1018 2.38324  19
   3   4 -11 180.095 14.5713  26
  -3  -4  11 115.859 15.1903  26
   2   4 -11 15.1873 3.33290  26
  -2  -4  11 5.05653 4.80817  26
   1   4 -11 60.8853 6.61625  26
  -1  -4  11 49.1951 7.54778  26
   0  -4  11 76.1424 8.55457  16
   0  -4  11 106.405 10.9920  26
   1  -4  11 88.8006 8.42053  16
   1  -4  11 119.030 11.0261  26
   2  -4  11 16.9304 3.56204  22
   2  -4  11 18.3179 3.95204  26
   2  -4  11 10.9981 3.06281  16
   2  -4  11 20.1735 2.47239  17
   3  -4  11 1.82154 2.26132  26
   3  -4  11 1.50479 2.44585  22
   3  -4  11 0.41323 1.72520  17
   3  -4  11 0.79471 1.85126  16
   4  -4  11 0.59730 0.89291  16
   4  -4  11 0.89195 0.95040  17
   4  -4  11 1.12325 1.41287  22
   7   3 -11 13.6726 1.53265  17
   7   3 -11 15.8650 1.61380  16
   7   3 -11 14.7142 2.19575  26
   7   3 -11 16.4303 2.61566  20
   6   3 -11 0.30707 1.30429  26
   6   3 -11 0.55669 1.79120  20
   6   3 -11 0.95247 1.06703  16
   5   3 -11 1.81570 1.76539  19
   5   3 -11 2.80496 1.42842  16
   5   3 -11 2.64352 1.66365  26
   4   3 -11 575.009 40.6663  16
   4   3 -11 615.857 51.8874  26
   4   3 -11 558.616 47.1841  19
   3   3 -11 165.232 14.5012  26
  -3  -3  11 133.660 15.3422  26
   2   3 -11 5.62706 2.92885  26
  -2  -3  11 1.47783 4.59291  26
   1   3 -11 28.5023 4.02545  26
  -1  -3  11 19.2174 4.67921  26
   0  -3  11 16.2652 3.99819  26
   1  -3  11 66.4009 8.32274  26
   1  -3  11 54.3519 6.54080  16
   1  -3  11 52.3620 6.98005  22
   2  -3  11 0.00068 1.87899  16
   2  -3  11 1.96449 2.33943  26
   2  -3  11 3.07413 3.03579  22
   3  -3  11 9.52346 3.16840  22
   3  -3  11 17.7270 2.33590  16
   3  -3  11 16.5169 2.89286  26
   3  -3  11 18.2833 2.14929  17
   4  -3  11 51.8646 5.46837  22
   4  -3  11 39.6322 3.49174  16
   4  -3  11 50.3688 4.69626  26
   4  -3  11 43.2801 3.58015  17
   7   2 -11 11.0669 1.76080  26
   7   2 -11 6.81458 1.22175  17
   7   2 -11 17.9488 2.62226  20
   7   2 -11 13.5081 1.46559  16
   6   2 -11 -0.2261 2.27776  19
   6   2 -11 0.44748 1.21911  17
   6   2 -11 1.48079 1.87690  20
   6   2 -11 2.00719 1.19508  16
   6   2 -11 1.04645 1.35628  26
   5   2 -11 44.1117 5.48810  26
   5   2 -11 40.9731 5.43349  19
   5   2 -11 46.1366 4.36286  16
   4   2 -11 52.8495 5.19341  16
   4   2 -11 57.7240 6.55785  26
   3   2 -11 11.1289 3.17450  26
   2   2 -11 24.5032 3.96990  26
  -2  -2  11 14.0888 5.16821  26
   1   2 -11 37.1172 4.84395  26
  -1  -2  11 19.1144 4.71170  26
   0   2 -11 74.9847 7.54836  26
   0  -2  11 46.8165 7.66852  26
   1  -2  11 145.816 14.0705  22
   1  -2  11 152.862 15.0067  26
   1  -2  11 132.067 11.5799  16
   2  -2  11 1.75204 1.95903  16
   2  -2  11 2.02851 2.50256  26
   2  -2  11 -0.2364 3.00180  22
   3  -2  11 8.92127 2.02949  16
   3  -2  11 11.6498 2.56553  22
   3  -2  11 8.42648 2.45992  26
   4  -2  11 5.10180 1.81961  22
   4  -2  11 4.77543 1.46688  16
   4  -2  11 9.72851 1.38378  17
   4  -2  11 5.34016 1.76433  26
   8   1 -11 79.7899 5.60317  17
   7   1 -11 17.3506 1.68913  16
   7   1 -11 13.3825 2.19490  19
   7   1 -11 13.6234 1.64013  17
   7   1 -11 20.1612 3.04827  20
   6   1 -11 38.6385 5.02188  19
   6   1 -11 39.3635 4.99630  20
   6   1 -11 34.4539 3.56845  16
   6   1 -11 32.8144 4.46394  26
   6   1 -11 35.9288 3.02960  17
   5   1 -11 3.82448 1.72336  26
   5   1 -11 5.92944 1.57451  16
   5   1 -11 5.76244 1.29014  17
   5   1 -11 2.90046 3.13573  19
   4   1 -11 3.90894 2.04250  16
   4   1 -11 1.98088 2.29461  26
   3   1 -11 130.186 9.95428  16
   3   1 -11 130.014 12.7103  26
   1   1 -11 0.81669 2.14051  26
  -1  -1  11 0.22536 2.81584  26
   0  -1  11 114.717 13.0767  26
  -1   1 -11 64.7705 7.10549  26
   1  -1  11 40.3151 6.59357  26
   2  -1  11 3.76489 2.96890  16
   2  -1  11 1.14364 3.62420  26
   2  -1  11 1.64260 2.23173  22
   3  -1  11 17.0715 3.67242  26
   3  -1  11 18.1712 2.90368  22
   3  -1  11 12.3371 2.82817  16
   4  -1  11 40.0566 3.95121  26
   4  -1  11 32.9719 3.00372  16
   4  -1  11 28.7638 3.92835  22
   4  -1  11 34.3877 2.93910  17
   8   0 -11 3.20610 0.59430  17
   7   0 -11 107.400 7.85461  17
   7   0 -11 112.316 10.0253  19
   7   0 -11 116.431 12.3644  20
   6   0 -11 21.4576 1.97904  17
   6   0 -11 24.5178 3.44072  19
   6   0 -11 15.6305 2.17979  16
   6   0 -11 13.9191 2.67906  26
   5   0 -11 -0.9181 3.22118  19
   5   0 -11 0.39906 1.89622  26
   5   0 -11 0.99457 1.38765  17
   5   0 -11 -0.2917 1.71249  16
   4   0 -11 288.261 19.0350  17
   4   0 -11 262.992 24.9571  26
   4   0 -11 271.330 19.5994  16
   3   0 -11 3.43585 1.96003  16
   3   0 -11 3.50722 2.43638  26
   2   0 -11 19.0833 3.96771  26
   2   0 -11 15.6811 2.96212  16
  -1   0  11 93.5513 11.2007  26
   0   0 -11 3.22370 2.64673   4
   0   0 -11 5.60489 2.90380  26
   0   0 -11 4.53835 2.80281  10
   0   0  11 3.56125 3.25679  26
  -1   0 -11 9.74498 4.10781  26
   1   0  11 9.31518 4.54624  26
   2   0  11 22.1912 4.80001  26
   3   0  11 38.6710 4.55328  16
   3   0  11 37.8134 5.00042  26
   3   0  11 35.4690 4.72335  22
   4   0  11 0.66442 1.27040  26
   4   0  11 -0.6204 2.02284  22
   4   0  11 0.90719 1.07563  16
   8  -1 -11 2.01518 0.61182  17
   8  -1 -11 2.08724 1.36608  19
   7  -1 -11 25.6216 2.12703  17
   7  -1 -11 19.6557 3.19094  19
   6  -1 -11 7.02596 1.43469  16
   6  -1 -11 10.2520 1.37913  17
   6  -1 -11 7.33301 2.70780  19
   6  -1 -11 4.33936 1.69135  26
   5  -1 -11 10.7732 3.74405  19
   5  -1 -11 9.26569 2.39257  26
   5  -1 -11 12.9265 1.61346  17
   5  -1 -11 11.7515 2.10519  16
   4  -1 -11 367.670 26.0965  16
   4  -1 -11 377.679 30.7114  19
   4  -1 -11 378.539 25.4503  17
   4  -1 -11 359.262 33.2600  26
   3  -1 -11 23.0781 3.72840   4
   3  -1 -11 30.8888 2.83749  17
   3  -1 -11 22.4139 3.46748  18
   3  -1 -11 17.4858 3.59408  10
   2  -1 -11 42.8942 5.49041  18
   2  -1 -11 56.6116 6.57315  26
   2  -1 -11 52.6626 5.01846  16
   2  -1 -11 33.6858 4.81450  10
   2  -1 -11 43.4103 5.89761   2
   2  -1 -11 39.4565 4.75597   4
   1  -1 -11 2.45752 2.50146  10
   1  -1 -11 3.23551 2.46685   4
   1  -1 -11 2.26307 3.32734  26
   0  -1 -11 111.803 10.9146  26
   0   1  11 71.0087 11.0775  26
   1   1  11 380.872 35.0176  26
  -2  -1 -11 47.1386 5.99530  26
   2   1  11 29.2838 5.18586  26
   3   1  11 39.7333 4.69671  16
   3   1  11 40.0699 4.95017  22
   3   1  11 48.8063 6.33349  26
   4   1  11 17.2505 2.24450  16
   4   1  11 25.1332 2.93971  22
   4   1  11 22.8908 2.95187  26
   8  -2 -11 162.527 10.6962  17
   8  -2 -11 148.627 13.2294  19
   7  -2 -11 105.943 7.48321  17
   7  -2 -11 107.089 9.64425  19
   6  -2 -11 3.82911 3.32950  19
   6  -2 -11 1.98707 1.01555  16
   6  -2 -11 1.58095 1.30811  17
   5  -2 -11 8.40843 1.29600  17
   5  -2 -11 4.28388 1.87265  26
   5  -2 -11 4.19352 3.34768  19
   5  -2 -11 4.68017 1.64348  16
   5  -2 -11 5.98068 2.77069  18
   4  -2 -11 36.8016 4.34137  19
   4  -2 -11 28.9911 4.05583  18
   4  -2 -11 30.5258 4.34789  26
   4  -2 -11 29.3753 3.47205  16
   4  -2 -11 27.6109 2.62586  17
   3  -2 -11 51.2840 6.43008  10
   3  -2 -11 75.1993 7.14561  26
   3  -2 -11 69.9395 5.36377  16
   3  -2 -11 62.9177 6.51283  18
   3  -2 -11 51.9555 6.17723   4
   3  -2 -11 65.3889 4.88522  17
   2  -2 -11 63.7087 6.58548  26
   2  -2 -11 61.1231 4.92713  16
   2  -2 -11 55.7990 6.56214  18
   2  -2 -11 42.4050 5.73864  10
   2  -2 -11 44.9544 5.57236   4
   1  -2 -11 81.6503 9.10317  10
   1  -2 -11 116.672 10.9675  26
   1  -2 -11 79.5000 8.72658   4
   1  -2 -11 110.080 7.91252  16
   0  -2 -11 4.98169 3.02183  26
   0   2  11 2.30474 3.23194  26
   1   2  11 141.141 14.3752  26
  -2  -2 -11 7.96955 3.28342  26
   2   2  11 2.31430 2.72231  26
   3   2  11 5.18505 1.81931  16
   3   2  11 6.46397 2.26579  26
   8  -3 -11 39.2108 4.32323  19
   7  -3 -11 10.7445 2.00128  18
   7  -3 -11 12.8106 1.35723  17
   7  -3 -11 8.59305 2.56938  19
   6  -3 -11 9.45255 2.12105  18
   6  -3 -11 3.64541 3.26093  19
   6  -3 -11 6.98568 1.45938  17
   5  -3 -11 2.54358 1.29618  17
   5  -3 -11 1.65603 1.18954  16
   5  -3 -11 1.64904 1.35274  26
   5  -3 -11 1.22529 3.06112  19
   5  -3 -11 4.50257 2.89397  18
   4  -3 -11 6.43190 3.22453  18
   4  -3 -11 6.33775 3.09631  19
   4  -3 -11 6.46121 2.33535  26
   4  -3 -11 11.4934 1.44930  17
   4  -3 -11 8.53377 1.93245  16
   3  -3 -11 440.875 38.3847  18
   3  -3 -11 423.010 30.8882  17
   3  -3 -11 458.026 31.7552  16
   3  -3 -11 495.081 40.7301  26
   2  -3 -11 80.6360 6.32435  17
   2  -3 -11 86.1128 9.07579  26
   2  -3 -11 85.8904 7.01834  16
   2  -3 -11 72.4032 8.62869  18
   1  -3 -11 164.506 12.1645  16
   1  -3 -11 160.000 15.7253  26
   0  -3 -11 30.6668 4.95922  26
   0  -3 -11 22.8806 3.28562  16
  -1  -3 -11 24.8899 4.45431  26
   1   3  11 13.9861 3.91761  26
   2   3  11 63.8219 8.33699  26
  -3  -3 -11 5.39200 2.11560  26
   3   3  11 3.17495 1.95805  26
   8  -4 -11 12.8936 2.21978  19
   8  -4 -11 6.84818 1.90157  18
   7  -4 -11 284.195 19.3634  17
   7  -4 -11 286.459 24.2056  18
   6  -4 -11 2.79589 2.70651  18
   6  -4 -11 2.39757 2.11498  19
   6  -4 -11 2.15377 1.12446  17
   5  -4 -11 1.57409 0.75282  16
   5  -4 -11 -0.2568 2.80113  19
   5  -4 -11 2.33879 1.17218  17
   5  -4 -11 0.38831 3.06532  18
   4  -4 -11 139.926 9.52386  17
   4  -4 -11 127.011 11.9416  19
   4  -4 -11 124.841 12.4516  26
   4  -4 -11 141.631 9.78929  16
   4  -4 -11 132.819 12.2375  18
   3  -4 -11 0.32980 1.39191  17
   3  -4 -11 0.06944 2.22015  26
   3  -4 -11 -2.2209 3.00659  18
   3  -4 -11 -1.1783 2.42110  19
   3  -4 -11 2.20971 1.83048  16
   2  -4 -11 37.2467 5.04694  18
   2  -4 -11 37.1786 3.77960  16
   2  -4 -11 35.4564 4.91195  26
   2  -4 -11 37.7387 3.27558  17
   1  -4 -11 2.37159 2.46164  16
   1  -4 -11 1.87187 3.26083  26
   0  -4 -11 33.0046 4.20614  16
   0  -4 -11 32.3371 5.73400  26
  -1  -4 -11 20.6039 4.07848  26
  -2  -4 -11 8.80739 2.90228  26
   2   4  11 4.62117 2.61431  26
   8  -5 -11 67.3271 6.19704  19
   8  -5 -11 59.4307 5.78111  18
   7  -5 -11 65.6332 6.15976  18
   7  -5 -11 58.3080 6.05694  19
   6  -5 -11 18.4646 2.87861  18
   6  -5 -11 13.9426 1.97836  25
   6  -5 -11 20.2612 2.96823  19
   6  -5 -11 12.9334 1.55625  17
   5  -5 -11 4.87687 3.32948  18
   5  -5 -11 3.70565 1.93859  25
   5  -5 -11 3.14179 2.63861  19
   5  -5 -11 4.60667 1.16002  17
   4  -5 -11 2.75546 1.18347  17
   4  -5 -11 4.44465 3.43549  18
   4  -5 -11 1.22201 2.37237  19
   4  -5 -11 3.61864 1.08091  16
   4  -5 -11 2.90124 1.32148  26
   3  -5 -11 14.0405 1.90140  17
   3  -5 -11 15.7980 3.85361  18
   3  -5 -11 11.8485 2.06014  16
   3  -5 -11 10.2898 2.57682  26
   2  -5 -11 185.962 13.2060  16
   2  -5 -11 195.211 16.3034  18
   2  -5 -11 172.961 12.7742  17
   2  -5 -11 177.314 16.9787  26
   1  -5 -11 2.37466 2.38839  16
   1  -5 -11 2.23527 1.35078  17
   1  -5 -11 0.23072 2.43164  18
   1  -5 -11 -1.8524 2.94165  26
   0  -5 -11 0.17220 2.53687  16
   0  -5 -11 1.00000 3.44188  26
  -1  -5 -11 45.0553 4.33677  16
  -1  -5 -11 44.1824 6.71081  26
  -2  -5 -11 15.3544 3.33634  26
   2   5  11 5.62801 3.31141  26
   8  -6 -11 100.619 8.61576  19
   7  -6 -11 10.4037 2.03689  19
   7  -6 -11 5.71500 2.57534  18
   6  -6 -11 5.30466 2.23895  18
   6  -6 -11 4.13846 1.83341  25
   6  -6 -11 6.65812 1.89251  19
   6  -6 -11 6.69635 0.85228  17
   5  -6 -11 68.4526 7.31253  18
   5  -6 -11 54.0506 5.38053  25
   5  -6 -11 64.3464 4.54155  17
   4  -6 -11 90.0959 6.59230  17
   4  -6 -11 97.4952 9.07658  18
   3  -6 -11 234.168 20.5278  18
   3  -6 -11 236.400 16.2626  17
   2  -6 -11 0.89958 1.75485  16
   2  -6 -11 1.55530 2.30396  26
   2  -6 -11 1.98541 1.57928  17
   2  -6 -11 -0.8838 3.04655  18
   1  -6 -11 12.9307 2.87295  18
   1  -6 -11 9.98758 2.45231  16
   1  -6 -11 8.76417 3.08423  26
   1  -6 -11 10.8174 1.71255  17
   0  -6 -11 7.86976 2.37399  16
   0  -6 -11 5.24432 3.08925  18
   0  -6 -11 9.21449 3.32818  26
  -1  -6 -11 0.05216 2.86239  26
  -1  -6 -11 0.43038 1.97430  16
  -1  -6 -11 0.04705 1.92106  18
   7  -7 -11 0.67826 1.52211  18
   6  -7 -11 100.164 9.14167  18
   6  -7 -11 95.0044 7.78062  25
   5  -7 -11 14.6189 3.42661  18
   5  -7 -11 13.6139 2.11420  25
   4  -7 -11 4.93107 1.28932  25
   4  -7 -11 4.81048 1.02915  17
   4  -7 -11 6.88946 2.63078  18
   3  -7 -11 89.0766 6.55301  17
   3  -7 -11 96.9265 9.34280  18
   2  -7 -11 12.1240 2.36884  26
   2  -7 -11 8.11279 3.27470  18
   2  -7 -11 17.3056 1.80686  17
   2  -7 -11 15.0117 1.67358  16
   1  -7 -11 9.32785 1.84822  17
   1  -7 -11 12.6333 2.36255  26
   1  -7 -11 16.5471 1.89480  16
   1  -7 -11 6.22752 2.96859  18
   0  -7 -11 11.5347 1.70386  16
   0  -7 -11 10.5586 2.14547  18
   0  -7 -11 11.6842 1.52214  17
   0  -7 -11 11.6506 2.74311  26
  -1  -7 -11 6.52762 1.73006  26
  -1  -7 -11 7.85768 1.38699  16
   7  -8 -11 17.2320 2.37182  18
   6  -8 -11 2.78165 1.52062  25
   6  -8 -11 1.63840 2.30812  18
   5  -8 -11 35.0735 3.74469  25
   5  -8 -11 42.8245 4.59091  18
   4  -8 -11 2.17832 0.68824  17
   4  -8 -11 2.05324 1.09838  25
   4  -8 -11 0.50360 1.81082  18
   3  -8 -11 1.75448 1.91451  18
   3  -8 -11 1.42592 0.97230  17
   2  -8 -11 24.2953 2.24969  17
   2  -8 -11 26.9385 3.59554  18
   1  -8 -11 31.2739 2.69171  17
   1  -8 -11 33.1455 2.58654  16
   1  -8 -11 32.9209 3.78032  18
   6  -9 -11 4.10882 1.35984  18
   5  -9 -11 5.55652 1.14146  25
   5  -9 -11 3.37691 1.63238  18
   4  -9 -11 1.76679 2.15031  18
   4  -9 -11 0.08212 0.88767  25
   3  -9 -11 33.0169 3.66033  18
   3  -9 -11 32.2076 2.44577  17
   2  -9 -11 123.050 8.28542  17
   2  -9 -11 114.408 10.4303  18
  -2  -9  12 -0.5960 1.30991  16
  -1  -9  12 0.49360 1.06606  16
  -1  -9  12 1.97008 1.77790  26
   0  -9  12 1.45440 1.62860  23
   0  -9  12 1.57360 0.88526  16
   1  -9  12 178.773 16.6361  23
   1  -9  12 171.232 12.1111  17
  -3  -8  12 57.1354 5.81197  26
  -3  -8  12 40.6588 4.52090  16
  -2  -8  12 2.86360 2.16027  26
  -2  -8  12 2.60255 1.84647  16
  -1  -8  12 4.29944 2.30309  26
  -1  -8  12 5.57961 2.09897  16
  -1  -8  12 4.51875 2.05773  23
   0  -8  12 104.335 9.56286  26
   0  -8  12 113.386 10.1917  23
   0  -8  12 83.0271 7.25934  17
   0  -8  12 97.0019 7.49770  16
   1  -8  12 1.06548 1.87038  23
   1  -8  12 0.20163 1.10469  17
   1  -8  12 0.05661 1.24415  26
   1  -8  12 -0.1270 1.08504  16
   2  -8  12 0.25736 1.38291  23
   2  -8  12 0.42103 1.15539  17
   4   7 -12 48.7576 4.86358  26
  -4  -7  12 37.5374 5.58532  26
   3   7 -12 59.2658 5.96352  26
  -3  -7  12 50.7542 6.80959  26
  -2  -7  12 40.3645 5.22706  23
  -2  -7  12 51.4700 6.09697  26
  -2  -7  12 38.4519 4.78012  16
  -1  -7  12 0.80199 3.57380  26
  -1  -7  12 0.31246 3.22078  16
  -1  -7  12 0.13141 2.29815  23
   0  -7  12 46.5885 4.70693  16
   0  -7  12 56.6476 6.04049  26
   0  -7  12 46.5862 6.21362  23
   1  -7  12 6.67842 2.21712  23
   1  -7  12 7.61935 1.49548  17
   1  -7  12 7.03641 2.14635  16
   1  -7  12 6.95593 2.48894  26
   2  -7  12 12.5420 2.96616  23
   2  -7  12 18.1953 1.85580  16
   2  -7  12 18.8555 1.99505  17
   3  -7  12 0.38567 0.65766  17
   5   6 -12 70.0452 7.11818  26
   5   6 -12 76.8597 8.05145  20
   4   6 -12 82.9021 8.05056  26
  -4  -6  12 67.1877 9.47613  26
   3   6 -12 10.5230 2.29302  26
  -3  -6  12 6.12252 3.36818  26
   2   6 -12 8.97102 2.69544  26
  -2  -6  12 6.99430 2.60929  23
  -2  -6  12 4.98054 4.32621  26
  -1  -6  12 8.11182 2.78979  23
  -1  -6  12 6.64979 4.04443  26
  -1  -6  12 2.18057 3.31278  16
   0  -6  12 4.46957 2.92987  16
   0  -6  12 6.01641 2.44642  23
   0  -6  12 5.16612 3.56969  26
   1  -6  12 10.9530 2.73187  16
   1  -6  12 7.36292 3.20962  23
   1  -6  12 14.8432 2.72038  26
   2  -6  12 82.8761 7.41887  26
   2  -6  12 76.4909 7.90569  23
   2  -6  12 68.7449 5.77208  16
   6   5 -12 15.4346 2.11046  26
   5   5 -12 2.20538 1.41764  26
   5   5 -12 2.36913 1.18175  16
   4   5 -12 23.0509 3.28666  26
  -4  -5  12 15.7789 4.12334  26
   3   5 -12 8.38060 2.70599  26
  -3  -5  12 4.77442 4.59831  26
   2   5 -12 153.013 12.9111  26
  -2  -5  12 107.930 13.4817  26
  -1  -5  12 0.97839 2.92715  26
  -1  -5  12 -2.4625 3.52328  16
   0  -5  12 2.60953 3.22830  16
   0  -5  12 4.02927 3.96143  26
   1  -5  12 108.125 9.62321  26
   1  -5  12 74.8051 7.33460  16
   1  -5  12 75.5108 8.81321  23
   2  -5  12 35.8318 4.21823  26
   2  -5  12 29.5959 3.26352  16
   2  -5  12 30.2608 4.87618  23
   3  -5  12 10.5260 1.91274  22
   3  -5  12 7.13677 1.16542  16
   3  -5  12 8.26601 1.62052  26
   3  -5  12 8.26549 1.29714  17
   6   4 -12 4.70939 1.07941  16
   6   4 -12 6.02078 1.67332  20
   6   4 -12 5.62074 1.43479  26
   5   4 -12 30.5613 2.92451  16
   5   4 -12 28.6468 3.68505  26
   4   4 -12 21.6018 3.27679  26
   4   4 -12 22.9411 2.97057  19
   4   4 -12 22.6326 2.63500  16
   3   4 -12 114.313 10.2616  26
  -3  -4  12 73.4755 11.6797  26
   2   4 -12 5.08375 2.83891  26
  -2  -4  12 5.30837 4.68315  26
   1   4 -12 26.4291 4.34092  26
  -1  -4  12 17.8495 5.40678  26
   0  -4  12 20.5312 4.34595  26
   0  -4  12 19.0943 3.33890  16
   1  -4  12 0.14761 2.36143  26
   1  -4  12 0.03813 1.95230  16
   2  -4  12 6.35523 2.64395  23
   2  -4  12 10.8316 2.23304  22
   2  -4  12 11.0894 2.15431  16
   2  -4  12 11.2114 2.59525  26
   3  -4  12 5.85433 1.83839  26
   3  -4  12 4.53235 1.51108  16
   3  -4  12 6.40020 2.15803  22
   3  -4  12 9.32918 1.40588  17
   6   3 -12 57.0058 6.54416  20
   5   3 -12 9.56224 1.65849  16
   5   3 -12 10.5114 2.47381  26
   5   3 -12 10.3300 2.51666  19
   4   3 -12 98.6711 8.72221  19
   4   3 -12 84.2991 7.36316  16
   4   3 -12 94.8463 9.46992  26
   3   3 -12 33.6488 4.59193  26
  -3  -3  12 27.8085 6.16277  26
   2   3 -12 90.0203 9.10494  26
  -2  -3  12 68.0930 10.5863  26
   1   3 -12 50.0559 6.32923  26
  -1  -3  12 34.2254 6.70414  26
   0  -3  12 10.3573 3.57518  26
   1  -3  12 2.61093 3.53980  26
   1  -3  12 -0.9133 2.93652  16
   2  -3  12 71.5311 6.45726  16
   2  -3  12 77.1971 7.71814  22
   2  -3  12 61.7371 7.44994  23
   2  -3  12 81.6905 7.79061  26
   3  -3  12 3.71939 2.15927  22
   3  -3  12 4.55847 1.50522  26
   3  -3  12 3.03160 1.25954  16
   3  -3  12 5.36600 1.74510  17
   7   2 -12 68.3338 4.89718  17
   6   2 -12 12.7102 1.42981  17
   6   2 -12 9.69804 2.45367  19
   6   2 -12 6.31373 1.63479  16
   6   2 -12 12.3501 2.38033  20
   5   2 -12 50.2715 5.56026  26
   5   2 -12 57.0250 4.44624  16
   5   2 -12 48.6766 5.29310  19
   4   2 -12 24.6156 3.74447  26
   4   2 -12 23.7289 3.51448  19
   4   2 -12 28.8251 3.06301  16
   3   2 -12 5.10462 1.82286  16
   3   2 -12 6.47866 2.21888  26
   2   2 -12 133.723 11.7831  26
  -2  -2  12 97.9399 12.5466  26
  -1  -2  12 -1.6878 4.17991  26
   0  -2  12 69.0861 8.47500  26
   1  -2  12 84.1996 7.86199  16
   1  -2  12 103.849 10.2840  26
   1  -2  12 95.0334 9.71327  22
   2  -2  12 3.73921 2.35572  26
   2  -2  12 4.53018 1.92062  16
   2  -2  12 1.70231 2.56297  22
   3  -2  12 -0.3881 1.38706  26
   3  -2  12 1.42159 1.27530  16
   3  -2  12 0.59335 1.55212  22
   7   1 -12 0.14396 1.50274  19
   7   1 -12 0.37532 0.98493  17
   6   1 -12 8.32713 1.67516  17
   6   1 -12 11.1304 1.97798  26
   6   1 -12 15.2471 1.67509  16
   6   1 -12 16.1397 2.58544  19
   5   1 -12 1.84122 1.72729  16
   5   1 -12 -1.4013 1.95139  19
   5   1 -12 -0.7777 1.41945  17
   5   1 -12 0.84710 1.92351  26
   4   1 -12 2.00232 1.53492  16
   4   1 -12 3.90695 1.84006  26
   3   1 -12 63.0229 7.28170  26
   3   1 -12 63.5112 5.75917  16
   1   1 -12 1.01870 2.34753  26
  -1  -1  12 1.45625 3.01211  26
   0   1 -12 84.6046 8.78477  26
   0  -1  12 51.8582 8.43448  26
  -1   1 -12 12.8566 4.02834  26
   1  -1  12 6.24818 2.99415  22
   1  -1  12 2.79519 3.75872  26
   2  -1  12 0.28649 1.83922  22
   2  -1  12 0.19915 2.56895  16
   2  -1  12 -0.1828 3.03947  26
   3  -1  12 22.5593 2.96451  22
   3  -1  12 10.1162 2.82521  26
   7   0 -12 -0.0665 1.00767  17
   7   0 -12 1.15701 1.47279  19
   6   0 -12 53.8360 5.96129  19
   6   0 -12 48.7303 3.84540  17
   6   0 -12 47.3069 5.20350  26
   6   0 -12 52.2508 4.09869  16
   5   0 -12 60.1176 6.08515  19
   5   0 -12 58.8845 6.00825  26
   5   0 -12 56.8882 4.46332  17
   5   0 -12 56.5289 4.71166  16
   4   0 -12 268.646 19.0229  16
   4   0 -12 269.624 24.3812  26
   4   0 -12 253.792 18.5380  17
   4   0 -12 282.740 22.3947  19
   3   0 -12 57.8587 6.70596  26
   3   0 -12 53.8771 5.23691  16
   2   0 -12 89.4447 7.84499  16
   2   0 -12 98.7699 10.3918  26
   1   0 -12 16.7229 3.58577  26
  -1   0  12 10.4354 3.75869  26
   0   0 -12 20.6155 4.65378  26
   0   0  12 9.85809 4.71211  26
  -1   0 -12 13.1781 4.04675  26
   1   0  12 5.61817 4.05993  26
   2   0  12 45.9304 5.18277  22
   2   0  12 41.9966 5.69631  26
   2   0  12 39.5559 4.37396  16
   3   0  12 39.9247 4.68619  22
   3   0  12 35.2596 4.25245  26
   3   0  12 29.4282 3.28567  16
   7  -1 -12 90.3515 6.50332  17
   7  -1 -12 95.0784 8.29945  19
   6  -1 -12 49.6991 5.29786  19
   6  -1 -12 49.9164 3.83665  17
   6  -1 -12 43.2929 4.73800  26
   6  -1 -12 47.2022 3.71432  16
   5  -1 -12 19.7032 2.10157  17
   5  -1 -12 20.7184 2.92275  26
   5  -1 -12 21.6058 2.36786  16
   5  -1 -12 21.2911 3.40966  19
   4  -1 -12 19.4496 3.84157  19
   4  -1 -12 15.9336 2.12651  17
   4  -1 -12 17.2637 3.05900  26
   4  -1 -12 17.2478 2.52826  16
   3  -1 -12 2.08968 1.74763  26
   3  -1 -12 0.97058 1.37520  16
   2  -1 -12 57.2910 5.57032  16
   2  -1 -12 62.7706 7.47152  26
   2  -1 -12 51.0269 6.25789  18
   1  -1 -12 138.027 12.6094  26
   1  -1 -12 111.746 11.4882  18
   0  -1 -12 44.0220 5.47320  26
   0   1  12 19.3556 4.78337  26
   1   1  12 87.5743 9.71391  26
  -2  -1 -12 22.2166 4.10128  26
   2   1  12 9.57030 3.71463  26
   3   1  12 2.31113 1.28833  16
   3   1  12 1.60784 2.03013  22
   3   1  12 1.19361 1.45363  26
   8  -2 -12 20.8901 2.60389  19
   7  -2 -12 23.8900 3.29776  19
   7  -2 -12 22.6979 2.08216  17
   6  -2 -12 66.4075 4.41459  17
   6  -2 -12 52.3204 4.10035  16
   6  -2 -12 75.8630 6.24359  19
   5  -2 -12 104.784 10.3757  26
   5  -2 -12 114.991 10.0676  19
   5  -2 -12 106.155 7.84684  17
   5  -2 -12 117.126 8.17824  16
   4  -2 -12 2.51773 2.58139  18
   4  -2 -12 1.16817 1.80346  16
   4  -2 -12 1.86974 1.39671  17
   4  -2 -12 2.15324 2.12831  26
   4  -2 -12 5.91852 2.41164  19
   3  -2 -12 1.29559 1.05896  17
   3  -2 -12 0.39075 2.54314  18
   2  -2 -12 411.730 35.2772  26
   2  -2 -12 384.423 27.4651  16
   2  -2 -12 373.129 33.0373  18
   1  -2 -12 1.99997 1.81488  16
   1  -2 -12 1.12729 2.19394  18
   1  -2 -12 2.69392 2.59964  26
   0   2  12 44.0125 6.57959  26
   1   2  12 109.750 11.4473  26
  -2  -2 -12 32.6303 4.36596  26
   2   2  12 15.4065 3.41383  26
   3   2  12 3.19591 1.41877  22
   8  -3 -12 4.28801 1.45858  19
   7  -3 -12 14.3554 1.41684  17
   7  -3 -12 13.4522 2.57675  19
   6  -3 -12 137.938 9.33502  17
   6  -3 -12 139.663 11.7508  19
   6  -3 -12 123.790 11.6970  18
   5  -3 -12 94.4951 6.72056  16
   5  -3 -12 87.9360 8.83881  18
   5  -3 -12 105.287 8.99908  19
   5  -3 -12 93.9123 6.68360  17
   5  -3 -12 82.5278 8.53114  26
   4  -3 -12 15.0167 3.44377  19
   4  -3 -12 13.0546 1.85153  17
   4  -3 -12 13.8587 2.63002  26
   4  -3 -12 16.7803 2.21334  16
   4  -3 -12 16.8036 2.93824  18
   3  -3 -12 131.665 12.0303  18
   3  -3 -12 133.642 9.59574  17
   3  -3 -12 134.926 11.8608  19
   2  -3 -12 54.8616 4.94813  16
   2  -3 -12 53.6302 6.67255  18
   2  -3 -12 57.5949 6.50839  26
   1  -3 -12 17.5607 3.30459  18
   1  -3 -12 22.5071 3.92344  26
   1  -3 -12 22.5703 2.91943  16
   0  -3 -12 24.5956 4.23432  26
   0  -3 -12 22.6977 3.17727  16
  -1  -3 -12 27.9048 4.55554  26
   1   3  12 12.8150 4.31768  26
   2   3  12 5.87534 2.14486  26
   8  -4 -12 24.1233 2.85864  19
   7  -4 -12 1.38265 0.49071  17
   7  -4 -12 1.54265 1.69618  19
   7  -4 -12 1.20126 1.32753  18
   6  -4 -12 133.232 9.39099  17
   6  -4 -12 139.888 11.9905  19
   6  -4 -12 133.158 12.1034  18
   5  -4 -12 2.43766 1.16851  17
   5  -4 -12 2.83621 2.66221  19
   5  -4 -12 4.88441 2.86922  18
   4  -4 -12 15.8243 3.66999  18
   4  -4 -12 21.6343 2.31158  16
   4  -4 -12 14.0435 3.19094  19
   4  -4 -12 19.6135 2.87082  26
   4  -4 -12 15.7360 1.97172  17
   3  -4 -12 94.7080 7.02817  17
   3  -4 -12 97.3209 8.62767  19
   3  -4 -12 99.9372 9.21497  18
   2  -4 -12 138.731 12.5711  26
   2  -4 -12 113.436 8.97304  17
   2  -4 -12 130.133 9.65719  16
   2  -4 -12 129.292 11.5726  18
   1  -4 -12 100.019 8.10418  16
   1  -4 -12 95.9409 9.49487  18
   1  -4 -12 103.833 10.6206  26
   0  -4 -12 100.863 9.81603  18
   0  -4 -12 103.284 8.10054  16
   0  -4 -12 108.945 10.6805  26
  -1  -4 -12 1.56912 2.22378  26
  -1  -4 -12 1.38931 1.78490  16
  -2  -4 -12 36.1272 4.23668  18
  -2  -4 -12 43.0373 4.74731  26
   7  -5 -12 125.264 11.2088  18
   7  -5 -12 132.536 10.9930  19
   6  -5 -12 1.46127 1.72539  18
   6  -5 -12 2.27122 0.76685  17
   6  -5 -12 4.16481 1.82049  19
   5  -5 -12 -0.0225 0.68348  17
   5  -5 -12 1.68790 2.80356  18
   5  -5 -12 -0.5579 2.26507  19
   4  -5 -12 6.36539 1.13319  16
   4  -5 -12 8.04112 1.39671  17
   4  -5 -12 4.79197 3.33807  18
   3  -5 -12 46.6996 3.78474  17
   3  -5 -12 53.1324 6.27138  18
   2  -5 -12 1.63369 1.36123  16
   2  -5 -12 -1.4558 2.06230  18
   2  -5 -12 0.88719 1.09415  17
   2  -5 -12 1.88279 1.73023  26
   1  -5 -12 48.1537 5.75643  26
   1  -5 -12 49.6750 6.35899  18
   1  -5 -12 49.1796 4.35904  16
   0  -5 -12 28.4787 3.87937  18
   0  -5 -12 24.6230 3.15957  16
   0  -5 -12 18.5144 3.96299  26
  -1  -5 -12 0.50655 1.70029  26
  -1  -5 -12 1.10660 1.40971  16
  -1  -5 -12 2.60514 1.80875  18
   7  -6 -12 18.5925 2.90036  19
   7  -6 -12 27.2888 2.94746  18
   6  -6 -12 6.20294 2.02815  19
   6  -6 -12 13.0330 2.31826  18
   5  -6 -12 180.046 11.9901  17
   5  -6 -12 165.809 15.2221  18
   4  -6 -12 21.4776 2.09840  17
   4  -6 -12 19.2263 3.29952  18
   3  -6 -12 21.9352 2.81594  26
   3  -6 -12 19.5600 3.85965  18
   3  -6 -12 27.8495 2.28117  17
   3  -6 -12 28.0101 2.33146  16
   2  -6 -12 5.11442 1.19753  17
   2  -6 -12 3.38506 2.93466  18
   2  -6 -12 2.80163 1.90614  26
   2  -6 -12 3.27567 1.47504  16
   1  -6 -12 43.4326 5.60754  18
   1  -6 -12 44.9520 3.76331  16
   1  -6 -12 40.9568 3.48427  17
   1  -6 -12 44.3088 5.38515  26
   0  -6 -12 39.3868 4.63726  26
   0  -6 -12 40.5033 3.50708  16
   5  -7 -12 14.5810 1.25123  17
   5  -7 -12 11.4455 2.43436  18
   4  -7 -12 4.26302 2.72961  18
   4  -7 -12 7.02878 1.04689  17
   3  -7 -12 1.34517 0.99581  17
   3  -7 -12 1.94085 2.00749  18
   2  -7 -12 4.23597 1.01002  17
   2  -7 -12 4.86991 1.92752  18
   1  -7 -12 0.12483 0.82149  17
   1  -7 -12 0.94768 1.67097  18
   1  -7 -12 -0.2638 1.22025  26
   1  -7 -12 0.63809 0.96812  16
   6  -8 -12 70.6114 6.49497  18
   5  -8 -12 2.57181 2.17787  18
   4  -8 -12 58.0004 6.35904  18
   4  -8 -12 72.2210 4.72518  17
   3  -8 -12 0.99315 0.71414  17
   3  -8 -12 1.24067 1.56138  18
   2  -8 -12 23.3555 2.97865  18
   2  -8 -12 23.6663 2.07293  17
  -1  -8  13 3.88014 1.42550  26
  -1  -8  13 4.28798 1.74060  16
   0  -8  13 5.47411 1.21508  16
  -3  -7  13 126.461 12.1484  26
  -2  -7  13 1.12291 2.17418  26
  -2  -7  13 1.57984 1.98186  16
  -2  -7  13 2.76179 2.41629  23
  -1  -7  13 1.07028 2.14725  26
  -1  -7  13 5.28841 2.09359  23
  -1  -7  13 5.23905 2.00957  16
   0  -7  13 -0.0588 1.82285  23
   0  -7  13 -0.6699 1.68242  26
   0  -7  13 0.14055 1.53783  16
   1  -7  13 0.53572 1.29286  26
   1  -7  13 0.32725 1.50832  23
   1  -7  13 -0.2535 1.13760  16
   1  -7  13 0.04151 1.03025  17
   4   6 -13 0.45975 1.18339  26
  -4  -6  13 -0.6962 2.03731  26
   3   6 -13 77.8039 6.97929  26
  -3  -6  13 53.6936 7.60328  26
   2   6 -13 8.07083 2.39883  26
  -2  -6  13 6.78208 4.05751  26
  -2  -6  13 5.39013 3.65881  16
  -2  -6  13 5.02850 2.18260  23
  -1  -6  13 29.6284 4.66088  23
  -1  -6  13 33.9889 4.80949  26
  -1  -6  13 32.9137 3.85890  16
   0  -6  13 0.99112 2.56217  16
   0  -6  13 -1.6129 2.84982  26
   0  -6  13 0.03165 2.04783  23
   1  -6  13 1.49131 1.71487  17
   1  -6  13 5.85611 1.89259  23
   1  -6  13 1.96795 1.85529  16
   1  -6  13 1.64441 2.16142  26
   2  -6  13 60.4344 4.83076  17
   2  -6  13 72.0985 6.63642  23
   2  -6  13 63.7862 4.72519  16
   5   5 -13 0.79615 0.87685  16
   5   5 -13 1.30607 1.14199  26
   4   5 -13 3.48745 1.58229  26
  -4  -5  13 5.50255 3.09854  26
   3   5 -13 14.2756 2.38105  26
   3   5 -13 18.2866 2.32429  19
  -3  -5  13 11.1480 4.54297  26
  -3  -5  13 5.99552 2.90234  23
   2   5 -13 62.4561 6.02156  26
  -2  -5  13 39.8758 6.80210  26
  -1  -5  13 48.8743 6.67686  26
  -1  -5  13 23.3953 4.23559  16
   0  -5  13 13.9226 3.22869  16
   0  -5  13 21.3111 4.17835  26
   1  -5  13 2.47702 1.66830  16
   1  -5  13 4.99396 2.05271  23
   1  -5  13 8.20401 2.32897  26
   2  -5  13 35.6794 4.51434  23
   2  -5  13 41.2344 3.92025  26
   2  -5  13 31.7005 3.01794  16
   5   4 -13 231.145 20.3918  26
   5   4 -13 221.932 15.9565  16
   4   4 -13 86.3456 8.19617  19
   4   4 -13 95.7629 8.99818  26
   4   4 -13 95.0175 7.05727  16
   3   4 -13 2.17578 2.34367  26
  -3  -4  13 3.01337 4.33821  26
   2   4 -13 115.706 10.3051  26
  -2  -4  13 87.4014 10.9506  26
   1   4 -13 24.7348 3.56108  26
  -1  -4  13 15.9269 4.19278  26
   0  -4  13 21.0023 3.28644  16
   0  -4  13 28.7257 4.36186  26
   1  -4  13 21.6563 3.97863  26
   1  -4  13 17.8630 3.15725  16
   1  -4  13 24.1892 3.53066  23
   2  -4  13 2.46417 2.07978  26
   2  -4  13 4.32274 1.48017  23
   2  -4  13 2.00603 1.76193  16
   6   3 -13 191.351 12.9808  16
   6   3 -13 178.624 16.5641  26
   5   3 -13 0.00016 1.25817  26
   5   3 -13 -0.4586 1.05562  16
   5   3 -13 0.55383 2.00631  19
   4   3 -13 32.0700 4.35447  19
   4   3 -13 31.5639 4.54981  26
   4   3 -13 31.6740 3.64849  16
   3   3 -13 2.73728 1.86801  26
  -3  -3  13 2.75462 2.98351  26
   2   3 -13 0.84086 1.85078  26
  -2  -3  13 -1.6758 2.97534  26
   1   3 -13 3.51326 2.22426  26
  -1  -3  13 0.54136 2.94237  26
   0  -3  13 23.4442 4.20969  26
   1  -3  13 1.82059 2.67268  16
   1  -3  13 2.96787 3.09394  26
   2  -3  13 9.71236 2.21828  26
   2  -3  13 8.91878 1.82313  16
   3  -3  13 28.3881 2.39345  16
   6   2 -13 73.3137 5.47234  17
   6   2 -13 77.9977 7.15930  26
   6   2 -13 79.9685 5.58731  16
   6   2 -13 72.6480 6.80837  19
   5   2 -13 36.3699 3.96043  26
   5   2 -13 32.6348 3.10140  16
   5   2 -13 32.4273 3.81433  19
   4   2 -13 17.6506 3.48265  19
   4   2 -13 23.6103 2.74297  16
   4   2 -13 26.5728 3.45915  26
   3   2 -13 34.5250 4.19589  16
   3   2 -13 39.4167 5.26552  26
   2   2 -13 89.2837 8.89367  26
  -2  -2  13 65.3947 10.3448  26
   1   2 -13 291.324 23.5110  26
  -1  -2  13 207.069 23.9963  26
   0  -2  13 9.18212 4.17701  26
   1  -2  13 5.36563 2.10940  16
   1  -2  13 7.55565 2.63253  26
   2  -2  13 6.37501 2.64393  26
   2  -2  13 10.0315 2.25173  22
   2  -2  13 6.26847 2.26740  16
   3  -2  13 1.47876 0.81280  16
   7   1 -13 23.4765 1.87517  17
   6   1 -13 -0.0244 1.58798  19
   6   1 -13 0.22238 1.01960  16
   6   1 -13 0.55594 1.24702  26
   6   1 -13 0.34052 0.88223  17
   5   1 -13 1.70765 1.76246  26
   5   1 -13 1.74214 1.41655  17
   5   1 -13 2.67555 1.98634  19
   5   1 -13 3.43332 1.62533  16
   4   1 -13 21.5418 3.21891  26
   4   1 -13 23.8595 2.62564  16
   4   1 -13 25.5667 3.41342  19
   3   1 -13 12.8563 2.15513  16
   3   1 -13 14.4934 2.76802  26
   2   1 -13 30.8722 4.31584  26
  -1  -1  13 1.66040 4.09132  26
   0   1 -13 25.7364 4.52296  26
   0  -1  13 10.3633 4.41113  26
   1  -1  13 51.9405 7.22458  26
   2  -1  13 6.38335 1.78912  16
   2  -1  13 6.53971 2.18803  26
   2  -1  13 9.71529 1.86500  22
   7   0 -13 2.59090 1.17747  19
   7   0 -13 3.42809 0.67630  17
   6   0 -13 2.73815 1.84543  19
   6   0 -13 2.68516 0.92912  17
   6   0 -13 2.49423 1.08743  26
   6   0 -13 1.78540 0.88787  16
   5   0 -13 236.672 17.2157  16
   5   0 -13 253.901 20.3216  19
   5   0 -13 247.653 21.9899  26
   5   0 -13 240.843 16.8467  17
   4   0 -13 93.7560 9.54248  26
   4   0 -13 109.541 8.92813  19
   4   0 -13 92.4731 7.18477  17
   4   0 -13 94.1252 7.52250  16
   3   0 -13 2.80489 2.06295  16
   3   0 -13 1.54401 2.54485  26
   1   0 -13 -2.9165 3.04766  26
  -1   0  13 1.93879 3.96658  26
   0   0  13 23.9149 5.02189  26
  -1   0 -13 1.38209 2.21070  26
   1   0  13 -0.3471 2.22037  22
   1   0  13 -0.3720 2.19768  26
   2   0  13 0.23693 1.39997  22
   2   0  13 0.66274 1.61813  26
   2   0  13 1.98381 1.52908  16
   7  -1 -13 2.02317 1.45713  19
   7  -1 -13 1.03374 0.77509  17
   6  -1 -13 1.73142 0.69093  16
   6  -1 -13 2.71334 1.20101  17
   6  -1 -13 3.76617 1.96733  19
   5  -1 -13 18.9671 1.89377  17
   5  -1 -13 17.0152 2.08028  16
   5  -1 -13 14.5140 2.49175  26
   5  -1 -13 18.7095 2.94806  19
   4  -1 -13 1.74649 2.15604  19
   4  -1 -13 0.83851 1.88258  26
   4  -1 -13 2.40802 1.73460  16
   4  -1 -13 1.32699 1.02795  17
   3  -1 -13 10.4898 2.35065  26
   3  -1 -13 8.59634 1.79097  16
   1  -1 -13 150.661 11.7369  16
   1  -1 -13 172.596 15.3332  26
   1  -1 -13 152.259 14.0080  18
   0  -1 -13 186.622 17.6377  18
   0  -1 -13 222.350 19.2116  26
  -1  -1 -13 55.2065 4.93753  18
   1   1  13 33.1093 5.37308  22
   2   1  13 2.07473 1.70822  26
   2   1  13 1.30355 1.94418  22
   7  -2 -13 3.08818 0.68532  17
   7  -2 -13 3.86598 1.68287  19
   6  -2 -13 -0.3452 0.75399  17
   6  -2 -13 0.11388 1.79409  19
   5  -2 -13 4.36150 2.13284  19
   5  -2 -13 3.14167 1.40123  26
   5  -2 -13 3.36383 1.18062  16
   5  -2 -13 3.07809 1.28160  17
   4  -2 -13 92.6192 7.23741  16
   4  -2 -13 97.3882 6.89587  17
   4  -2 -13 101.997 9.09118  19
   4  -2 -13 90.2628 9.18526  26
   3  -2 -13 34.8978 4.14601  19
   3  -2 -13 28.3846 3.97942  26
   3  -2 -13 34.4658 2.96137  17
   3  -2 -13 35.4914 3.20391  16
   3  -2 -13 31.3045 3.91461  18
   2  -2 -13 11.8118 3.34498  26
   2  -2 -13 10.8134 2.44347  16
   2  -2 -13 6.61694 2.67430  18
   1  -2 -13 190.597 16.7710  26
   1  -2 -13 163.460 15.3126  18
   1  -2 -13 176.780 13.1610  16
   0  -2 -13 10.4910 3.11928  18
   0  -2 -13 14.8563 3.16344  26
   0   2  13 5.16531 2.86636  26
  -1  -2 -13 42.9899 5.58088  18
  -1  -2 -13 50.4814 5.78221  26
   2   2  13 7.85036 2.00777  26
   7  -3 -13 59.7465 4.16008  17
   7  -3 -13 59.1704 5.54762  19
   6  -3 -13 38.4313 4.13206  19
   6  -3 -13 34.2793 2.88910  17
   5  -3 -13 254.346 23.9912  18
   5  -3 -13 269.966 19.3696  17
   5  -3 -13 302.890 23.3772  19
   5  -3 -13 304.181 19.6298  16
   4  -3 -13 12.9424 1.84084  16
   4  -3 -13 17.9076 2.52771  18
   4  -3 -13 15.6745 1.70216  17
   4  -3 -13 13.8764 2.99657  19
   4  -3 -13 9.98018 2.18157  26
   3  -3 -13 4.65109 2.49619  19
   3  -3 -13 3.87738 1.66592  16
   3  -3 -13 4.94243 2.01507  18
   3  -3 -13 3.80527 1.51141  17
   3  -3 -13 4.64767 2.08124  26
   2  -3 -13 62.3243 5.06105  16
   2  -3 -13 55.4816 6.06261  18
   2  -3 -13 60.7728 6.59965  26
   1  -3 -13 15.7044 2.39057  16
   1  -3 -13 14.4374 3.08270  26
   1  -3 -13 17.3524 2.86901  18
   0  -3 -13 53.5587 6.07162  26
   0  -3 -13 45.8036 4.48017  16
   0  -3 -13 52.4709 5.50029  18
  -1  -3 -13 8.18069 2.19679  26
  -1  -3 -13 7.80559 1.94464  18
   1   3  13 1.59050 1.90394  26
   7  -4 -13 55.1943 5.40487  19
   6  -4 -13 3.48910 1.79489  18
   6  -4 -13 3.05813 1.66349  19
   6  -4 -13 2.89544 0.86305  17
   5  -4 -13 27.9874 3.40299  19
   5  -4 -13 21.0225 3.44484  18
   5  -4 -13 27.4477 2.37488  17
   4  -4 -13 7.30807 1.11920  17
   4  -4 -13 4.78623 1.39840  26
   4  -4 -13 6.34632 1.14720  16
   4  -4 -13 5.74184 2.68928  18
   4  -4 -13 5.55727 1.79434  19
   3  -4 -13 169.289 14.2927  18
   3  -4 -13 143.229 14.8332  26
   3  -4 -13 176.511 11.4554  17
   2  -4 -13 10.7018 3.36118  18
   2  -4 -13 22.4187 2.16610  17
   2  -4 -13 22.3974 2.44141  16
   2  -4 -13 23.0674 3.25801  26
   1  -4 -13 19.1520 2.37789  16
   1  -4 -13 20.3410 3.01892  18
   1  -4 -13 15.7591 3.05036  26
   0  -4 -13 363.785 31.7949  18
   0  -4 -13 375.643 26.3613  16
   0  -4 -13 389.286 33.7785  26
  -1  -4 -13 67.8757 6.56949  18
  -1  -4 -13 67.3466 6.89655  26
   6  -5 -13 0.77974 1.80024  19
   6  -5 -13 -0.1354 0.59677  17
   6  -5 -13 -0.5347 1.79203  18
   5  -5 -13 -0.1585 1.88936  19
   5  -5 -13 -0.4183 1.63862  18
   5  -5 -13 0.41254 0.87733  17
   4  -5 -13 211.747 18.3910  18
   3  -5 -13 0.73000 2.72444  18
   3  -5 -13 0.24203 0.81856  17
   3  -5 -13 -0.3714 0.90942  16
   3  -5 -13 1.44391 1.21286  26
   2  -5 -13 18.0453 3.72520  18
   2  -5 -13 35.3513 3.62189  26
   2  -5 -13 33.9707 2.71229  16
   2  -5 -13 23.2699 2.41187  17
   1  -5 -13 6.64730 1.94502  26
   1  -5 -13 9.24446 1.56469  16
   1  -5 -13 3.40429 2.67629  18
   0  -5 -13 20.3929 2.78092  26
   0  -5 -13 9.82051 2.76738  18
   0  -5 -13 21.2849 2.18269  16
   6  -6 -13 1.26991 1.19125  18
   5  -6 -13 21.6147 1.70328  17
   5  -6 -13 11.8924 2.84903  18
   4  -6 -13 192.591 13.4746  17
   4  -6 -13 202.254 16.9754  18
   3  -6 -13 17.8813 2.83541  18
   3  -6 -13 22.3319 2.10362  17
   2  -6 -13 30.9095 2.57122  17
   2  -6 -13 31.6671 3.83932  18
   1  -6 -13 1.79302 1.49321  18
   1  -6 -13 2.89328 1.08780  16
   1  -6 -13 2.88694 1.46298  26
   5  -7 -13 36.8627 3.86723  18
   4  -7 -13 0.74940 1.47884  18
   4  -7 -13 0.74451 0.61779  17
   3  -7 -13 0.87060 1.50990  18
   3  -7 -13 1.66939 0.59969  17
   2  -7 -13 6.38018 1.04272  17
   2  -7 -13 5.59146 1.57603  18
  -3  -6  14 27.0984 3.99217  26
  -2  -6  14 2.92905 2.09359  26
  -1  -6  14 34.2192 5.00090  23
   0  -6  14 123.635 12.5584  23
   0  -6  14 131.776 11.8433  26
   4   5 -14 81.0041 7.68705  26
   3   5 -14 2.96044 1.95002  26
   3   5 -14 1.69708 1.63185  19
  -3  -5  14 0.41197 2.42619  26
   2   5 -14 7.17281 1.87260  26
  -2  -5  14 5.10744 2.71000  26
  -2  -5  14 2.74120 1.95341  23
  -1  -5  14 90.6231 9.89710  26
  -1  -5  14 106.646 10.1136  23
   0  -5  14 0.12959 1.73189  23
   0  -5  14 -1.6368 2.38815  26
   0  -5  14 -0.1956 1.58326  16
   1  -5  14 0.92955 1.04512  16
   1  -5  14 -0.3549 1.80812  23
   1  -5  14 0.59426 1.21127  26
   5   4 -14 19.5966 2.38461  26
   4   4 -14 53.9331 4.54330  16
   4   4 -14 54.0016 5.35701  19
   4   4 -14 65.5857 5.86746  26
   3   4 -14 88.4887 8.15178  26
   3   4 -14 89.6492 7.27258  19
  -3  -4  14 59.8068 8.77116  26
   2   4 -14 6.86527 1.90292  26
  -2  -4  14 4.56714 2.77736  26
   1   4 -14 63.3321 7.01154  26
   0  -4  14 11.7086 2.28406  16
   0  -4  14 15.5231 2.93995  26
   1  -4  14 27.0855 2.91847  16
   1  -4  14 32.4036 3.77381  26
   1  -4  14 25.9219 4.05741  23
   5   3 -14 104.987 6.94417  16
   5   3 -14 102.071 8.86323  26
   5   3 -14 76.1409 8.16488  19
   4   3 -14 36.0783 4.03875  19
   4   3 -14 40.2552 3.45642  16
   4   3 -14 40.5233 4.37638  26
   3   3 -14 47.2430 5.61607  26
   2   3 -14 42.2867 4.70228  26
  -2  -3  14 32.7266 5.37429  26
   1   3 -14 16.9442 3.27796  26
  -1  -3  14 6.99691 3.97096  26
   0  -3  14 39.4734 5.25137  26
   0  -3  14 33.2419 3.83636  16
   1  -3  14 5.82404 1.61222  16
   1  -3  14 1.62377 1.79529  26
   1  -3  14 2.96177 1.91167  23
   5   2 -14 0.87954 0.98683  26
   5   2 -14 0.09027 0.84725  16
   5   2 -14 3.24158 2.04856  19
   4   2 -14 61.8997 5.14243  16
   4   2 -14 65.8035 6.59952  26
   4   2 -14 71.3346 6.21375  19
   3   2 -14 68.8540 5.59850  16
   3   2 -14 71.1582 7.12793  26
   2   2 -14 46.8700 5.17145  26
  -2  -2  14 21.8596 5.57211  26
   1   2 -14 28.7041 3.91574  26
  -1  -2  14 20.9056 4.29731  26
   0   2 -14 3.09803 2.65520  26
   0  -2  14 -1.0641 3.18856  26
   1  -2  14 6.71669 1.87867  16
   1  -2  14 7.14910 2.17985  26
   1  -2  14 6.18937 1.95491  23
   6   1 -14 10.5905 1.20590  17
   6   1 -14 11.7481 1.06274  16
   6   1 -14 7.30934 1.94006  19
   5   1 -14 5.98674 1.16788  16
   5   1 -14 8.22680 1.25196  17
   5   1 -14 4.75786 1.66292  19
   5   1 -14 4.39140 1.29587  26
   4   1 -14 63.6146 6.35382  26
   4   1 -14 63.0846 4.98051  16
   4   1 -14 62.8360 6.01864  19
   3   1 -14 19.7838 2.35669  16
   3   1 -14 15.9937 2.73006  26
   2   1 -14 19.0651 3.02775  16
   2   1 -14 18.0263 3.51087  26
  -2  -1  14 14.4914 4.92098  26
   1   1 -14 15.2522 2.72792  26
  -1  -1  14 8.25142 3.17486  26
   0  -1  14 1.51439 3.36231  26
   1  -1  14 6.69331 2.26071  26
   1  -1  14 8.33888 1.95719  16
   6   0 -14 14.8087 1.41375  17
   6   0 -14 12.4082 2.03645  19
   5   0 -14 85.9430 5.86522  16
   5   0 -14 78.5849 5.73144  17
   5   0 -14 71.9651 7.16584  19
   5   0 -14 78.0735 7.45043  26
   4   0 -14 2.04086 1.87410  19
   4   0 -14 0.91108 1.75030  26
   4   0 -14 0.72792 1.52304  16
   3   0 -14 45.3606 4.34335  16
   3   0 -14 43.2865 5.35863  26
   2   0 -14 64.7681 5.45458  16
   2   0 -14 70.2082 7.06094  26
  -1   0  14 2.47579 2.64994  26
   0   0  14 8.06569 2.74078  26
   1   0  14 42.3885 5.05034  26
   6  -1 -14 36.1554 2.65572  17
   6  -1 -14 30.5915 3.60587  19
   5  -1 -14 6.94116 1.37778  26
   5  -1 -14 13.0105 1.42676  17
   5  -1 -14 11.1327 1.27763  16
   5  -1 -14 12.1586 2.21806  19
   4  -1 -14 24.7777 3.53253  26
   4  -1 -14 27.9690 3.46460  19
   4  -1 -14 26.9144 2.90783  16
   4  -1 -14 25.8581 2.38990  17
   3  -1 -14 16.7256 2.98548  26
   3  -1 -14 18.9529 2.17645  16
   3  -1 -14 17.3532 3.22312  19
   2  -1 -14 2.42563 1.88238  16
   2  -1 -14 2.13690 2.33203  26
   0   1  14 70.8473 8.35996  26
  -1  -1 -14 12.5915 2.21407  26
   1   1  14 5.43203 1.96303  26
   6  -2 -14 0.54831 1.52016  19
   6  -2 -14 0.46668 0.62599  17
   5  -2 -14 2.21610 1.16034  17
   5  -2 -14 4.52009 1.85340  19
   5  -2 -14 3.92625 0.86376  16
   4  -2 -14 51.4639 4.03238  16
   4  -2 -14 54.2603 4.10539  17
   4  -2 -14 53.3904 5.18209  19
   4  -2 -14 48.1942 5.11678  26
   3  -2 -14 43.4186 3.54811  17
   3  -2 -14 42.9319 5.05305  26
   3  -2 -14 47.8360 5.06488  19
   3  -2 -14 44.4494 4.03427  16
   2  -2 -14 73.6993 6.93727  19
   1  -2 -14 21.3988 3.26838  26
   1  -2 -14 17.3972 2.31218  16
   1  -2 -14 13.5847 2.83503  18
   0  -2 -14 14.1248 2.12245  18
   0  -2 -14 14.5315 2.05835  16
   0  -2 -14 18.1072 2.86266  26
   0   2  14 8.25040 2.65475  26
   6  -3 -14 4.93947 1.49789  19
   6  -3 -14 4.02489 0.66324  17
   5  -3 -14 200.289 13.0498  17
   5  -3 -14 176.030 15.6459  19
   4  -3 -14 26.8029 3.66655  19
   4  -3 -14 27.4768 2.49877  17
   4  -3 -14 29.2673 2.35719  16
   4  -3 -14 21.8361 2.69831  26
   3  -3 -14 90.6798 6.05405  16
   3  -3 -14 77.9638 7.25408  18
   3  -3 -14 67.4581 5.67550  17
   3  -3 -14 77.6800 7.63816  26
   3  -3 -14 84.5509 7.24534  19
   2  -3 -14 84.2909 8.00780  18
   1  -3 -14 0.52950 1.52911  18
   1  -3 -14 1.56916 1.71791  26
   1  -3 -14 1.59095 1.30288  16
   0  -3 -14 0.55698 1.20181  16
   0  -3 -14 0.83929 2.10154  18
   0  -3 -14 0.85648 1.56901  26
   6  -4 -14 37.3610 2.63404  17
   6  -4 -14 33.8090 3.59387  19
   5  -4 -14 23.1915 1.87926  17
   5  -4 -14 16.5762 2.67772  19
   5  -4 -14 17.3659 2.55459  18
   4  -4 -14 19.5219 2.76829  18
   4  -4 -14 20.0696 1.80943  17
   3  -4 -14 71.2186 7.00198  18
   3  -4 -14 80.3572 5.57816  16
   3  -4 -14 75.0891 7.11047  26
   3  -4 -14 73.5598 5.46085  17
   2  -4 -14 67.1769 5.33293  17
   2  -4 -14 78.1907 5.49122  16
   2  -4 -14 73.5536 7.01249  26
   2  -4 -14 75.9372 6.82524  18
   1  -4 -14 69.6801 6.46816  18
   5  -5 -14 1.43871 0.61366  17
   5  -5 -14 0.84988 1.14800  18
   4  -5 -14 1.50709 0.63840  17
   4  -5 -14 0.69680 1.41453  18
   3  -5 -14 101.755 7.26593  17
   3  -5 -14 106.628 9.43804  18
   2  -5 -14 3.03951 0.83825  17
   2  -5 -14 5.13335 1.61325  18
   2  -5 -14 2.69960 1.06210  26
   2  -5 -14 3.21698 0.80185  16
   4  -6 -14 52.2645 3.72618  17
   4  -6 -14 52.0252 4.98311  18
   3  -6 -14 8.88209 1.01204  17
   3  -6 -14 9.05066 1.68868  18
   3   4 -15 1.46515 1.16345  26
   2   4 -15 1.07004 1.22321  19
  -2  -4  15 0.87205 2.85601  26
  -2  -4  15 -1.0126 2.13708  23
  -1  -4  15 15.6554 2.24172  23
  -1  -4  15 2.10635 1.96549  26
   3   3 -15 7.19933 1.66019  26
   3   3 -15 6.05528 1.40209  16
   3   3 -15 6.30533 1.69947  19
   1   3 -15 10.0500 2.31866  26
  -1  -3  15 6.92785 2.95667  26
   0  -3  15 -0.6939 1.46550  26
   4   2 -15 1.12169 0.94454  16
   4   2 -15 2.81862 1.33442  19
   4   2 -15 1.26955 1.08983  26
   3   2 -15 76.4749 6.33495  19
   3   2 -15 56.7508 5.04689  16
   3   2 -15 68.5651 6.50515  26
   2   2 -15 12.0320 2.05807  26
  -2  -2  15 6.37411 2.72005  26
   1   2 -15 6.00606 1.80127  26
  -1  -2  15 3.37323 2.33090  26
   0  -2  15 -1.1090 1.66199  26
   5   1 -15 77.9949 6.53444  19
   5   1 -15 73.4106 5.40522  16
   4   1 -15 1.42158 0.86688  16
   4   1 -15 1.90665 1.49311  19
   4   1 -15 1.23051 0.98969  26
   3   1 -15 14.0774 2.16614  26
   3   1 -15 14.1035 1.74661  16
   3   1 -15 12.1360 2.55705  19
   2   1 -15 3.74219 1.42910  16
   2   1 -15 6.19486 2.20233  26
   1   1 -15 61.7474 6.32306  26
   0  -1  15 12.7091 2.53059  26
   5   0 -15 8.54292 0.97272  16
   5   0 -15 7.16845 1.58623  19
   4   0 -15 1.29356 1.15300  16
   4   0 -15 3.38082 1.43113  26
   4   0 -15 1.83143 2.01600  19
   3   0 -15 8.93503 2.14511  26
   3   0 -15 17.8308 2.24715  19
   3   0 -15 7.95729 1.44635  16
   2   0 -15 1.09241 1.51635  19
   2   0 -15 1.68497 1.53023  26
   2   0 -15 1.68021 1.25718  16
   1   0 -15 4.27798 1.40065  16
   1   0 -15 5.21975 1.70140  26
  -1   0  15 2.92036 2.19705  26
   5  -1 -15 66.0768 4.71742  17
   4  -1 -15 28.6852 3.05317  26
   4  -1 -15 28.3858 2.41460  17
   4  -1 -15 29.7544 3.76078  19
   4  -1 -15 29.8819 2.41428  16
   3  -1 -15 4.99249 1.50479  16
   3  -1 -15 6.33945 2.19105  19
   3  -1 -15 3.40782 1.70714  26
   2  -1 -15 240.849 22.5842  26
   2  -1 -15 254.428 20.5570  19
   2  -1 -15 260.669 17.7331  16
   1  -1 -15 74.1529 7.07965  26
   1  -1 -15 71.3039 5.55034  16
   5  -2 -15 8.56215 1.16498  17
   5  -2 -15 7.02035 1.97636  19
   4  -2 -15 3.37605 0.80373  16
   4  -2 -15 4.44614 1.45785  19
   4  -2 -15 4.38819 1.03242  26
   4  -2 -15 3.56495 1.13775  17
   3  -2 -15 2.44480 1.13297  26
   3  -2 -15 1.05417 0.88624  17
   3  -2 -15 1.92146 1.32297  19
   3  -2 -15 2.09557 0.90654  16
   2  -2 -15 6.23432 1.50966  16
   2  -2 -15 4.28805 1.79144  26
   1  -2 -15 -0.1610 1.24815  26
   1  -2 -15 0.38759 0.98770  16
   5  -3 -15 42.4662 3.08617  17
   4  -3 -15 1.21419 0.66432  17
   3  -3 -15 23.4924 2.70427  26
   3  -3 -15 21.3507 2.09079  17
   3  -3 -15 28.7661 2.13055  16
   2  -3 -15 -0.2790 0.88337  26
   2  -3 -15 0.46662 0.74075  16
   0   0   0    0.00    0.00   0
;
_shelx_hkl_checksum   38252

