data_k02250
_audit_creation_method         'generated by CrystalMaker 9.2.5'
_publ_section_comment
;
 k02250 in P-1

;
_cell_length_a                  11.0990(2)
_cell_length_b                  12.5990(3)
_cell_length_c                  12.6140(3)
_cell_angle_alpha               74.5740(8)
_cell_angle_beta                82.8670(8)
_cell_angle_gamma               84.5280(10)

_symmetry_space_group_name_H-M     'P -1'
_symmetry_Int_Tables_number         2
_symmetry_cell_setting             triclinic
loop_
_symmetry_equiv_pos_as_xyz
'+x,+y,+z'
'-x,-y,-z'

loop_
_atom_site_label
_atom_site_type_symbol
_atom_site_occupancy
_atom_site_fract_x
_atom_site_fract_y
_atom_site_fract_z
_atom_site_U_iso_or_equiv
  C10A    C  11.0000      0.5854    0.6722    0.3178  .  
  C10B    C  11.0000      0.4211    0.3327    0.1893  .  
  C11A    C  11.0000      0.5455    0.5859    0.4091  .  
  C11B    C  11.0000      0.4582    0.4162    0.0948  .  
  C12A    C  11.0000      0.2789    0.4053    0.4921  .  
  C12B    C  11.0000      0.7196    0.6029   -0.0024  .  
  C13A    C  11.0000      0.1846    0.3680    0.4845  .  
  C13B    C  11.0000      0.8102    0.6477   -0.0006  .  
  C14A    C  11.0000      0.0161    0.3590    0.3191  .  
  C14B    C  11.0000      0.9424    0.7179    0.1606  .  
  C15A    C  11.0000     -0.0769    0.3205    0.5633  .  
  C15B    C  11.0000      1.0818    0.6761   -0.0484  .  
  C16A    C  11.0000      0.1049    0.1492    0.4888  .  
  C16B    C  11.0000      0.8935    0.8753   -0.0614  .  
  C17A    C  11.0000      0.1731    0.1087    0.5932  .  
  C17B    C  11.0000      0.8914    0.8980   -0.1869  .  
  C18A    C  11.0000      0.2106   -0.0146    0.6222  .  
  C18B    C  11.0000      0.8634    1.0192   -0.2461  .  
  C19A    C  11.0000      0.2864   -0.0511    0.7182  .  
  C19B    C  11.0000      0.7366    1.0636   -0.2201  .  
   C1A    C  11.0000      0.3907    0.4526    0.4966  .  
   C1B    C  11.0000      0.6097    0.5508   -0.0023  .  
   C2A    C  11.0000      0.4337    0.5372    0.4047  .  
   C2B    C  11.0000      0.5700    0.4675    0.0933  .  
   C3A    C  11.0000      0.3722    0.5735    0.3095  .  
   C3B    C  11.0000      0.6354    0.4344    0.1862  .  
   C4A    C  11.0000      0.4144    0.6569    0.2196  .  
   C4B    C  11.0000      0.5969    0.3530    0.2795  .  
   C5A    C  11.0000      0.3544    0.6915    0.1204  .  
   C5B    C  11.0000      0.6614    0.3211    0.3754  .  
   C6A    C  11.0000      0.3977    0.7729    0.0344  .  
   C6B    C  11.0000      0.6222    0.2404    0.4647  .  
   C7A    C  11.0000      0.5020    0.8269    0.0404  .  
   C7B    C  11.0000      0.5151    0.1865    0.4648  .  
   C8A    C  11.0000      0.5626    0.7969    0.1320  .  
   C8B    C  11.0000      0.4503    0.2149    0.3768  .  
   C9A    C  11.0000      0.5230    0.7095    0.2248  .  
   C9B    C  11.0000      0.4868    0.3001    0.2802  .  
   CLA    Cl 11.0000      0.2076   -0.0224    0.8421  .  
   CLB    Cl 11.0000      0.6263    0.9969   -0.2688  .  
  H10A    H  11.0000      0.6576    0.7059    0.3204  .  
  H10B    H  11.0000      0.3487    0.2977    0.1905  .  
  H14A    H  11.0000     -0.0174    0.4353    0.3109  .  
  H14B    H  11.0000     -0.0443    0.3153    0.3028  .  
  H14C    H  11.0000      0.0897    0.3580    0.2677  .  
  H14D    H  11.0000      0.8646    0.7458    0.1923  .  
  H14E    H  11.0000      1.0077    0.7617    0.1682  .  
  H14F    H  11.0000      0.9591    0.6405    0.1998  .  
  H15A    H  11.0000     -0.0537    0.2929    0.6388  .  
  H15B    H  11.0000     -0.1450    0.2805    0.5546  .  
  H15C    H  11.0000     -0.1013    0.3994    0.5493  .  
  H15D    H  11.0000      1.0998    0.5993   -0.0083  .  
  H15E    H  11.0000      1.1466    0.7213   -0.0426  .  
  H15F    H  11.0000      1.0766    0.6802   -0.1264  .  
  H16A    H  11.0000      0.0329    0.1057    0.4976  .  
  H16B    H  11.0000      0.1590    0.1370    0.4239  .  
  H16C    H  11.0000      0.8121    0.8972   -0.0290  .  
  H16D    H  11.0000      0.9523    0.9229   -0.0471  .  
  H17A    H  11.0000      0.2470    0.1503    0.5821  .  
  H17B    H  11.0000      0.1204    0.1258    0.6566  .  
  H17C    H  11.0000      0.9715    0.8730   -0.2191  .  
  H17D    H  11.0000      0.8295    0.8533   -0.2013  .  
  H18A    H  11.0000      0.1364   -0.0564    0.6401  .  
  H18B    H  11.0000      0.2574   -0.0331    0.5566  .  
  H18C    H  11.0000      0.9209    1.0645   -0.2263  .  
  H18D    H  11.0000      0.8783    1.0277   -0.3268  .  
  H19A    H  11.0000      0.3630   -0.0127    0.6991  .  
  H19B    H  11.0000      0.3078   -0.1313    0.7320  .  
  H19C    H  11.0000      0.7295    1.1439   -0.2549  .  
  H19D    H  11.0000      0.7193    1.0524   -0.1391  .  
   H3A    H  11.0000      0.2999    0.5403    0.3063  .  
   H3B    H  11.0000      0.7083    0.4686    0.1853  .  
   H5A    H  11.0000      0.2837    0.6570    0.1150  .  
   H5B    H  11.0000      0.7326    0.3567    0.3768  .  
   H6A    H  11.0000      0.3575    0.7941   -0.0310  .  
   H6B    H  11.0000      0.6666    0.2197    0.5276  .  
   H7A    H  11.0000      0.5298    0.8848   -0.0205  .  
   H7B    H  11.0000      0.4890    0.1299    0.5276  .  
   H8A    H  11.0000      0.6320    0.8344    0.1347  .  
   H8B    H  11.0000      0.3791    0.1780    0.3787  .  
   SIA    Si 11.0000      0.0545    0.2993    0.4634  .  
   SIB    Si 11.0000      0.9347    0.7283    0.0123  .  

loop_
_atom_site_aniso_label
_atom_site_aniso_U_11
_atom_site_aniso_U_22
_atom_site_aniso_U_33
_atom_site_aniso_U_23
_atom_site_aniso_U_13
_atom_site_aniso_U_12
  C10A      0.0141     0.0187     0.0245    -0.0113     0.0013    -0.0038
  C10B      0.0147     0.0165     0.0236    -0.0075     0.0004    -0.0023
  C11A      0.0127     0.0132     0.0164    -0.0077     0.0033     0.0001
  C11B      0.0130     0.0143     0.0177    -0.0093    -0.0005    -0.0001
  C12A      0.0199     0.0164     0.0149    -0.0045    -0.0030     0.0001
  C12B      0.0196     0.0143     0.0125    -0.0026    -0.0046     0.0033
  C13A      0.0167     0.0143     0.0225    -0.0021    -0.0031     0.0012
  C13B      0.0155     0.0146     0.0206    -0.0004    -0.0020    -0.0008
  C14A      0.0245     0.0404     0.0250    -0.0058    -0.0035     0.0002
  C14B      0.0387     0.0365     0.0261    -0.0044    -0.0076    -0.0120
  C15A      0.0201     0.0249     0.0252    -0.0056    -0.0101    -0.0006
  C15B      0.0246     0.0272     0.0304    -0.0083    -0.0072    -0.0015
  C16A      0.0188     0.0219     0.0268    -0.0075    -0.0019    -0.0052
  C16B      0.0271     0.0175     0.0288    -0.0081    -0.0018    -0.0096
  C17A      0.0243     0.0195     0.0234    -0.0048    -0.0035    -0.0014
  C17B      0.0304     0.0181     0.0331    -0.0035    -0.0052     0.0007
  C18A      0.0359     0.0204     0.0277    -0.0058    -0.0016     0.0035
  C18B      0.0385     0.0253     0.0292    -0.0022    -0.0058    -0.0079
  C19A      0.0339     0.0270     0.0315    -0.0050    -0.0016     0.0092
  C19B      0.0376     0.0209     0.0355    -0.0112    -0.0087    -0.0004
   C1A      0.0112     0.0145     0.0230    -0.0101    -0.0029     0.0003
   C1B      0.0118     0.0158     0.0213    -0.0113    -0.0014    -0.0012
   C2A      0.0100     0.0127     0.0176    -0.0069    -0.0001     0.0005
   C2B      0.0127     0.0155     0.0232    -0.0122    -0.0011    -0.0020
   C3A      0.0116     0.0167     0.0220    -0.0104    -0.0036     0.0016
   C3B      0.0103     0.0152     0.0216    -0.0085    -0.0030    -0.0013
   C4A      0.0180     0.0156     0.0226    -0.0114    -0.0041     0.0053
   C4B      0.0157     0.0144     0.0179    -0.0097    -0.0009     0.0023
   C5A      0.0219     0.0252     0.0217    -0.0109    -0.0077     0.0049
   C5B      0.0149     0.0160     0.0263    -0.0092    -0.0022    -0.0016
   C6A      0.0291     0.0241     0.0166    -0.0053    -0.0044     0.0098
   C6B      0.0217     0.0247     0.0181    -0.0064    -0.0090     0.0039
   C7A      0.0301     0.0212     0.0190     0.0012     0.0039    -0.0002
   C7B      0.0196     0.0196     0.0191    -0.0040     0.0025    -0.0039
   C8A      0.0204     0.0202     0.0239    -0.0031     0.0029    -0.0015
   C8B      0.0170     0.0190     0.0202    -0.0058     0.0007    -0.0046
   C9A      0.0177     0.0162     0.0206    -0.0091    -0.0017     0.0006
   C9B      0.0139     0.0155     0.0179    -0.0067     0.0008    -0.0004
   CLA      0.0328     0.0304     0.0289    -0.0036    -0.0058     0.0003
   CLB      0.0338     0.0343     0.0382    -0.0097    -0.0117    -0.0003
  H10A  . . . . . .
  H10B  . . . . . .
  H14A  . . . . . .
  H14B  . . . . . .
  H14C  . . . . . .
  H14D  . . . . . .
  H14E  . . . . . .
  H14F  . . . . . .
  H15A  . . . . . .
  H15B  . . . . . .
  H15C  . . . . . .
  H15D  . . . . . .
  H15E  . . . . . .
  H15F  . . . . . .
  H16A  . . . . . .
  H16B  . . . . . .
  H16C  . . . . . .
  H16D  . . . . . .
  H17A  . . . . . .
  H17B  . . . . . .
  H17C  . . . . . .
  H17D  . . . . . .
  H18A  . . . . . .
  H18B  . . . . . .
  H18C  . . . . . .
  H18D  . . . . . .
  H19A  . . . . . .
  H19B  . . . . . .
  H19C  . . . . . .
  H19D  . . . . . .
   H3A  . . . . . .
   H3B  . . . . . .
   H5A  . . . . . .
   H5B  . . . . . .
   H6A  . . . . . .
   H6B  . . . . . .
   H7A  . . . . . .
   H7B  . . . . . .
   H8A  . . . . . .
   H8B  . . . . . .
   SIA      0.0154     0.0199     0.0218    -0.0056    -0.0049    -0.0032
   SIB      0.0178     0.0224     0.0194    -0.0060    -0.0035    -0.0066
