 
data_k13077u 
 
_audit_creation_method            SHELXL-2013 
# CIF file edited on-the-fly by script CIFFIX (S. Parkin, 2013). 
# CIFFIX: http://xray.uky.edu/people/parkin/programs/ciffix 
 
_publ_section_exptl_refinement 
; 
H atoms were found in difference Fourier maps and subsequently placed 
at idealized positions with constrained distances of 0.98 \%A (RCH~3~), 
0.99 \%A (R~2~CH~2~), 0.95 \%A (C~sp2~H), U~iso~(H) values were set to 
either 1.2U~eq~ or 1.5U~eq~ (RCH~3~) of the attached atom. 
; 
 
_publ_section_references 
; 
Hope, H. (1994). 
  <i>Prog. Inorg. Chem.</i> <b>41</b>, 1--19. 
 
Nonius (1998). 
  <i>Collect</i> Nonius BV, Delft, The Netherlands. 
 
Otwinowski, Z. & Minor, W. (2006). 
  <i>International Tables for Crystallography</i>, Vol. F, ch. 11.4, 226--235. 
 
Parkin, S. & Hope, H. (1998). 
  <i>J. Appl. Cryst.</i> <b>31</b>, 945--953. 
 
Parkin, S. (2000). 
  <i>Acta Cryst.</i> A<b>56</b>, 157--162. 
 
Parkin, S. (2013). 
  <i>CIFFIX</i>, http://xray.uky.edu/people/parkin/programs/ciffix 
 
Sheldrick, G.M. (2008). 
  <i>Acta Cryst.</i> <b>A</b>64, 112--122. 
 
Sheldrick, G.M. (2008). 
  <i>SADABS</i> University of G\"ottingen, Germany. 
 
Spek, A.L. (2009). 
  <i>Acta Cryst.</i> <b>D</b>65, 148--155. 
; 
 
_chemical_name_systematic 
; 
 ? 
; 
_chemical_name_common             ? 
_chemical_melting_point           ? 
_chemical_formula_moiety          'C38 H34 F8 Ge2' 
_chemical_formula_sum             'C38 H34 F8 Ge2' 
_chemical_formula_weight          787.83 
 
loop_ 
 _atom_type_symbol 
 _atom_type_description 
 _atom_type_scat_dispersion_real 
 _atom_type_scat_dispersion_imag 
 _atom_type_scat_source 
 'C'  'C'   0.0033   0.0016 
 'International Tables Vol C Tables 4.2.6.8 and 6.1.1.4' 
 'H'  'H'   0.0000   0.0000 
 'International Tables Vol C Tables 4.2.6.8 and 6.1.1.4' 
 'F'  'F'   0.0171   0.0103 
 'International Tables Vol C Tables 4.2.6.8 and 6.1.1.4' 
 'Ge'  'Ge'   0.1547   1.8001 
 'International Tables Vol C Tables 4.2.6.8 and 6.1.1.4' 
 
_space_group_crystal_system       triclinic 
_space_group_IT_number            2 
_space_group_name_H-M_alt         'P -1' 
_space_group_name_Hall            '-P 1' 
 
_shelx_space_group_comment 
; 
The symmetry employed for this shelxl refinement is uniquely defined 
by the following loop, which should always be used as a source of 
symmetry information in preference to the above space-group names. 
They are only intended as comments. 
; 
 
loop_ 
 _space_group_symop_operation_xyz 
 'x, y, z' 
 '-x, -y, -z' 
 
_cell_length_a                    6.9251(2) 
_cell_length_b                    10.8246(3) 
_cell_length_c                    11.7644(3) 
_cell_angle_alpha                 93.6395(13) 
_cell_angle_beta                  95.0042(12) 
_cell_angle_gamma                 104.4825(12) 
_cell_volume                      847.27(4) 
_cell_formula_units_Z             1 
_cell_measurement_temperature     150.0(2) 
_cell_measurement_reflns_used     59906 
_cell_measurement_theta_min       1.00 
_cell_measurement_theta_max       27.48 
 
_exptl_crystal_description        tablet 
_exptl_crystal_colour             blue 
_exptl_crystal_density_meas       . 
_exptl_crystal_density_method     . 
_exptl_crystal_density_diffrn     1.544 
_exptl_crystal_F_000              398 
_exptl_transmission_factor_min    . 
_exptl_transmission_factor_max    . 
_exptl_crystal_size_max           0.380 
_exptl_crystal_size_mid           0.180 
_exptl_crystal_size_min           0.040 
_exptl_absorpt_coefficient_mu     1.845 
_shelx_estimated_absorpt_T_min    0.541 
_shelx_estimated_absorpt_T_max    0.930 
_exptl_absorpt_correction_type    multi-scan 
_exptl_absorpt_correction_T_min   0.602 
_exptl_absorpt_correction_T_max   0.746 
_exptl_absorpt_process_details    'SADABS (Sheldrick, 2008)' 
 
_exptl_special_details 
; 
The crystal was mounted with polyisobutene oil on the tip of a fine glass 
fibre, fastened in a copper mounting pin with electrical solder.  It was 
placed directly into the cold stream of a liquid nitrogen based cryostat, 
according to published methods (Hope, 1994; Parkin & Hope, 1998). 
 
The crystals underwent a destructive phase transition when cooled to 90K. 
Visual inspection of crystal integrity and diffraction quality vs temperature 
established a safe temperature for data collection of -123\% C. 
; 
 
_diffrn_ambient_temperature       150.0(2) 
_diffrn_radiation_wavelength      0.71073 
_diffrn_radiation_type            MoK\a 
_diffrn_source                    'fine-focus sealed-tube' 
_diffrn_measurement_device_type   'Nonius KappaCCD diffractometer' 
_diffrn_measurement_method        '\f and \w scans at fixed \c = 55\%' 
_diffrn_detector_area_resol_mean  9.1 
_diffrn_reflns_number             20357 
_diffrn_reflns_av_unetI/netI      0.0367 
_diffrn_reflns_av_R_equivalents   0.0550 
_diffrn_reflns_limit_h_min        -8 
_diffrn_reflns_limit_h_max        8 
_diffrn_reflns_limit_k_min        -14 
_diffrn_reflns_limit_k_max        13 
_diffrn_reflns_limit_l_min        -15 
_diffrn_reflns_limit_l_max        15 
_diffrn_reflns_theta_min          1.744 
_diffrn_reflns_theta_max          27.520 
_diffrn_reflns_theta_full         25.242 
_diffrn_measured_fraction_theta_max                0.998 
_diffrn_measured_fraction_theta_full               1.000 
_diffrn_reflns_Laue_measured_fraction_max          0.998 
_diffrn_reflns_Laue_measured_fraction_full         1.000 
_diffrn_reflns_point_group_measured_fraction_max   0.998 
_diffrn_reflns_point_group_measured_fraction_full  1.000 
 
_reflns_number_total              3884 
_reflns_number_gt                 3360 
_reflns_threshold_expression      'I > 2\s(I)' 
_reflns_Friedel_coverage          0.000 
_reflns_Friedel_fraction_max      . 
_reflns_Friedel_fraction_full     . 
 
_reflns_special_details 
; 
Reflections were merged by SHELXL according to the crystal 
class for the calculation of statistics and refinement. 
 
_reflns_Friedel_fraction is defined as the number of unique 
Friedel pairs measured divided by the number that would be 
possible theoretically, ignoring centric projections and 
systematic absences. 
; 
 
_computing_data_collection        'COLLECT (Nonius, 1998)' 
_computing_cell_refinement        'SCALEPACK (Otwinowski & Minor, 2006)' 
_computing_data_reduction         'DENZO-SMN (Otwinowski & Minor, 2006)' 
_computing_structure_solution     'SHELXS-97 (Sheldrick, 2008)' 
_computing_structure_refinement   'SHELXL-2013 (Sheldrick, 2008)' 
_computing_molecular_graphics     'XP in SHELXTL (Sheldrick, 2008)' 
_computing_publication_material 
'SHELX (Sheldrick, 2008) and CIFFIX (Parkin, 2013)' 
 
_refine_special_details 
; 
Refinement progress was checked using routines in Platon (Spek, 2009), 
by the R-tensor (Parkin, 2000), and with the IUCr utility checkCIF. 
; 
 
_refine_ls_structure_factor_coef  Fsqd 
_refine_ls_matrix_type            full 
_refine_ls_weighting_scheme       calc 
_refine_ls_weighting_details 
'w=1/[\s^2^(Fo^2^)+(0.0456P)^2^+0.4894P] where P=(Fo^2^+2Fc^2^)/3' 
_atom_sites_solution_primary      direct 
_atom_sites_solution_secondary    difmap 
_atom_sites_solution_hydrogens    geom 
_refine_ls_hydrogen_treatment     constr 
_refine_ls_extinction_method      none 
_refine_ls_extinction_coef        . 
_refine_ls_number_reflns          3884 
_refine_ls_number_parameters      220 
_refine_ls_number_restraints      0 
_refine_ls_R_factor_all           0.0451 
_refine_ls_R_factor_gt            0.0344 
_refine_ls_wR_factor_ref          0.0886 
_refine_ls_wR_factor_gt           0.0839 
_refine_ls_goodness_of_fit_ref    1.059 
_refine_ls_restrained_S_all       1.059 
_refine_ls_shift/su_max           0.000 
_refine_ls_shift/su_mean          0.000 
 
loop_ 
 _atom_site_label 
 _atom_site_type_symbol 
 _atom_site_fract_x 
 _atom_site_fract_y 
 _atom_site_fract_z 
 _atom_site_U_iso_or_equiv 
 _atom_site_adp_type 
 _atom_site_occupancy 
 _atom_site_site_symmetry_order 
 _atom_site_calc_flag 
 _atom_site_refinement_flags_posn 
 _atom_site_refinement_flags_adp 
 _atom_site_refinement_flags_occupancy 
 _atom_site_disorder_assembly 
 _atom_site_disorder_group 
Ge1 Ge 0.74006(4) 0.82683(2) 0.12073(2) 0.03214(10) Uani 1 1 d . . . . . 
F1 F 0.0645(2) 0.85524(12) 0.37713(11) 0.0350(3) Uani 1 1 d . . . . . 
F2 F -0.2257(2) 0.89745(13) 0.50605(12) 0.0394(3) Uani 1 1 d . . . . . 
F3 F -0.2951(2) 0.78078(14) 0.69810(12) 0.0412(3) Uani 1 1 d . . . . . 
F4 F -0.0896(2) 0.60901(14) 0.76481(11) 0.0378(3) Uani 1 1 d . . . . . 
C1 C 0.5434(3) 0.56665(19) 0.40060(16) 0.0240(4) Uani 1 1 d . . . . . 
C2 C 0.3950(3) 0.59222(19) 0.46807(16) 0.0235(4) Uani 1 1 d . . . . . 
C3 C 0.2878(3) 0.68186(19) 0.43810(17) 0.0255(4) Uani 1 1 d . . . . . 
H3 H 0.3160 0.7264 0.3720 0.031 Uiso 1 1 calc R U . . . 
C4 C 0.1416(3) 0.70658(19) 0.50304(17) 0.0250(4) Uani 1 1 d . . . . . 
C5 C 0.0282(3) 0.7948(2) 0.47258(18) 0.0286(4) Uani 1 1 d . . . . . 
C6 C -0.1145(3) 0.8167(2) 0.53565(19) 0.0310(5) Uani 1 1 d . . . . . 
C7 C -0.1541(3) 0.7530(2) 0.63649(19) 0.0313(5) Uani 1 1 d . . . . . 
C8 C -0.0515(3) 0.6686(2) 0.66871(18) 0.0290(5) Uani 1 1 d . . . . . 
C9 C 0.0995(3) 0.64016(19) 0.60412(17) 0.0252(4) Uani 1 1 d . . . . . 
C10 C 0.2033(3) 0.5516(2) 0.63421(17) 0.0252(4) Uani 1 1 d . . . . . 
H10 H 0.1740 0.5077 0.7005 0.030 Uiso 1 1 calc R U . . . 
C11 C 0.3517(3) 0.52482(19) 0.56898(16) 0.0238(4) Uani 1 1 d . . . . . 
C12 C 0.5930(3) 0.6391(2) 0.30432(17) 0.0252(4) Uani 1 1 d . . . . . 
C13 C 0.6406(3) 0.7047(2) 0.22792(17) 0.0271(4) Uani 1 1 d . . . . . 
C14 C 0.9931(4) 0.7976(3) 0.0806(3) 0.0528(7) Uani 1 1 d . . . . . 
H14A H 1.0046 0.8130 -0.0009 0.063 Uiso 1 1 calc R U . . . 
H14B H 1.1042 0.8616 0.1268 0.063 Uiso 1 1 calc R U . . . 
C15 C 1.0205(6) 0.6667(4) 0.0978(4) 0.0769(11) Uani 1 1 d . . . . . 
H15A H 0.9966 0.6465 0.1762 0.115 Uiso 1 1 calc R U . . . 
H15B H 1.1577 0.6647 0.0850 0.115 Uiso 1 1 calc R U . . . 
H15C H 0.9251 0.6033 0.0434 0.115 Uiso 1 1 calc R U . . . 
C16 C 0.5434(4) 0.8011(3) -0.0125(2) 0.0460(6) Uani 1 1 d . . . . . 
H16A H 0.4216 0.8232 0.0113 0.055 Uiso 1 1 calc R U . . . 
H16B H 0.5983 0.8610 -0.0689 0.055 Uiso 1 1 calc R U . . . 
C17 C 0.4837(5) 0.6656(3) -0.0707(3) 0.0638(9) Uani 1 1 d . . . . . 
H17A H 0.6020 0.6442 -0.0982 0.096 Uiso 1 1 calc R U . . . 
H17B H 0.3822 0.6599 -0.1356 0.096 Uiso 1 1 calc R U . . . 
H17C H 0.4286 0.6054 -0.0158 0.096 Uiso 1 1 calc R U . . . 
C18 C 0.7749(4) 0.9960(2) 0.2011(2) 0.0454(6) Uani 1 1 d . . . . . 
H18A H 0.8937 1.0134 0.2586 0.055 Uiso 1 1 calc R U . . . 
H18B H 0.8022 1.0613 0.1453 0.055 Uiso 1 1 calc R U . . . 
C19 C 0.5949(5) 1.0107(3) 0.2612(2) 0.0516(7) Uani 1 1 d . . . . . 
H19A H 0.4761 0.9936 0.2051 0.077 Uiso 1 1 calc R U . . . 
H19B H 0.6216 1.0982 0.2975 0.077 Uiso 1 1 calc R U . . . 
H19C H 0.5710 0.9497 0.3198 0.077 Uiso 1 1 calc R U . . . 
 
loop_ 
 _atom_site_aniso_label 
 _atom_site_aniso_U_11 
 _atom_site_aniso_U_22 
 _atom_site_aniso_U_33 
 _atom_site_aniso_U_23 
 _atom_site_aniso_U_13 
 _atom_site_aniso_U_12 
Ge1 0.03410(15) 0.03643(15) 0.02474(13) 0.01312(9) 0.00722(9) 0.00296(10) 
F1 0.0416(7) 0.0341(7) 0.0322(7) 0.0120(5) 0.0060(6) 0.0122(6) 
F2 0.0418(8) 0.0352(7) 0.0450(8) 0.0026(6) 0.0025(6) 0.0182(6) 
F3 0.0402(8) 0.0477(8) 0.0413(8) -0.0003(6) 0.0144(6) 0.0194(6) 
F4 0.0436(8) 0.0476(8) 0.0277(7) 0.0080(6) 0.0158(6) 0.0165(6) 
C1 0.0261(10) 0.0254(10) 0.0182(9) 0.0058(7) 0.0038(8) 0.0009(8) 
C2 0.0241(10) 0.0249(10) 0.0191(9) 0.0039(7) 0.0036(7) 0.0011(8) 
C3 0.0283(10) 0.0262(10) 0.0205(10) 0.0054(8) 0.0032(8) 0.0030(8) 
C4 0.0279(10) 0.0238(10) 0.0221(9) 0.0013(8) 0.0025(8) 0.0045(8) 
C5 0.0322(11) 0.0250(10) 0.0270(10) 0.0035(8) 0.0015(9) 0.0044(8) 
C6 0.0333(12) 0.0268(11) 0.0324(11) -0.0001(9) 0.0001(9) 0.0088(9) 
C7 0.0324(11) 0.0311(11) 0.0299(11) -0.0038(9) 0.0066(9) 0.0080(9) 
C8 0.0317(11) 0.0322(11) 0.0214(10) 0.0015(8) 0.0053(8) 0.0048(9) 
C9 0.0267(10) 0.0262(10) 0.0205(9) -0.0005(8) 0.0034(8) 0.0029(8) 
C10 0.0280(10) 0.0274(10) 0.0182(9) 0.0035(7) 0.0054(8) 0.0023(8) 
C11 0.0257(10) 0.0245(10) 0.0189(9) 0.0030(7) 0.0028(8) 0.0013(8) 
C12 0.0260(10) 0.0276(10) 0.0225(10) 0.0040(8) 0.0038(8) 0.0069(8) 
C13 0.0299(11) 0.0301(11) 0.0226(10) 0.0059(8) 0.0066(8) 0.0077(9) 
C14 0.0444(15) 0.0648(19) 0.0532(17) 0.0187(14) 0.0252(13) 0.0116(13) 
C15 0.062(2) 0.070(2) 0.114(3) 0.023(2) 0.051(2) 0.0255(18) 
C16 0.0473(15) 0.0589(17) 0.0275(12) 0.0167(11) -0.0014(11) 0.0046(12) 
C17 0.065(2) 0.080(2) 0.0354(15) -0.0102(14) 0.0025(14) 0.0035(17) 
C18 0.0533(16) 0.0311(12) 0.0470(15) 0.0116(11) -0.0024(12) 0.0025(11) 
C19 0.072(2) 0.0399(14) 0.0450(15) 0.0036(12) -0.0013(14) 0.0213(14) 
 
_geom_special_details 
; 
 All esds (except the esd in the dihedral angle between two l.s. planes) 
 are estimated using the full covariance matrix.  The cell esds are taken 
 into account individually in the estimation of esds in distances, angles 
 and torsion angles; correlations between esds in cell parameters are only 
 used when they are defined by crystal symmetry.  An approximate (isotropic) 
 treatment of cell esds is used for estimating esds involving l.s. planes. 
; 
 
loop_ 
 _geom_bond_atom_site_label_1 
 _geom_bond_atom_site_label_2 
 _geom_bond_distance 
 _geom_bond_site_symmetry_2 
 _geom_bond_publ_flag 
Ge1 C13 1.929(2) . ? 
Ge1 C16 1.942(2) . ? 
Ge1 C14 1.949(3) . ? 
Ge1 C18 1.956(3) . ? 
F1 C5 1.346(2) . ? 
F2 C6 1.344(3) . ? 
F3 C7 1.346(3) . ? 
F4 C8 1.350(2) . ? 
C1 C11 1.413(3) 2_666 ? 
C1 C2 1.421(3) . ? 
C1 C12 1.436(3) . ? 
C2 C3 1.405(3) . ? 
C2 C11 1.447(3) . ? 
C3 C4 1.388(3) . ? 
C3 H3 0.9500 . ? 
C4 C5 1.423(3) . ? 
C4 C9 1.442(3) . ? 
C5 C6 1.344(3) . ? 
C6 C7 1.423(3) . ? 
C7 C8 1.343(3) . ? 
C8 C9 1.426(3) . ? 
C9 C10 1.380(3) . ? 
C10 C11 1.410(3) . ? 
C10 H10 0.9500 . ? 
C11 C1 1.413(3) 2_666 ? 
C12 C13 1.199(3) . ? 
C14 C15 1.500(5) . ? 
C14 H14A 0.9900 . ? 
C14 H14B 0.9900 . ? 
C15 H15A 0.9800 . ? 
C15 H15B 0.9800 . ? 
C15 H15C 0.9800 . ? 
C16 C17 1.520(4) . ? 
C16 H16A 0.9900 . ? 
C16 H16B 0.9900 . ? 
C17 H17A 0.9800 . ? 
C17 H17B 0.9800 . ? 
C17 H17C 0.9800 . ? 
C18 C19 1.523(4) . ? 
C18 H18A 0.9900 . ? 
C18 H18B 0.9900 . ? 
C19 H19A 0.9800 . ? 
C19 H19B 0.9800 . ? 
C19 H19C 0.9800 . ? 
 
loop_ 
 _geom_angle_atom_site_label_1 
 _geom_angle_atom_site_label_2 
 _geom_angle_atom_site_label_3 
 _geom_angle 
 _geom_angle_site_symmetry_1 
 _geom_angle_site_symmetry_3 
 _geom_angle_publ_flag 
C13 Ge1 C16 109.04(10) . . ? 
C13 Ge1 C14 106.95(11) . . ? 
C16 Ge1 C14 111.73(13) . . ? 
C13 Ge1 C18 105.94(10) . . ? 
C16 Ge1 C18 110.57(12) . . ? 
C14 Ge1 C18 112.33(13) . . ? 
C11 C1 C2 120.41(17) 2_666 . ? 
C11 C1 C12 120.09(18) 2_666 . ? 
C2 C1 C12 119.43(19) . . ? 
C3 C2 C1 121.03(18) . . ? 
C3 C2 C11 119.09(18) . . ? 
C1 C2 C11 119.88(19) . . ? 
C4 C3 C2 121.35(18) . . ? 
C4 C3 H3 119.3 . . ? 
C2 C3 H3 119.3 . . ? 
C3 C4 C5 122.17(19) . . ? 
C3 C4 C9 119.58(19) . . ? 
C5 C4 C9 118.25(19) . . ? 
C6 C5 F1 120.1(2) . . ? 
C6 C5 C4 121.5(2) . . ? 
F1 C5 C4 118.44(19) . . ? 
F2 C6 C5 121.9(2) . . ? 
F2 C6 C7 117.7(2) . . ? 
C5 C6 C7 120.4(2) . . ? 
C8 C7 F3 121.6(2) . . ? 
C8 C7 C6 120.4(2) . . ? 
F3 C7 C6 118.0(2) . . ? 
C7 C8 F4 119.89(19) . . ? 
C7 C8 C9 121.6(2) . . ? 
F4 C8 C9 118.47(19) . . ? 
C10 C9 C8 122.57(19) . . ? 
C10 C9 C4 119.59(18) . . ? 
C8 C9 C4 117.84(19) . . ? 
C9 C10 C11 121.63(18) . . ? 
C9 C10 H10 119.2 . . ? 
C11 C10 H10 119.2 . . ? 
C10 C11 C1 121.53(18) . 2_666 ? 
C10 C11 C2 118.76(19) . . ? 
C1 C11 C2 119.71(18) 2_666 . ? 
C13 C12 C1 176.5(2) . . ? 
C12 C13 Ge1 172.26(19) . . ? 
C15 C14 Ge1 115.5(2) . . ? 
C15 C14 H14A 108.4 . . ? 
Ge1 C14 H14A 108.4 . . ? 
C15 C14 H14B 108.4 . . ? 
Ge1 C14 H14B 108.4 . . ? 
H14A C14 H14B 107.5 . . ? 
C14 C15 H15A 109.5 . . ? 
C14 C15 H15B 109.5 . . ? 
H15A C15 H15B 109.5 . . ? 
C14 C15 H15C 109.5 . . ? 
H15A C15 H15C 109.5 . . ? 
H15B C15 H15C 109.5 . . ? 
C17 C16 Ge1 114.4(2) . . ? 
C17 C16 H16A 108.7 . . ? 
Ge1 C16 H16A 108.7 . . ? 
C17 C16 H16B 108.7 . . ? 
Ge1 C16 H16B 108.7 . . ? 
H16A C16 H16B 107.6 . . ? 
C16 C17 H17A 109.5 . . ? 
C16 C17 H17B 109.5 . . ? 
H17A C17 H17B 109.5 . . ? 
C16 C17 H17C 109.5 . . ? 
H17A C17 H17C 109.5 . . ? 
H17B C17 H17C 109.5 . . ? 
C19 C18 Ge1 114.11(18) . . ? 
C19 C18 H18A 108.7 . . ? 
Ge1 C18 H18A 108.7 . . ? 
C19 C18 H18B 108.7 . . ? 
Ge1 C18 H18B 108.7 . . ? 
H18A C18 H18B 107.6 . . ? 
C18 C19 H19A 109.5 . . ? 
C18 C19 H19B 109.5 . . ? 
H19A C19 H19B 109.5 . . ? 
C18 C19 H19C 109.5 . . ? 
H19A C19 H19C 109.5 . . ? 
H19B C19 H19C 109.5 . . ? 
 
loop_ 
 _geom_torsion_atom_site_label_1 
 _geom_torsion_atom_site_label_2 
 _geom_torsion_atom_site_label_3 
 _geom_torsion_atom_site_label_4 
 _geom_torsion 
 _geom_torsion_site_symmetry_1 
 _geom_torsion_site_symmetry_2 
 _geom_torsion_site_symmetry_3 
 _geom_torsion_site_symmetry_4 
 _geom_torsion_publ_flag 
C11 C1 C2 C3 -179.26(18) 2_666 . . . ? 
C12 C1 C2 C3 3.8(3) . . . . ? 
C11 C1 C2 C11 0.4(3) 2_666 . . . ? 
C12 C1 C2 C11 -176.58(18) . . . . ? 
C1 C2 C3 C4 179.48(18) . . . . ? 
C11 C2 C3 C4 -0.2(3) . . . . ? 
C2 C3 C4 C5 -178.51(19) . . . . ? 
C2 C3 C4 C9 0.6(3) . . . . ? 
C3 C4 C5 C6 179.3(2) . . . . ? 
C9 C4 C5 C6 0.1(3) . . . . ? 
C3 C4 C5 F1 0.4(3) . . . . ? 
C9 C4 C5 F1 -178.80(17) . . . . ? 
F1 C5 C6 F2 0.6(3) . . . . ? 
C4 C5 C6 F2 -178.32(19) . . . . ? 
F1 C5 C6 C7 179.83(19) . . . . ? 
C4 C5 C6 C7 1.0(3) . . . . ? 
F2 C6 C7 C8 178.2(2) . . . . ? 
C5 C6 C7 C8 -1.1(3) . . . . ? 
F2 C6 C7 F3 -2.3(3) . . . . ? 
C5 C6 C7 F3 178.4(2) . . . . ? 
F3 C7 C8 F4 0.3(3) . . . . ? 
C6 C7 C8 F4 179.71(19) . . . . ? 
F3 C7 C8 C9 -179.29(19) . . . . ? 
C6 C7 C8 C9 0.1(3) . . . . ? 
C7 C8 C9 C10 -178.4(2) . . . . ? 
F4 C8 C9 C10 2.0(3) . . . . ? 
C7 C8 C9 C4 0.9(3) . . . . ? 
F4 C8 C9 C4 -178.68(18) . . . . ? 
C3 C4 C9 C10 -0.8(3) . . . . ? 
C5 C4 C9 C10 178.35(19) . . . . ? 
C3 C4 C9 C8 179.81(19) . . . . ? 
C5 C4 C9 C8 -1.0(3) . . . . ? 
C8 C9 C10 C11 179.87(19) . . . . ? 
C4 C9 C10 C11 0.5(3) . . . . ? 
C9 C10 C11 C1 -179.46(19) . . . 2_666 ? 
C9 C10 C11 C2 -0.1(3) . . . . ? 
C3 C2 C11 C10 -0.1(3) . . . . ? 
C1 C2 C11 C10 -179.79(18) . . . . ? 
C3 C2 C11 C1 179.27(18) . . . 2_666 ? 
C1 C2 C11 C1 -0.4(3) . . . 2_666 ? 
 
_refine_diff_density_max    0.593 
_refine_diff_density_min   -0.808 
_refine_diff_density_rms    0.115 
 
_shelxl_version_number 2013-4 
 
_iucr_refine_instructions_details 
; 
TITL k13077s in P-1 
CELL  0.71073   6.9251  10.8246  11.7644   93.6395   95.0042  104.4825 
ZERR     1.00   0.0002   0.0003   0.0003    0.0013    0.0012    0.0012 
LATT  1 
SFAC C H F GE 
UNIT 38 34 8 2 
TEMP -123 
SIZE 0.38 0.18 0.04 
REM COLR blue 
REM FORM tablet 
L.S. 8 
BOND $H 
CONF 
HTAB 
ACTA 
LIST 4 
FMAP 2 
PLAN 10 
WGHT    0.045600    0.489400 
FVAR       0.58418 
GE1   4    0.740060    0.826832    0.120728    11.00000    0.03410    0.03643 = 
         0.02474    0.01312    0.00722    0.00296 
F1    3    0.064515    0.855240    0.377128    11.00000    0.04164    0.03414 = 
         0.03220    0.01201    0.00599    0.01221 
F2    3   -0.225680    0.897448    0.506053    11.00000    0.04184    0.03525 = 
         0.04502    0.00259    0.00249    0.01817 
F3    3   -0.295093    0.780785    0.698099    11.00000    0.04025    0.04769 = 
         0.04130   -0.00034    0.01437    0.01941 
F4    3   -0.089628    0.609011    0.764812    11.00000    0.04358    0.04758 = 
         0.02767    0.00801    0.01584    0.01650 
C1    1    0.543384    0.566650    0.400599    11.00000    0.02614    0.02544 = 
         0.01824    0.00581    0.00382    0.00088 
C2    1    0.394955    0.592221    0.468071    11.00000    0.02413    0.02491 = 
         0.01911    0.00393    0.00362    0.00108 
C3    1    0.287795    0.681857    0.438100    11.00000    0.02834    0.02615 = 
         0.02045    0.00544    0.00316    0.00304 
AFIX  43 
H3    2    0.316044    0.726447    0.372022    11.00000   -1.20000 
AFIX   0 
C4    1    0.141559    0.706580    0.503039    11.00000    0.02789    0.02379 = 
         0.02213    0.00127    0.00247    0.00455 
C5    1    0.028235    0.794804    0.472578    11.00000    0.03219    0.02498 = 
         0.02705    0.00352    0.00150    0.00441 
C6    1   -0.114506    0.816742    0.535650    11.00000    0.03330    0.02679 = 
         0.03242   -0.00014    0.00013    0.00880 
C7    1   -0.154095    0.752959    0.636491    11.00000    0.03244    0.03107 = 
         0.02993   -0.00384    0.00657    0.00801 
C8    1   -0.051495    0.668574    0.668707    11.00000    0.03168    0.03224 = 
         0.02142    0.00150    0.00533    0.00476 
C9    1    0.099464    0.640156    0.604124    11.00000    0.02674    0.02617 = 
         0.02047   -0.00049    0.00341    0.00291 
C10   1    0.203281    0.551635    0.634205    11.00000    0.02803    0.02742 = 
         0.01820    0.00349    0.00540    0.00226 
AFIX  43 
H10   2    0.174049    0.507662    0.700510    11.00000   -1.20000 
AFIX   0 
C11   1    0.351678    0.524824    0.568977    11.00000    0.02565    0.02448 = 
         0.01886    0.00302    0.00278    0.00131 
C12   1    0.593011    0.639067    0.304322    11.00000    0.02602    0.02763 = 
         0.02249    0.00404    0.00377    0.00690 
C13   1    0.640558    0.704739    0.227923    11.00000    0.02988    0.03010 = 
         0.02259    0.00590    0.00662    0.00771 
C14   1    0.993123    0.797592    0.080579    11.00000    0.04438    0.06481 = 
         0.05324    0.01865    0.02516    0.01161 
AFIX  23 
H14A  2    1.004642    0.812974   -0.000910    11.00000   -1.20000 
H14B  2    1.104168    0.861587    0.126841    11.00000   -1.20000 
AFIX   0 
C15   1    1.020484    0.666683    0.097792    11.00000    0.06178    0.06962 = 
         0.11357    0.02302    0.05143    0.02548 
AFIX 137 
H15A  2    0.996583    0.646522    0.176217    11.00000   -1.50000 
H15B  2    1.157665    0.664708    0.084980    11.00000   -1.50000 
H15C  2    0.925082    0.603273    0.043427    11.00000   -1.50000 
AFIX   0 
C16   1    0.543398    0.801149   -0.012452    11.00000    0.04732    0.05887 = 
         0.02755    0.01668   -0.00143    0.00462 
AFIX  23 
H16A  2    0.421559    0.823213    0.011252    11.00000   -1.20000 
H16B  2    0.598268    0.861021   -0.068855    11.00000   -1.20000 
AFIX   0 
C17   1    0.483724    0.665640   -0.070684    11.00000    0.06518    0.08006 = 
         0.03541   -0.01018    0.00248    0.00352 
AFIX 137 
H17A  2    0.601954    0.644241   -0.098201    11.00000   -1.50000 
H17B  2    0.382174    0.659942   -0.135611    11.00000   -1.50000 
H17C  2    0.428579    0.605392   -0.015774    11.00000   -1.50000 
AFIX   0 
C18   1    0.774865    0.996019    0.201088    11.00000    0.05331    0.03112 = 
         0.04697    0.01161   -0.00237    0.00246 
AFIX  23 
H18A  2    0.893720    1.013362    0.258613    11.00000   -1.20000 
H18B  2    0.802192    1.061295    0.145264    11.00000   -1.20000 
AFIX   0 
C19   1    0.594857    1.010681    0.261240    11.00000    0.07210    0.03994 = 
         0.04498    0.00361   -0.00128    0.02133 
AFIX 137 
H19A  2    0.476098    0.993595    0.205102    11.00000   -1.50000 
H19B  2    0.621615    1.098161    0.297529    11.00000   -1.50000 
H19C  2    0.571003    0.949723    0.319803    11.00000   -1.50000 
 
AFIX   0 
HKLF 4 
 
REM  k13077s in P-1 
REM R1 =  0.0344 for    3360 Fo > 4sig(Fo)  and  0.0451 for all    3884 data 
REM    220 parameters refined using      0 restraints 
 
END 
 
WGHT      0.0450      0.4992 
 
REM No hydrogen bonds found for HTAB generation 
 
REM Highest difference peak  0.593,  deepest hole -0.808,  1-sigma level  0.115 
Q1    1   0.2256  0.4833  0.3687  11.00000  0.05    0.59 
Q2    1   0.8733  0.8333  0.1639  11.00000  0.05    0.54 
Q3    1   0.6162  0.8141  0.0603  11.00000  0.05    0.48 
Q4    1   0.8099  0.9202  0.1773  11.00000  0.05    0.41 
Q5    1   0.8024  0.5468  0.0659  11.00000  0.05    0.35 
Q6    1  -0.2110  0.8427  0.7235  11.00000  0.05    0.33 
Q7    1   0.0363  0.6419  0.8212  11.00000  0.05    0.32 
Q8    1  -0.1839  0.8243  0.7374  11.00000  0.05    0.31 
Q9    1   0.9616  0.5958 -0.0448  11.00000  0.05    0.30 
Q10   1   0.5020  0.7799 -0.0218  11.00000  0.05    0.30 
; 
_shelx_res_checksum   29416 
 
_shelx_hkl_file 
; 
  -1   0   0  197.71   10.69 
  -1   0   0  188.31    9.32 
  -1   0   0  197.71    9.97 
  -1   0   0  186.82    9.81 
   1   0   0  199.68   11.85 
   1   0   0  195.79    9.00 
   1   0   0  184.25    6.23 
   1   0   0  202.38   10.05 
   1   0   0  210.21   11.29 
   1   0   0  240.47   14.59 
  -1   0   0  183.63   11.45 
   1   0   0  192.36   12.89 
   1   0   0  200.89   14.52 
  -2   0   0  180.56    9.28 
  -2   0   0  174.29    8.16 
  -2   0   0  170.67    7.68 
  -2   0   0  173.76    8.32 
   2   0   0  200.65   11.94 
   2   0   0  194.82    9.20 
   2   0   0  166.17    8.16 
   2   0   0  187.35    9.81 
   2   0   0  184.85   10.05 
  -2   0   0  129.66   12.01 
  -2   0   0  164.71    9.93 
   2   0   0  179.35   11.40 
   2   0   0  159.47   11.20 
  -3   0   0  75.951   3.938 
  -3   0   0  77.719   4.300 
  -3   0   0  82.180   3.657 
  -3   0   0  70.928   3.536 
   3   0   0  81.336   3.898 
   3   0   0  78.322   4.420 
   3   0   0  90.981   6.229 
   3   0   0  82.019   4.260 
   3   0   0  74.947   4.380 
  -3   0   0  70.690   6.600 
  -3   0   0  90.122   7.464 
   3   0   0  74.184   6.756 
   3   0   0  79.902   6.867 
  -4   0   0  281.54   14.91 
  -4   0   0  258.64   14.71 
  -4   0   0  280.38   14.07 
  -4   0   0  277.72   12.74 
   4   0   0  287.77   13.10 
   4   0   0  298.90   21.38 
   4   0   0  310.80   14.83 
  -5   0   0  18.968   2.532 
  -5   0   0  26.040   2.210 
  -5   0   0  23.951   2.009 
   5   0   0  21.620   3.617 
   5   0   0  21.057   2.009 
  -6   0   0  211.98   11.13 
  -6   0   0  217.33   11.29 
   6   0   0  212.02   13.38 
   6   0   0  232.80   12.10 
  -7   0   0  7.7961  2.4513 
   7   0   0  4.9830  2.4513 
   7   0   0  14.587   4.943 
  -8   0   0  28.090   4.099 
  -8   0   0  32.149   3.898 
   8   0   0  31.305   6.148 
   8  -1   0  14.346   6.390 
  -8   1   0  14.829   3.898 
  -8   1   0  16.396   3.697 
   7  -1   0  22.745   3.014 
   7  -1   0  20.173   5.144 
  -7   1   0  28.653   2.974 
  -7   1   0  24.674   2.773 
   6  -1   0  157.17    9.04 
   6  -1   0  152.95    9.93 
  -6   1   0  154.43    7.92 
  -6   1   0  133.22    9.85 
  -6   1   0  155.92    8.88 
   5  -1   0  174.53   12.58 
   5  -1   0  167.94    9.52 
   5  -1   0  158.01    8.92 
  -5   1   0  157.73    8.00 
  -5   1   0  142.90    9.04 
  -5   1   0  162.51    9.36 
   4  -1   0  400.13   29.50 
   4  -1   0  407.48   22.79 
   4  -1   0  376.46   13.46 
   4  -1   0  408.45   22.42 
   4  -1   0  456.31   20.94 
   4  -1   0  368.06   17.96 
  -4   1   0  337.84   19.25 
  -4   1   0  371.80   19.97 
  -4   1   0  412.07   17.36 
   3  -1   0  522.50   22.71 
   3  -1   0  561.32   39.18 
   3  -1   0  509.84   18.69 
   3  -1   0  531.98   31.51 
   3  -1   0  529.45   25.40 
   3  -1   0  540.34   33.27 
  -3   1   0  509.80   23.23 
  -3   1   0  519.28   27.89 
  -3   1   0  447.79   23.59 
  -3   1   0  518.16   19.37 
   3  -1   0  540.84   32.34 
   3  -1   0  547.80   30.65 
  -3   1   0  549.56   33.21 
  -3   1   0  529.14   31.86 
   2  -1   0 1238.85   47.34 
   2  -1   0 1218.92   58.55 
   2  -1   0 1086.38   59.88 
   2  -1   0 1473.98   95.52 
   2  -1   0 1248.90   60.52 
   2  -1   0 1231.01   48.06 
   2  -1   0 1302.46   75.79 
  -2   1   0 1225.87   66.47 
  -2   1   0 1194.73   51.76 
  -2   1   0 1181.22   47.38 
  -2   1   0 1222.45   47.06 
  -2   1   0 1180.50   59.72 
   2  -1   0 1291.95   79.49 
   2  -1   0 1263.62   66.31 
  -2   1   0 1260.45   73.07 
  -2   1   0 1227.31   70.22 
   1  -1   0 2547.42  110.39 
   1  -1   0 2537.82  123.37 
   1  -1   0 2351.40  133.90 
   1  -1   0 2292.52  112.48 
   1  -1   0 2374.66  115.17 
   1  -1   0 2769.21  185.10 
   1  -1   0 1974.17  132.85 
  -1   1   0 2267.41  141.94 
  -1   1   0 2344.72  117.62 
  -1   1   0 2241.05  105.53 
  -1   1   0 2342.11  102.72 
  -1   1   0 2384.95  119.39 
  -1   1   0 2332.03  112.12 
   1  -1   0 2198.76  108.71 
   1  -1   0 2193.28  102.75 
  -1   1   0 2166.29  111.91 
  -1   1   0 2133.01  108.55 
   0  -1   0  -1.206   0.241 
   0  -1   0 -0.8037  0.2813 
   0  -1   0 -0.4019  0.2813 
   0   1   0 -0.8037  0.2813 
   0  -1   0  -1.202   0.648 
   0  -1   0 -0.2803  0.7530 
   0   1   0 -0.7607  0.7991 
  -1  -1   0 1320.79   64.62 
  -1  -1   0 1309.50   70.73 
  -1  -1   0 1266.46   76.11 
  -1  -1   0 1163.38   58.51 
  -1  -1   0 1323.00   55.74 
   1   1   0 1184.92   74.67 
   1   1   0 1481.01  112.32 
   1   1   0 1356.92   66.59 
   1   1   0 1312.11   78.04 
   1   1   0 1286.87   78.04 
  -1  -1   0 1241.26   79.44 
  -1  -1   0 1366.53   96.92 
   1   1   0 1255.70  113.65 
   1   1   0 1278.98   85.23 
  -2  -1   0  160.78    5.59 
  -2  -1   0  157.73    7.55 
  -2  -1   0  149.25    7.03 
  -2  -1   0  157.01    5.38 
  -2  -1   0  163.19    7.15 
  -2  -1   0  159.34    7.47 
   2   1   0  157.69    9.56 
   2   1   0  173.56   12.26 
   2   1   0  147.44    8.44 
   2   1   0  158.09    9.04 
  -2  -1   0  157.81   11.69 
  -2  -1   0  148.56   10.37 
   2   1   0  148.01   13.16 
   2   1   0  163.16   10.20 
  -3  -1   0  518.68   23.47 
  -3  -1   0  505.74   26.56 
  -3  -1   0  487.13   21.34 
  -3  -1   0  532.42   28.41 
   3   1   0  530.77   29.94 
   3   1   0  566.26   40.35 
   3   1   0  484.88   25.88 
   3   1   0  529.17   33.19 
  -3  -1   0  580.55   43.11 
  -3  -1   0  543.10   32.46 
   3   1   0  525.54   35.39 
   3   1   0  577.59   38.80 
  -4  -1   0  242.12   12.70 
  -4  -1   0  243.81   11.61 
  -4  -1   0  258.27   14.31 
  -4  -1   0  257.87   12.50 
   4   1   0  272.62   18.57 
   4   1   0  259.80   16.32 
   4   1   0  254.70   12.94 
  -5  -1   0  169.10   11.29 
  -5  -1   0  172.44    8.96 
  -5  -1   0  172.68    8.88 
  -5  -1   0  174.53    8.24 
   5   1   0  176.50   11.17 
   5   1   0  167.90    8.72 
  -6  -1   0  3.8980  2.1299 
  -6  -1   0 -0.9243  1.6878 
   6   1   0  -1.366   3.416 
   6   1   0  1.7682  2.1299 
  -7  -1   0  92.347   6.430 
  -7  -1   0  91.423   5.948 
   7   1   0  83.506   8.519 
   7   1   0  83.908   7.073 
  -8  -1   0  0.0402  4.2597 
  -8  -1   0  0.5626  3.4962 
   8   1   0  6.1083  6.4699 
   8  -2   0  17.682   6.510 
  -8   2   0  6.3092  2.9738 
  -8   2   0  3.6167  3.2149 
   7  -2   0  298.98   16.92 
   7  -2   0  277.72   23.23 
  -7   2   0  307.54   15.35 
  -7   2   0  301.84   16.07 
   6  -2   0  22.504   4.541 
   6  -2   0  21.982   2.451 
  -6   2   0  26.523   3.134 
  -6   2   0  22.062   2.331 
  -6   2   0  22.906   2.411 
   5  -2   0  334.02   19.05 
   5  -2   0  350.54   15.67 
   5  -2   0  380.20   26.28 
   5  -2   0  391.97   21.18 
  -5   2   0  341.02   19.57 
  -5   2   0  343.99   17.64 
  -5   2   0  359.14   19.97 
   4  -2   0  330.41   16.32 
   4  -2   0  322.17   17.16 
   4  -2   0  316.58   20.86 
   4  -2   0  344.79   18.49 
   4  -2   0  297.42   14.71 
   4  -2   0  306.58   12.58 
   4  -2   0  286.89   12.26 
   4  -2   0  308.35   13.62 
  -4   2   0  294.60   13.82 
  -4   2   0  290.26   13.54 
  -4   2   0  304.73   15.07 
  -4   2   0  302.40   12.86 
   3  -2   0 2904.31  115.25 
   3  -2   0 2842.83  103.64 
   3  -2   0 3178.10  216.80 
   3  -2   0 2768.12  131.37 
   3  -2   0 3169.30  200.01 
   3  -2   0 2952.25  191.32 
   3  -2   0 2859.34  106.49 
  -3   2   0 2677.34  123.61 
  -3   2   0 2632.13  120.04 
  -3   2   0 2805.78  147.08 
  -3   2   0 2758.24  125.58 
   3  -2   0 3097.64  146.76 
   3  -2   0 2969.30  187.53 
  -3   2   0 2923.46  164.05 
  -3   2   0 2882.09  188.52 
   2  -2   0  4.2999  0.6028 
   2  -2   0  3.4158  0.4822 
   2  -2   0  4.2999  0.6430 
   2  -2   0  4.0186  0.4822 
   2  -2   0  6.5905  1.1252 
   2  -2   0  4.3803  0.6028 
   2  -2   0  5.0634  0.6028 
  -2   2   0  5.7868  0.5224 
  -2   2   0  3.1747  0.5224 
  -2   2   0  4.6214  0.6430 
  -2   2   0  4.7821  0.6832 
   2  -2   0  4.5636  1.1408 
   2  -2   0  0.3376  1.0138 
  -2   2   0  2.8298  1.2423 
  -2   2   0  1.5425  0.8998 
   1  -2   0  549.26   31.59 
   1  -2   0  518.16   28.09 
   1  -2   0  524.99   23.31 
   1  -2   0  475.32   25.64 
   1  -2   0  536.52   25.60 
   1  -2   0  564.57   25.84 
   1  -2   0  575.86   40.71 
  -1   2   0  525.27   29.01 
  -1   2   0  539.98   30.02 
  -1   2   0  527.80   26.32 
  -1   2   0  532.10   25.68 
  -1   2   0  536.20   25.72 
   1  -2   0  502.08   24.27 
   1  -2   0  506.71   24.87 
  -1   2   0  489.72   25.51 
  -1   2   0  506.03   25.81 
   0  -2   0 1979.80  111.07 
   0  -2   0 2155.37  138.24 
   0  -2   0 2099.71  126.59 
   0  -2   0 2013.19  110.95 
   0  -2   0 1660.28   89.98 
   0   2   0 2271.47  183.09 
   0   2   0 1988.52  188.15 
   0   2   0 1895.53  125.94 
   0   2   0 1903.81   81.70 
   0  -2   0 2112.20  161.55 
   0  -2   0 1973.60  130.01 
   0   2   0 1854.48  162.29 
  -1  -2   0 3727.52  182.73 
  -1  -2   0 3806.16  193.74 
  -1  -2   0 3849.52  236.94 
  -1  -2   0 3747.37  187.31 
  -1  -2   0 3310.59  178.51 
   1   2   0 3411.22  228.14 
   1   2   0 3592.05  187.67 
   1   2   0 4018.59  320.32 
   1   2   0 3652.53  248.03 
  -1  -2   0 3823.86  282.35 
  -1  -2   0 3556.83  210.06 
   1   2   0 3630.92  334.74 
   1   2   0 3789.65  297.53 
  -2  -2   0  142.54    6.27 
  -2  -2   0  135.95    5.59 
  -2  -2   0  135.39    6.19 
  -2  -2   0  130.00    6.87 
  -2  -2   0  140.49    6.03 
  -2  -2   0  137.32    6.11 
   2   2   0  137.60    9.81 
   2   2   0  132.65    8.00 
   2   2   0  129.92    7.51 
   2   2   0  137.96    8.20 
  -2  -2   0  141.43   11.49 
  -2  -2   0  130.11    8.91 
   2   2   0  123.83   12.40 
   2   2   0  133.12   11.04 
  -3  -2   0  596.12   27.85 
  -3  -2   0  608.13   28.85 
  -3  -2   0  594.67   30.54 
  -3  -2   0  600.82   28.01 
  -3  -2   0  597.40   23.51 
  -3  -2   0  580.40   21.78 
   3   2   0  613.92   32.87 
   3   2   0  635.02   46.01 
   3   2   0  596.80   45.53 
   3   2   0  616.45   32.99 
  -4  -2   0  58.229   4.461 
  -4  -2   0  59.555   3.255 
  -4  -2   0  60.078   3.737 
  -4  -2   0  57.024   3.295 
   4   2   0  67.432   3.858 
   4   2   0  69.481   5.184 
   4   2   0  57.144   3.617 
  -5  -2   0  1.9691  1.2859 
  -5  -2   0  1.1654  1.4467 
  -5  -2   0  1.6878  1.3663 
   5   2   0  3.8980  2.8532 
   5   2   0  -1.728   1.487 
  -6  -2   0  75.429   4.983 
  -6  -2   0  79.648   4.501 
  -6  -2   0  70.365   4.662 
   6   2   0  69.039   5.144 
   6   2   0  65.061   6.309 
  -7  -2   0  3.9784  2.6925 
  -7  -2   0  2.5719  2.6121 
   7   2   0  2.2906  2.8532 
   7   2   0  0.3215  4.6616 
  -8  -2   0  28.813   4.260 
  -8  -2   0  27.849   4.822 
   8   2   0  23.187   7.836 
   8  -3   0  42.195   6.791 
  -8   3   0  33.917   3.858 
  -8   3   0  39.463   4.300 
   7  -3   0  2.8532  2.3710 
   7  -3   0  1.7682  4.9830 
  -7   3   0  6.4699  2.6523 
  -7   3   0  7.1933  2.3308 
   6  -3   0  66.266   4.541 
   6  -3   0  67.593   5.666 
  -6   3   0  62.730   4.822 
  -6   3   0  63.333   3.978 
  -6   3   0  67.030   4.139 
   5  -3   0  92.588   5.465 
   5  -3   0  90.820   4.662 
   5  -3   0  105.57    7.51 
   5  -3   0  95.080   4.501 
   5  -3   0  95.321   6.550 
  -5   3   0  100.75    4.58 
  -5   3   0  96.125   5.787 
  -5   3   0  89.454   5.224 
  -5   3   0  99.299   5.345 
   4  -3   0  867.97   66.11 
   4  -3   0  821.24   30.58 
   4  -3   0  818.14   38.66 
   4  -3   0  823.93   47.62 
   4  -3   0  786.76   31.10 
   4  -3   0  681.23   34.72 
   4  -3   0  878.54   44.12 
  -4   3   0  758.27   42.36 
  -4   3   0  758.59   33.39 
  -4   3   0  766.18   35.20 
  -4   3   0  787.96   42.11 
   3  -3   0  31.466   1.527 
   3  -3   0  32.832   1.728 
   3  -3   0  31.425   1.849 
   3  -3   0  34.841   2.813 
   3  -3   0  29.496   1.648 
   3  -3   0  31.948   2.090 
   3  -3   0  29.376   1.889 
  -3   3   0  33.153   1.808 
  -3   3   0  32.269   1.648 
  -3   3   0  28.612   1.648 
   3  -3   0  30.817   2.608 
   3  -3   0  25.340   2.432 
  -3   3   0  27.043   2.542 
  -3   3   0  28.025   2.425 
   2  -3   0 1667.03   80.25 
   2  -3   0 1655.66   82.54 
   2  -3   0 1682.34  140.73 
   2  -3   0 1505.40   75.23 
   2  -3   0 1662.05   86.20 
   2  -3   0 1563.59   67.99 
   2  -3   0 1458.43   64.82 
  -2   3   0 1527.63   78.97 
  -2   3   0 1525.29   72.17 
  -2   3   0 1515.65   80.05 
  -2   3   0 1526.34   73.18 
   1  -3   0  305.41   13.50 
   1  -3   0  341.66   13.86 
   1  -3   0  342.83   19.45 
   1  -3   0  300.11   18.65 
   1  -3   0  295.21   13.30 
   1  -3   0  337.04   14.99 
   1  -3   0  306.10   13.98 
  -1   3   0  301.84   15.51 
  -1   3   0  308.06   14.31 
  -1   3   0  317.83   17.24 
  -1   3   0  317.87   19.33 
  -1   3   0  323.42   22.71 
   1  -3   0  323.93   16.17 
  -1   3   0  297.61   18.26 
  -1   3   0  286.54   17.79 
   0  -3   0  372.28   18.36 
   0  -3   0  367.86   17.44 
   0  -3   0  350.62   19.93 
   0  -3   0  311.84   15.63 
   0  -3   0  375.94   24.88 
   0   3   0  321.97   13.62 
   0   3   0  332.54   24.07 
   0   3   0  349.98   33.19 
   0  -3   0  364.88   24.78 
   0  -3   0  347.60   19.10 
   0   3   0  329.78   28.02 
  -1  -3   0  31.827   2.090 
  -1  -3   0  34.439   1.768 
  -1  -3   0  34.078   1.969 
  -1  -3   0  32.510   1.768 
  -1  -3   0  33.636   1.688 
   1   3   0  29.215   1.969 
   1   3   0  34.279   2.170 
   1   3   0  31.466   2.411 
   1   3   0  32.189   1.929 
   1   3   0  29.697   2.773 
   1   3   0  31.184   2.130 
  -1  -3   0  32.235   4.627 
  -1  -3   0  27.081   4.299 
   1   3   0  28.502   4.412 
   1   3   0  24.563   4.592 
  -2  -3   0  332.22   15.71 
  -2  -3   0  335.15   19.97 
  -2  -3   0  345.32   16.56 
  -2  -3   0  341.78   16.76 
  -2  -3   0  347.73   15.59 
   2   3   0  335.39   15.75 
   2   3   0  343.99   17.40 
   2   3   0  356.21   28.81 
   2   3   0  329.40   18.85 
   2   3   0  314.94   20.13 
   2   3   0  343.15   26.16 
  -2  -3   0  339.72   27.10 
  -2  -3   0  324.74   19.98 
   2   3   0  286.02   28.61 
   2   3   0  352.54   29.41 
  -3  -3   0  45.691   2.210 
  -3  -3   0  45.571   2.853 
  -3  -3   0  49.589   2.773 
  -3  -3   0  49.589   2.090 
  -3  -3   0  44.888   3.175 
  -3  -3   0  52.885   2.612 
   3   3   0  45.169   3.335 
   3   3   0  47.861   4.220 
   3   3   0  48.665   3.175 
   3   3   0  44.365   3.175 
  -4  -3   0  312.65   16.28 
  -4  -3   0  328.68   18.32 
  -4  -3   0  331.25   16.88 
  -4  -3   0  322.37   12.02 
  -4  -3   0  317.59   11.98 
   4   3   0  309.55   18.85 
   4   3   0  342.95   23.23 
  -5  -3   0  0.1206  1.7682 
  -5  -3   0  -1.728   2.009 
  -5  -3   0  1.5672  1.6878 
   5   3   0  4.7821  3.3756 
   5   3   0 -0.1607  2.0897 
  -6  -3   0  61.243   4.662 
  -6  -3   0  66.508   4.501 
  -6  -3   0  61.766   4.420 
   6   3   0  58.069   6.912 
   6   3   0  52.282   5.104 
  -7  -3   0  5.1036  2.5719 
  -7  -3   0  9.8857  3.2149 
  -7  -3   0  8.2783  3.9382 
   7   3   0  9.2427  5.3045 
   7   3   0  13.623   4.019 
   8  -4   0  9.6044  5.6260 
  -8   4   0  21.017   3.818 
  -8   4   0  15.793   3.737 
   7  -4   0  78.804   5.948 
   7  -4   0  93.231   9.082 
  -7   4   0  101.99    5.99 
  -7   4   0  95.441   6.269 
   6  -4   0 1151.12   69.44 
   6  -4   0 1000.59   73.50 
  -6   4   0 1123.88   63.77 
  -6   4   0 1040.49   51.04 
  -6   4   0 1157.47   58.67 
   5  -4   0  84.752   4.903 
   5  -4   0  83.868   4.782 
   5  -4   0  95.763   6.430 
   5  -4   0  85.716   5.104 
  -5   4   0  103.76    5.18 
  -5   4   0  94.557   4.662 
  -5   4   0  87.163   4.742 
   4  -4   0  120.44    5.71 
   4  -4   0  113.69    5.59 
   4  -4   0  119.11    5.47 
   4  -4   0  125.14    8.84 
   4  -4   0  125.62    5.43 
   4  -4   0  116.78    5.51 
   4  -4   0  128.72    7.68 
  -4   4   0  109.27    5.47 
  -4   4   0  125.30    5.83 
   3  -4   0  301.64   15.71 
   3  -4   0  357.25   18.20 
   3  -4   0  355.44   13.62 
   3  -4   0  345.96   15.55 
   3  -4   0  373.77   15.43 
   3  -4   0  377.67   18.69 
   3  -4   0  339.73   16.24 
   3  -4   0  369.23   29.54 
  -3   4   0  325.87   16.15 
  -3   4   0  335.23   16.07 
  -3   4   0  359.18   15.79 
   2  -4   0  82.903   4.300 
   2  -4   0  78.684   3.295 
   2  -4   0  83.667   4.300 
   2  -4   0  78.965   3.416 
   2  -4   0  77.840   4.300 
   2  -4   0  87.645   3.697 
   2  -4   0  88.248   6.390 
  -2   4   0  76.594   3.898 
  -2   4   0  78.804   4.059 
  -2   4   0  74.424   3.978 
   2  -4   0  74.039   3.843 
   2  -4   0  71.951   3.894 
  -2   4   0  71.630   4.199 
  -2   4   0  76.726   4.165 
   1  -4   0 1350.93   70.04 
   1  -4   0 1513.64   76.03 
   1  -4   0 1748.25   96.16 
   1  -4   0 1779.99   82.94 
   1  -4   0 1589.43   74.58 
   1  -4   0 1805.87  115.86 
  -1   4   0 1544.38  114.61 
  -1   4   0 1568.33  137.52 
  -1   4   0 1558.77   79.85 
  -1   4   0 1446.25   68.64 
   1  -4   0 1734.12   88.79 
   1  -4   0 1546.93   79.27 
  -1   4   0 1580.65  112.44 
  -1   4   0 1626.00   96.36 
   0  -4   0  330.53   14.95 
   0  -4   0  364.37   24.88 
   0  -4   0  298.38   16.11 
   0  -4   0  349.66   17.04 
   0  -4   0  369.35   19.77 
   0  -4   0  341.86   16.32 
   0   4   0  338.53   24.15 
   0   4   0  311.08   14.19 
   0   4   0  333.30   28.49 
   0  -4   0  368.95   20.96 
   0  -4   0  318.55   17.31 
   0   4   0  292.72   25.03 
  -1  -4   0  268.04   14.35 
  -1  -4   0  265.43   13.62 
  -1  -4   0  270.53   17.20 
  -1  -4   0  237.90   11.25 
  -1  -4   0  279.85   14.67 
   1   4   0  267.80   11.01 
   1   4   0  254.18   21.38 
   1   4   0  263.74   16.88 
   1   4   0  228.66   15.51 
   1   4   0  276.36   16.36 
  -1  -4   0  283.66   20.37 
  -1  -4   0  252.59   14.81 
   1   4   0  262.03   20.24 
   1   4   0  241.49   21.31 
  -2  -4   0  18.204   1.567 
  -2  -4   0  19.691   1.286 
  -2  -4   0  16.155   1.206 
  -2  -4   0  15.110   1.768 
  -2  -4   0  17.320   1.326 
   2   4   0  11.815   1.487 
   2   4   0  12.779   1.728 
   2   4   0  13.181   1.768 
   2   4   0  14.306   1.688 
   2   4   0  15.512   1.407 
   2   4   0  16.637   1.728 
  -3  -4   0  290.78   13.34 
  -3  -4   0  279.61   12.90 
  -3  -4   0  279.77   17.32 
  -3  -4   0  284.92   14.67 
  -3  -4   0  283.83   15.99 
  -3  -4   0  286.20   16.07 
   3   4   0  261.09   15.35 
   3   4   0  278.53   21.18 
   3   4   0  248.55   16.15 
  -4  -4   0 -0.8841  1.2056 
  -4  -4   0  0.3215  1.4869 
  -4  -4   0  1.6476  1.3261 
  -4  -4   0  0.4420  0.8841 
  -4  -4   0  0.5626  0.9243 
   4   4   0  0.2411  1.9691 
   4   4   0  3.1747  1.9691 
   4   4   0  -4.099   2.291 
  -5  -4   0  224.32   12.14 
  -5  -4   0  225.88   10.69 
  -5  -4   0  223.67   12.02 
   5   4   0  216.40   13.82 
   5   4   0  220.90   14.63 
   5   4   0  228.26   15.11 
  -6  -4   0  18.767   2.893 
  -6  -4   0  19.771   3.014 
  -6  -4   0  16.717   3.094 
   6   4   0  20.816   3.737 
   6   4   0  13.985   4.300 
   6   4   0  16.677   4.300 
  -7  -4   0  21.057   3.858 
  -7  -4   0  30.220   4.541 
  -7  -4   0  17.843   3.777 
   7   4   0  18.325   5.948 
   7   4   0  25.840   5.345 
   8  -5   0  -1.929   5.063 
  -8   5   0 -0.6832  2.6925 
   7  -5   0  184.73   12.38 
   7  -5   0  200.81   12.06 
  -7   5   0  194.34   11.53 
   6  -5   0  169.70   11.57 
   6  -5   0  170.39   11.85 
  -6   5   0  187.99    9.32 
  -6   5   0  187.79    9.04 
   5  -5   0  128.27    7.35 
   5  -5   0  129.96    6.63 
   5  -5   0  133.34    9.32 
   5  -5   0  128.03    7.68 
  -5   5   0  140.85    6.99 
  -5   5   0  135.95    6.91 
   4  -5   0  131.97    7.88 
   4  -5   0  135.06    6.63 
   4  -5   0  139.16    9.40 
   4  -5   0  139.77    8.12 
   4  -5   0  133.74    6.63 
   4  -5   0  130.48    7.23 
   4  -5   0  134.66    6.03 
  -4   5   0  133.06    7.27 
  -4   5   0  139.69    7.11 
   3  -5   0  441.96   20.62 
   3  -5   0  400.61   22.50 
   3  -5   0  392.54   19.37 
   3  -5   0  395.43   22.75 
   3  -5   0  408.61   15.99 
   3  -5   0  380.80   19.77 
   3  -5   0  374.73   15.27 
   3  -5   0  400.25   16.32 
   3  -5   0  411.78   28.89 
  -3   5   0  372.52   17.20 
  -3   5   0  405.03   17.80 
  -3   5   0  374.41   22.34 
   2  -5   0  56.140   3.215 
   2  -5   0  52.161   2.492 
   2  -5   0  59.194   3.255 
   2  -5   0  53.005   2.692 
   2  -5   0  55.738   2.371 
   2  -5   0  52.523   3.335 
   2  -5   0  46.535   2.974 
  -2   5   0  55.095   2.692 
  -2   5   0  55.296   2.652 
  -2   5   0  54.894   2.893 
   2  -5   0  51.260   4.258 
   2  -5   0  41.908   3.529 
  -2   5   0  55.266   4.119 
  -2   5   0  50.355   4.228 
   1  -5   0  221.63    9.32 
   1  -5   0  256.14   13.26 
   1  -5   0  259.28   13.14 
   1  -5   0  234.48   12.58 
   1  -5   0  257.75   14.07 
  -1   5   0  235.13   18.65 
  -1   5   0  227.17   14.11 
  -1   5   0  221.42   10.01 
  -1   5   0  228.86   10.85 
   1  -5   0  228.00   12.92 
   1  -5   0  266.39   15.59 
  -1   5   0  253.12   15.43 
  -1   5   0  216.33   16.22 
   0  -5   0  877.78   38.82 
   0  -5   0  864.56   62.25 
   0  -5   0  862.75   35.85 
   0  -5   0  829.32   41.79 
   0  -5   0  897.59   35.20 
   0  -5   0  914.15   53.61 
   0   5   0  819.27   57.10 
   0   5   0  835.18   55.98 
   0   5   0  744.20   35.73 
   0  -5   0  818.14   45.15 
   0  -5   0  943.16   59.38 
   0   5   0  788.42   62.13 
  -1  -5   0  221.83   10.13 
  -1  -5   0  234.73   12.78 
  -1  -5   0  223.67   10.81 
  -1  -5   0  243.12   11.17 
  -1  -5   0  224.80   14.27 
   1   5   0  224.16   15.87 
   1   5   0  197.67   10.33 
   1   5   0  236.61    8.72 
   1   5   0  211.86   12.90 
  -2  -5   0  76.192   4.420 
  -2  -5   0  71.692   4.581 
  -2  -5   0  71.933   3.978 
  -2  -5   0  76.032   4.300 
   2   5   0  69.843   5.063 
   2   5   0  74.826   3.697 
   2   5   0  72.375   4.903 
   2   5   0  71.732   4.943 
   2   5   0  66.829   3.376 
  -3  -5   0  114.13    7.39 
  -3  -5   0  109.91    5.99 
  -3  -5   0  114.85    5.51 
  -3  -5   0  121.44    6.99 
  -3  -5   0  119.31    6.43 
   3   5   0  112.72    7.76 
   3   5   0  112.40    7.51 
   3   5   0  123.65    7.39 
  -4  -5   0  68.919   4.139 
  -4  -5   0  67.392   4.260 
  -4  -5   0  65.583   4.179 
  -4  -5   0  62.127   4.019 
  -4  -5   0  61.444   3.456 
   4   5   0  64.016   4.581 
   4   5   0  63.775   5.184 
   4   5   0  65.704   5.425 
  -5  -5   0  18.405   2.893 
  -5  -5   0  15.994   2.773 
  -5  -5   0  16.074   2.612 
   5   5   0  10.649   2.934 
   5   5   0  12.056   3.134 
   5   5   0  18.807   3.456 
  -6  -5   0  32.792   3.376 
  -6  -5   0  42.597   4.139 
  -6  -5   0  31.184   3.898 
   6   5   0  39.101   5.948 
   6   5   0  31.265   4.501 
   6   5   0  32.149   5.264 
  -7  -5   0  -1.286   4.822 
  -7  -5   0  -3.014   4.260 
  -7  -5   0  6.9120  3.4962 
   7   5   0  1.7280  5.2242 
   7   5   0  -1.889   6.390 
   8  -6   0  37.534   6.791 
  -8   6   0  44.486   5.023 
   7  -6   0  4.7017  4.2999 
   7  -6   0  2.1299  2.4112 
  -7   6   0  1.1654  2.4112 
  -7   6   0  0.0000  1.2056 
   6  -6   0  220.22   15.31 
   6  -6   0  220.14   12.98 
  -6   6   0  233.88   11.81 
  -6   6   0  219.25   11.41 
   5  -6   0  6.2690  2.6121 
   5  -6   0  8.6400  1.9691 
   5  -6   0  7.5951  1.7280 
  -5   6   0  7.7157  1.6878 
  -5   6   0  6.3092  1.6878 
   4  -6   0  433.77   30.62 
   4  -6   0  429.47   24.63 
   4  -6   0  458.16   24.51 
   4  -6   0  478.49   23.67 
   4  -6   0  447.07   23.39 
  -4   6   0  446.22   24.07 
  -4   6   0  465.07   24.11 
  -4   6   0  459.40   21.70 
   3  -6   0  93.794   6.229 
   3  -6   0  95.964   5.505 
   3  -6   0  102.47    4.98 
   3  -6   0  98.214   5.224 
   3  -6   0  100.87    4.58 
   3  -6   0  96.768   5.666 
   3  -6   0  103.52    4.26 
   3  -6   0  103.24    4.78 
  -3   6   0  90.740   4.782 
  -3   6   0  94.718   4.300 
   2  -6   0  15.793   1.728 
   2  -6   0  18.928   1.407 
   2  -6   0  18.084   1.326 
   2  -6   0  23.669   2.049 
   2  -6   0  15.431   1.407 
   2  -6   0  18.365   1.889 
   2  -6   0  20.736   1.567 
  -2   6   0  17.320   1.366 
  -2   6   0  16.557   1.929 
  -2   6   0  18.405   1.326 
  -2   6   0  17.762   1.768 
   1  -6   0  434.05   22.66 
   1  -6   0  437.70   21.42 
   1  -6   0  443.13   22.02 
   1  -6   0  369.95   15.55 
   1  -6   0  444.54   22.95 
  -1   6   0  387.39   19.09 
  -1   6   0  373.97   17.24 
  -1   6   0  382.81   20.01 
  -1   6   0  379.52   23.91 
   0  -6   0  967.15   38.66 
   0  -6   0  943.32   40.91 
   0  -6   0  964.02   63.49 
   0  -6   0  965.14   59.27 
   0  -6   0  906.83   43.52 
   0  -6   0  814.05   40.59 
   0   6   0  886.46   35.28 
   0   6   0  859.01   55.62 
   0   6   0  900.48   55.14 
  -1  -6   0  104.04    5.51 
  -1  -6   0  114.49    6.51 
  -1  -6   0  103.68    6.11 
  -1  -6   0  106.21    6.39 
   1   6   0  112.36    4.62 
   1   6   0  110.15    5.47 
  -2  -6   0  187.91    9.28 
  -2  -6   0  168.18   11.17 
  -2  -6   0  156.77    8.84 
  -2  -6   0  157.73    9.68 
   2   6   0  167.74    8.00 
   2   6   0  157.53    7.47 
   2   6   0  163.44   10.93 
  -3  -6   0  78.563   4.220 
  -3  -6   0  82.421   4.501 
  -3  -6   0  79.247   4.903 
  -3  -6   0  75.871   5.345 
   3   6   0  80.251   5.063 
   3   6   0  78.443   5.465 
   3   6   0  64.699   5.827 
  -4  -6   0  98.174   5.184 
  -4  -6   0  97.933   5.586 
  -4  -6   0  104.84    6.39 
   4   6   0  106.25    6.67 
   4   6   0  102.15    7.84 
   4   6   0  89.695   6.952 
  -5  -6   0  36.087   3.657 
  -5  -6   0  38.418   3.697 
  -5  -6   0  38.217   3.536 
   5   6   0  32.872   5.023 
   5   6   0  36.408   4.742 
   5   6   0  38.739   4.501 
  -6  -6   0  17.601   3.536 
  -6  -6   0  21.781   4.260 
  -6  -6   0  21.700   3.335 
   6   6   0  20.013   5.586 
   6   6   0  10.649   4.099 
   6   6   0  27.286   5.104 
   8  -7   0  7.0727  3.2551 
   8  -7   0  8.7203  5.9877 
  -8   7   0  6.0681  3.8980 
   7  -7   0  82.823   7.394 
   7  -7   0  78.845   7.193 
  -7   7   0  79.568   5.948 
  -7   7   0  83.627   6.028 
   6  -7   0  55.336   4.059 
   6  -7   0  55.014   5.706 
   6  -7   0  44.888   4.461 
  -6   7   0  54.050   4.179 
  -6   7   0  68.758   4.702 
   5  -7   0  100.42    5.91 
   5  -7   0  116.06    7.03 
   5  -7   0  103.80    8.40 
  -5   7   0  117.10    6.27 
  -5   7   0  102.72    6.99 
   4  -7   0  5.7868  1.8887 
   4  -7   0  4.1391  1.8887 
   4  -7   0  2.3710  1.8084 
   4  -7   0  5.1840  1.6074 
   4  -7   0  4.5410  1.6878 
  -4   7   0  5.2242  1.2458 
  -4   7   0  3.4560  1.4467 
   3  -7   0  235.97    9.48 
   3  -7   0  206.47   11.61 
   3  -7   0  223.35   11.69 
   3  -7   0  228.90   11.17 
   3  -7   0  218.81   11.05 
  -3   7   0  221.02   12.94 
  -3   7   0  214.51    9.28 
   2  -7   0  145.79    6.35 
   2  -7   0  146.12    7.23 
   2  -7   0  154.68    8.04 
   2  -7   0  156.24    8.04 
  -2   7   0  151.26    7.72 
  -2   7   0  147.12    7.76 
  -2   7   0  151.06    6.23 
   1  -7   0  13.462   1.728 
   1  -7   0  9.3231  1.6878 
  -1   7   0  9.3633  1.3663 
  -1   7   0  9.4035  1.5271 
  -1   7   0  6.8316  1.2056 
   0  -7   0  11.212   1.929 
   0  -7   0  7.6755  1.3663 
   0  -7   0  9.4035  1.9289 
   0   7   0  10.127   1.648 
   0   7   0  10.207   1.688 
   0   7   0  10.649   1.286 
  -1  -7   0  80.171   5.546 
  -1  -7   0  77.840   4.380 
   1   7   0  88.489   4.300 
   1   7   0  84.591   4.662 
  -2  -7   0  1.2859  1.3663 
  -2  -7   0  3.8578  1.4467 
   2   7   0  4.7017  2.2102 
   2   7   0 -0.1607  1.4869 
   2   7   0  0.6430  1.1252 
   2   7   0  2.4915  1.1654 
  -3  -7   0  24.996   2.572 
  -3  -7   0  29.255   2.813 
   3   7   0  32.309   3.536 
   3   7   0  25.277   2.934 
  -4  -7   0  0.0804  2.4112 
  -4  -7   0 -0.1206  2.2504 
  -4  -7   0  7.2335  2.6925 
   4   7   0  2.8130  2.9738 
   4   7   0  8.4792  2.9336 
  -5  -7   0  56.783   4.862 
  -5  -7   0  55.537   4.260 
  -5  -7   0  52.603   5.063 
   5   7   0  53.849   5.907 
  -6  -7   0  -3.496   3.577 
  -6  -7   0  2.4915  4.1391 
  -6  -7   0 -0.7233  4.1793 
   6   7   0  4.5410  5.1840 
   8  -8   0  21.258   4.059 
   8  -8   0  26.081   6.349 
  -8   8   0  19.852   3.858 
   7  -8   0  52.362   5.023 
   7  -8   0  39.744   6.510 
  -7   8   0  58.551   5.023 
  -7   8   0  60.359   5.144 
   6  -8   0  1.7682  1.9691 
   6  -8   0  0.0804  2.4112 
   6  -8   0  4.5410  3.4962 
  -6   8   0  -1.005   2.692 
  -6   8   0  -1.366   3.376 
   5  -8   0  33.033   3.657 
   5  -8   0  33.877   3.376 
   5  -8   0  30.823   2.893 
  -5   8   0  27.889   2.773 
   4  -8   0  72.455   5.305 
   4  -8   0  84.390   5.144 
   4  -8   0  82.662   5.023 
  -4   8   0  84.551   4.220 
  -4   8   0  82.542   4.782 
   3  -8   0  102.07    6.63 
   3  -8   0  100.14    5.43 
   3  -8   0  104.04    6.79 
   3  -8   0  108.34    5.79 
  -3   8   0  109.47    4.74 
  -3   8   0  105.53    6.99 
  -3   8   0  97.089   5.546 
   2  -8   0  57.064   2.773 
   2  -8   0  53.367   4.461 
   2  -8   0  57.827   3.938 
   2  -8   0  65.302   4.581 
  -2   8   0  61.083   3.858 
  -2   8   0  61.163   3.416 
  -2   8   0  58.069   2.934 
   1  -8   0  63.132   3.777 
   1  -8   0  58.470   4.019 
  -1   8   0  62.047   3.215 
  -1   8   0  55.818   3.938 
  -1   8   0  56.461   3.536 
   0  -8   0  154.80    8.80 
   0  -8   0  156.85    6.87 
   0  -8   0  133.42    7.64 
   0   8   0  159.18    7.31 
   0   8   0  146.28    6.67 
   0   8   0  156.52    8.32 
  -1  -8   0  14.507   1.768 
  -1  -8   0  13.944   1.969 
   1   8   0  14.829   2.090 
   1   8   0  15.110   2.331 
  -2  -8   0  49.750   3.577 
  -2  -8   0  52.201   3.617 
   2   8   0  49.509   3.978 
   2   8   0  52.523   3.376 
  -3  -8   0  20.615   3.054 
  -3  -8   0  19.329   2.492 
   3   8   0  24.996   3.898 
  -4  -8   0  149.13    7.72 
  -4  -8   0  148.93    8.72 
  -4  -8   0  167.09   10.73 
   4   8   0  169.95   11.33 
  -5  -8   0  1.7280  3.2952 
  -5  -8   0  0.9243  2.8532 
  -5  -8   0  -4.019   4.059 
   5   8   0  -2.130   4.501 
   8  -9   0  -1.487   5.747 
   8  -9   0  8.5998  4.8223 
  -8   9   0  -5.023   3.376 
   7  -9   0  -1.487   5.184 
   7  -9   0  2.0897  3.4560 
  -7   9   0  0.2009  3.5364 
  -7   9   0  0.3617  2.3710 
   6  -9   0  39.945   4.461 
   6  -9   0  39.382   4.099 
   6  -9   0  45.973   4.702 
  -6   9   0  46.174   4.300 
   5  -9   0  -2.652   2.210 
   5  -9   0  2.0495  2.8532 
   5  -9   0 -0.7635  2.5719 
  -5   9   0  3.2952  2.4513 
  -5   9   0  1.6476  1.6476 
   4  -9   0  13.904   2.451 
   4  -9   0  12.980   2.009 
  -4   9   0  16.275   1.808 
  -4   9   0  13.462   2.331 
   3  -9   0  3.6971  2.2102 
   3  -9   0  -2.331   1.527 
   3  -9   0 -0.5224  2.7728 
  -3   9   0  3.2952  1.7280 
  -3   9   0  -1.969   1.286 
  -3   9   0  1.1252  1.5271 
   2  -9   0  44.727   2.411 
   2  -9   0  50.152   3.456 
   2  -9   0  36.850   4.260 
  -2   9   0  48.344   3.054 
  -2   9   0  43.280   2.692 
  -2   9   0  47.299   3.416 
   1  -9   0  48.062   4.903 
   1  -9   0  74.143   4.621 
  -1   9   0  58.470   4.059 
  -1   9   0  61.364   3.456 
  -1   9   0  58.430   4.059 
   0  -9   0  13.944   2.652 
   0  -9   0  15.030   2.090 
   0   9   0  18.767   2.090 
   0   9   0  17.963   2.090 
   0   9   0  12.819   2.492 
  -1  -9   0  28.894   3.134 
  -1  -9   0  24.594   2.532 
   1   9   0  28.331   3.175 
   1   9   0  26.844   2.451 
  -2  -9   0  70.687   5.144 
  -2  -9   0  65.583   4.139 
   2   9   0  80.251   5.706 
   2   9   0  60.198   4.420 
  -3  -9   0  5.9475  2.8130 
  -3  -9   0  5.0232  2.5317 
   3   9   0  10.609   3.818 
  -4  -9   0  4.6214  2.9738 
  -4  -9   0  3.0541  2.8130 
  -4  -9   0  2.0495  3.3354 
   4   9   0  6.8316  4.1391 
  -5  -9   0  29.537   5.104 
  -5  -9   0  21.741   4.220 
  -5  -9   0  35.765   5.264 
   5   9   0  31.506   6.590 
   7 -10   0  36.931   6.912 
   7 -10   0  57.747   5.305 
  -7  10   0  51.157   5.747 
   6 -10   0  5.1438  3.0139 
   6 -10   0  3.0541  2.6121 
   6 -10   0  2.2504  3.9382 
  -6  10   0  1.8084  3.4560 
   5 -10   0  33.957   3.737 
   5 -10   0  28.733   3.697 
   5 -10   0  26.402   3.737 
  -5  10   0  38.378   3.094 
  -5  10   0  33.796   3.898 
   4 -10   0  6.1083  2.2906 
   4 -10   0  3.3756  2.5317 
  -4  10   0  0.6430  1.7280 
  -4  10   0  8.3587  2.7326 
   3 -10   0  76.474   5.184 
  -3  10   0  66.266   4.340 
  -3  10   0  66.347   4.903 
  -3  10   0  64.016   3.657 
   2 -10   0  0.4420  1.9691 
  -2  10   0  -2.773   1.849 
  -2  10   0 -0.2813  1.6476 
  -2  10   0  0.0804  1.8887 
   1 -10   0  127.55    8.60 
   1 -10   0  123.81    7.92 
  -1  10   0  127.03    7.15 
  -1  10   0  133.98    7.51 
  -1  10   0  132.93    8.08 
   0 -10   0  12.176   2.331 
   0 -10   0  15.311   2.893 
   0  10   0  7.2736  2.2504 
   0  10   0  11.091   2.331 
   0  10   0  10.569   2.291 
  -1 -10   0  63.092   4.822 
  -1 -10   0  63.735   4.340 
   1  10   0  68.276   4.903 
   1  10   0  72.093   5.505 
   1  10   0  73.098   5.184 
  -2 -10   0  3.6569  2.3308 
  -2 -10   0  3.2952  2.4513 
   2  10   0  7.2736  2.7326 
  -3 -10   0  15.873   4.059 
  -3 -10   0  19.008   3.255 
   3  10   0  18.887   4.862 
  -4 -10   0  0.4019  3.5765 
  -4 -10   0  -3.617   3.456 
  -4 -10   0  2.0897  3.4560 
   4  10   0  3.9382  5.7064 
   7 -11   0  1.9691  3.5765 
  -7  11   0  2.6523  4.2999 
   6 -11   0  8.3185  3.6569 
   6 -11   0  14.467   4.019 
  -6  11   0  4.3803  4.1793 
   5 -11   0  -3.737   3.697 
   5 -11   0  0.4019  3.2149 
  -5  11   0  0.4420  2.5719 
  -5  11   0  2.4112  2.4915 
   4 -11   0  33.957   4.461 
  -4  11   0  29.738   2.813 
  -4  11   0  24.393   3.657 
   3 -11   0 -0.0402  2.4915 
  -3  11   0  0.9243  2.0093 
  -3  11   0  3.0943  2.6121 
  -3  11   0  2.2504  1.8887 
   2 -11   0  43.240   4.461 
  -2  11   0  45.932   4.461 
  -2  11   0  50.514   3.536 
  -2  11   0  47.379   3.496 
   1 -11   0  23.428   3.416 
   1 -11   0  19.651   2.692 
  -1  11   0  23.348   2.773 
  -1  11   0  27.889   2.893 
  -1  11   0  22.986   3.255 
   0 -11   0  68.075   4.782 
   0 -11   0  71.129   6.108 
   0  11   0  71.852   6.028 
   0  11   0  78.362   4.943 
   0  11   0  72.978   5.666 
  -1 -11   0  11.172   2.652 
  -1 -11   0  16.115   2.853 
   1  11   0  12.297   3.376 
   1  11   0  7.5549  3.6971 
   1  11   0  12.980   3.014 
  -2 -11   0  62.770   5.385 
  -2 -11   0  57.184   5.104 
   2  11   0  67.110   6.148 
  -3 -11   0  11.975   3.376 
  -3 -11   0  8.0372  3.4560 
  -3 -11   0  11.131   4.541 
   3  11   0  20.897   4.983 
   6 -12   0  27.246   5.465 
  -6  12   0  27.447   5.184 
   5 -12   0  12.859   4.179 
   5 -12   0  5.8270  4.0588 
  -5  12   0  10.046   3.898 
   4 -12   0  27.568   4.461 
  -4  12   0  18.365   3.938 
   3 -12   0  5.6662  3.7373 
  -3  12   0  5.9073  2.7326 
  -3  12   0  5.3045  2.9336 
   2 -12   0  63.253   6.470 
   2 -12   0  56.702   5.184 
  -2  12   0  63.976   5.063 
  -2  12   0  65.824   5.586 
  -2  12   0  64.056   4.340 
   1 -12   0  23.308   3.777 
   1 -12   0  12.257   2.773 
  -1  12   0  15.672   3.255 
  -1  12   0  18.526   3.255 
  -1  12   0  21.540   3.295 
   0 -12   0  30.180   4.019 
   0 -12   0  25.116   3.496 
   0  12   0  30.260   3.536 
   0  12   0  25.518   4.099 
   0  12   0  26.925   4.260 
  -1 -12   0  33.997   4.541 
  -1 -12   0  33.153   4.260 
   1  12   0  38.538   4.862 
   1  12   0  36.690   4.822 
  -2 -12   0  11.172   4.702 
  -2 -12   0  7.9970  4.1391 
   2  12   0  9.9661  4.5410 
   2  12   0  14.226   5.706 
   5 -13   0  15.271   5.224 
   5 -13   0  9.4035  4.7419 
  -5  13   0  12.618   4.903 
   4 -13   0  5.4653  4.5812 
  -4  13   0  2.9738  4.4606 
   3 -13   0  18.686   3.737 
  -3  13   0  10.207   3.737 
   2 -13   0  26.643   4.702 
  -2  13   0  24.754   4.581 
   1 -13   0  47.741   5.063 
  -1  13   0  41.271   5.465 
   0 -13   0  1.1252  3.4158 
   0  13   0 -0.6832  3.7775 
  -1 -13   0  30.300   5.546 
   3 -14   0  7.3540  4.7017 
   2 -14   0  5.0232  5.4251 
   2 -14   1  14.628   4.541 
   3 -14   1  3.6167  4.7419 
   1  13  -1  12.096   6.390 
   1  13  -1  10.127   5.787 
  -1 -13   1  12.538   4.541 
   0  13  -1  -1.407   7.716 
   0 -13   1  -1.688   3.215 
  -1  13  -1  10.368   4.782 
  -1  13  -1  13.261   5.907 
   1 -13   1  13.261   4.019 
  -2  13  -1  1.8887  3.9784 
   2 -13   1  -8.238   3.737 
  -3  13  -1  40.829   5.465 
   3 -13   1  34.238   4.782 
   4 -13   1  25.558   4.220 
   5 -13   1  6.6307  4.0990 
   5 -13   1  11.332   5.023 
   2  12  -1  4.8223  5.0232 
   2  12  -1  13.181   4.220 
  -2 -12   1  12.056   3.496 
   1  12  -1  0.6430  3.4962 
   1  12  -1  -2.572   3.737 
  -1 -12   1  -4.019   3.657 
   0  12  -1  4.1391  2.8532 
   0  12  -1  4.0990  3.6167 
   0 -12   1  8.0372  3.4962 
  -1  12  -1  31.586   3.577 
  -1  12  -1  35.605   3.938 
  -1  12  -1  39.463   5.184 
   1 -12   1  33.394   4.139 
   1 -12   1  29.175   3.978 
  -2  12  -1  10.569   2.572 
  -2  12  -1  9.2427  2.9738 
  -2  12  -1  4.0588  3.1345 
   2 -12   1  6.3092  2.8532 
   2 -12   1 -0.4822  2.7326 
  -3  12  -1  59.877   4.461 
  -3  12  -1  59.073   5.787 
  -3  12  -1  55.698   4.983 
   3 -12   1  70.446   5.867 
  -4  12  -1  6.8316  2.6925 
  -4  12  -1  13.101   4.059 
   4 -12   1  13.985   3.737 
  -5  12  -1  21.138   5.345 
  -5  12  -1  22.584   4.340 
   5 -12   1  23.187   4.621 
   5 -12   1  20.414   4.541 
   6 -12   1  18.405   4.983 
   6 -12   1  17.320   4.822 
   3  11  -1  -2.291   4.742 
  -3 -11   1  3.2149  3.6569 
  -3 -11   1  1.2056  3.5765 
  -3 -11   1  1.6878  3.0541 
   2  11  -1  30.782   4.702 
  -2 -11   1  29.858   3.496 
  -2 -11   1  31.747   4.059 
   1  11  -1  104.08    6.35 
   1  11  -1  103.00    8.32 
  -1 -11   1  107.42    7.27 
  -1 -11   1  100.06    6.51 
   0  11  -1  87.806   6.832 
   0  11  -1  92.709   6.349 
   0  11  -1  75.831   5.988 
   0 -11   1  96.808   6.309 
   0 -11   1  83.104   5.505 
  -1  11  -1  21.218   2.893 
  -1  11  -1  18.244   3.376 
  -1  11  -1  22.062   2.773 
   1 -11   1  29.215   3.416 
   1 -11   1  17.400   2.572 
  -2  11  -1  49.549   3.657 
  -2  11  -1  52.643   4.862 
  -2  11  -1  58.028   4.380 
   2 -11   1  57.345   4.179 
  -3  11  -1  85.596   5.465 
  -3  11  -1  80.372   5.787 
  -3  11  -1  80.532   4.742 
   3 -11   1  85.556   6.269 
  -4  11  -1  66.869   4.621 
  -4  11  -1  68.838   5.907 
   4 -11   1  73.580   5.586 
  -5  11  -1  2.5317  2.5719 
  -5  11  -1  0.1607  3.3756 
   5 -11   1  8.9213  3.5364 
   5 -11   1  0.3215  3.2952 
   6 -11   1  50.875   5.224 
   6 -11   1  39.101   4.983 
   7 -11   1  19.812   4.541 
   4  10  -1  16.637   5.907 
  -4 -10   1  12.940   4.099 
  -4 -10   1  10.127   3.295 
  -4 -10   1  17.923   3.657 
   3  10  -1  21.218   4.260 
  -3 -10   1  10.127   2.773 
  -3 -10   1  14.266   2.974 
  -3 -10   1  14.346   3.737 
   2  10  -1  28.572   3.617 
  -2 -10   1  24.955   3.416 
  -2 -10   1  26.683   3.898 
   1  10  -1  47.660   4.139 
   1  10  -1  40.708   3.858 
  -1 -10   1  45.209   4.220 
  -1 -10   1  44.486   3.335 
   0  10  -1  31.988   2.974 
   0  10  -1  29.938   3.335 
   0  10  -1  30.622   3.335 
   0 -10   1  32.711   3.536 
   0 -10   1  30.983   2.773 
  -1  10  -1  126.06    6.99 
  -1  10  -1  129.60    7.88 
  -1  10  -1  115.65    7.19 
   1 -10   1  127.07    7.11 
   1 -10   1  129.60    7.88 
  -2  10  -1  12.779   2.049 
  -2  10  -1  5.3447  2.6121 
   2 -10   1  7.0325  2.1299 
  -3  10  -1  88.570   5.626 
  -3  10  -1  92.829   7.193 
  -3  10  -1  91.342   4.621 
   3 -10   1  88.529   6.390 
  -4  10  -1  10.408   1.889 
  -4  10  -1  6.9522  2.3710 
   4 -10   1  9.4035  2.8130 
   4 -10   1  8.0774  2.9336 
   4 -10   1  5.9073  2.4513 
  -5  10  -1  60.359   4.983 
  -5  10  -1  60.359   4.179 
   5 -10   1  62.730   6.590 
   5 -10   1  61.444   5.224 
   5 -10   1  52.965   5.144 
  -6  10  -1  -1.326   3.335 
   6 -10   1  -2.371   3.416 
   6 -10   1  2.2102  3.2952 
   6 -10   1  2.7326  3.0541 
   7 -10   1  12.056   3.898 
   7 -10   1  11.212   5.505 
   5   9  -1  25.639   6.470 
  -5  -9   1  19.490   4.420 
  -5  -9   1  23.428   4.581 
  -5  -9   1  19.249   4.501 
   4   9  -1  16.074   4.621 
  -4  -9   1  13.422   4.059 
  -4  -9   1  7.8362  3.1747 
  -4  -9   1  11.855   3.215 
   3   9  -1  117.18    8.64 
  -3  -9   1  98.978   6.631 
  -3  -9   1  98.696   6.510 
  -3  -9   1  105.73    6.47 
   2   9  -1  0.6832  2.4915 
  -2  -9   1  1.4467  1.9691 
  -2  -9   1  0.6832  2.5317 
   1   9  -1  87.123   5.184 
  -1  -9   1  76.996   5.345 
  -1  -9   1  85.556   4.340 
   0   9  -1  32.551   2.733 
   0   9  -1  30.622   2.893 
   0   9  -1  31.747   3.054 
   0  -9   1  31.305   2.331 
   0  -9   1  26.643   3.094 
  -1   9  -1  118.59    6.03 
  -1   9  -1  109.06    6.51 
  -1   9  -1  112.76    6.07 
   1  -9   1  124.74    7.68 
   1  -9   1  108.10    6.39 
  -2   9  -1  229.30   10.25 
  -2   9  -1  225.88   11.17 
  -2   9  -1  224.32   11.94 
   2  -9   1  215.03   11.77 
   2  -9   1  210.49    9.20 
   2  -9   1  233.84   12.38 
  -3   9  -1  166.69    7.23 
  -3   9  -1  162.15    7.92 
  -3   9  -1  162.99    9.00 
   3  -9   1  132.41    8.76 
   3  -9   1  167.01    9.68 
  -4   9  -1  167.37    7.23 
  -4   9  -1  155.92    9.48 
   4  -9   1  149.85    9.64 
   4  -9   1  160.14   10.41 
   4  -9   1  162.47    9.32 
  -5   9  -1  14.547   2.250 
  -5   9  -1  17.119   2.291 
   5  -9   1  14.346   2.853 
   5  -9   1  12.458   2.733 
   5  -9   1  14.025   3.255 
  -6   9  -1  104.76    6.95 
   6  -9   1  83.466   7.876 
   6  -9   1  91.945   7.394 
   6  -9   1  99.822   7.475 
  -7   9  -1  2.2906  3.3354 
   7  -9   1  4.0588  3.3756 
   7  -9   1  0.5224  3.0541 
   7  -9   1  2.9738  4.6214 
  -8   9  -1  47.660   6.229 
   8  -9   1  38.739   7.917 
   5   8  -1  3.2952  4.6616 
  -5  -8   1 -0.6028  2.7326 
  -5  -8   1  5.7868  3.2149 
  -5  -8   1  -2.652   4.019 
   4   8  -1  65.945   5.586 
  -4  -8   1  59.113   4.420 
  -4  -8   1  50.634   3.938 
  -4  -8   1  67.311   4.983 
   3   8  -1  15.070   3.496 
  -3  -8   1  17.883   2.331 
  -3  -8   1  13.502   3.014 
  -3  -8   1  17.521   2.291 
   2   8  -1  208.00    9.64 
  -2  -8   1  198.72   10.85 
  -2  -8   1  202.30   12.82 
   1   8  -1  0.8439  2.0495 
   1   8  -1  3.1747  1.9691 
  -1  -8   1 -0.9243  1.2859 
  -1  -8   1  2.0897  1.4467 
   0   8  -1  437.54   23.91 
   0   8  -1  460.97   23.95 
   0   8  -1  421.95   19.29 
   0  -8   1  422.43   19.37 
   0  -8   1  415.84   27.37 
  -1   8  -1  35.484   2.331 
  -1   8  -1  32.551   2.692 
  -1   8  -1  31.023   2.371 
   1  -8   1  28.693   2.893 
   1  -8   1  34.721   2.451 
  -2   8  -1  240.31   11.21 
  -2   8  -1  225.32   10.17 
  -2   8  -1  222.59   10.85 
   2  -8   1  241.88   12.94 
   2  -8   1  205.67   10.21 
   2  -8   1  224.60   13.18 
   2  -8   1  239.91   14.95 
  -3   8  -1  44.365   2.411 
  -3   8  -1  33.435   2.813 
  -3   8  -1  40.869   2.612 
   3  -8   1  33.595   2.813 
   3  -8   1  29.778   3.134 
   3  -8   1  38.940   3.255 
   3  -8   1  33.274   2.974 
  -4   8  -1  206.15    8.80 
  -4   8  -1  208.04   12.22 
   4  -8   1  201.81   11.94 
   4  -8   1  225.88   11.29 
   4  -8   1  186.82   12.82 
  -5   8  -1  41.351   3.215 
  -5   8  -1  41.592   2.893 
   5  -8   1  37.092   3.697 
   5  -8   1  37.172   3.536 
   5  -8   1  36.408   2.893 
  -6   8  -1  69.602   5.104 
  -6   8  -1  84.672   4.903 
   6  -8   1  72.535   6.832 
   6  -8   1  74.786   5.666 
   6  -8   1  68.396   6.068 
  -7   8  -1  1.5271  3.0943 
   7  -8   1  6.6709  2.9336 
   7  -8   1  7.3138  3.4962 
   7  -8   1  4.0186  4.4606 
  -8   8  -1  -1.527   4.099 
   8  -8   1  -4.220   5.305 
   6   7  -1  14.829   5.666 
  -6  -7   1  9.5642  4.3401 
  -6  -7   1  16.436   3.818 
  -6  -7   1  18.325   4.380 
   5   7  -1  18.204   4.541 
  -5  -7   1  19.088   3.496 
  -5  -7   1  21.982   3.416 
  -5  -7   1  23.991   3.094 
   4   7  -1  40.266   4.139 
   4   7  -1  43.240   4.260 
  -4  -7   1  34.721   2.974 
  -4  -7   1  35.806   3.376 
  -4  -7   1  39.262   3.938 
   3   7  -1  487.53   29.62 
   3   7  -1  514.78   25.44 
  -3  -7   1  476.08   23.55 
  -3  -7   1  456.35   23.43 
  -3  -7   1  474.76   26.20 
   2   7  -1  76.353   4.019 
   2   7  -1  76.956   4.260 
  -2  -7   1  81.617   5.385 
  -2  -7   1  77.438   5.063 
   1   7  -1  743.60   40.71 
   1   7  -1  826.78   36.37 
  -1  -7   1  736.37   48.22 
  -1  -7   1  768.92   41.63 
   0   7  -1  269.81   12.62 
   0   7  -1  286.65   12.98 
   0   7  -1  287.65   13.10 
   0  -7   1  293.44   13.14 
   0  -7   1  267.52   11.77 
   0  -7   1  280.62   17.20 
  -1   7  -1  707.31   28.97 
  -1   7  -1  664.23   33.92 
  -1   7  -1  722.10   42.88 
   1  -7   1  654.91   25.36 
   1  -7   1  704.74   29.58 
   1  -7   1  792.43   41.43 
   1  -7   1  757.91   39.22 
  -2   7  -1  7.6353  1.2056 
  -2   7  -1  7.1933  1.4869 
  -2   7  -1  7.7157  1.2859 
   2  -7   1  3.0943  1.7280 
   2  -7   1  9.5642  1.3663 
   2  -7   1  8.7203  1.5672 
   2  -7   1  6.6307  1.2056 
   2  -7   1  6.1484  1.5271 
  -3   7  -1  664.31   31.26 
  -3   7  -1  676.65   32.11 
  -3   7  -1  630.56   33.23 
   3  -7   1  723.10   34.92 
   3  -7   1  674.68   34.84 
   3  -7   1  717.68   33.43 
   3  -7   1  677.82   37.81 
   3  -7   1  720.49   37.25 
   3  -7   1  664.15   50.23 
  -4   7  -1  34.841   2.773 
  -4   7  -1  41.311   3.054 
  -4   7  -1  40.347   2.612 
   4  -7   1  34.841   3.777 
   4  -7   1  43.602   3.335 
   4  -7   1  39.663   3.094 
  -5   7  -1  197.84    9.60 
  -5   7  -1  196.79   11.37 
   5  -7   1  180.64   11.45 
   5  -7   1  200.69   11.73 
   5  -7   1  178.95   10.05 
  -6   7  -1  0.8841  1.2458 
  -6   7  -1  3.2952  2.3308 
   6  -7   1  5.3045  2.1700 
   6  -7   1  2.4513  2.2906 
   6  -7   1  2.2906  3.4560 
  -7   7  -1  40.990   3.657 
   7  -7   1  29.135   3.978 
   7  -7   1  19.691   4.862 
   7  -7   1  32.109   3.898 
  -8   7  -1  5.6662  2.8934 
   8  -7   1  3.5765  5.8270 
   6   6  -1  11.734   5.425 
   6   6  -1  5.4251  5.9073 
  -6  -6   1 -0.3215  3.4560 
  -6  -6   1  2.2102  2.7326 
  -6  -6   1  1.9289  2.9738 
   5   6  -1  161.59   12.62 
   5   6  -1  159.94   11.37 
  -5  -6   1  162.23    8.00 
  -5  -6   1  166.09    8.64 
  -5  -6   1  168.66   10.21 
   4   6  -1  78.443   5.988 
   4   6  -1  81.216   6.108 
  -4  -6   1  82.622   5.264 
  -4  -6   1  73.420   5.023 
  -4  -6   1  73.821   4.380 
  -4  -6   1  81.899   5.305 
   3   6  -1  120.92    6.47 
   3   6  -1  131.41    8.84 
  -3  -6   1  120.00    9.08 
  -3  -6   1  133.10    7.64 
  -3  -6   1  126.91    8.04 
  -3  -6   1  140.81    6.43 
  -3  -6   1  142.62    7.07 
   2   6  -1  31.385   2.652 
   2   6  -1  25.438   1.849 
   2   6  -1  26.201   2.572 
  -2  -6   1  22.946   2.049 
  -2  -6   1  26.563   2.451 
  -2  -6   1  23.669   2.250 
  -2  -6   1  25.197   2.451 
   1   6  -1  517.55   19.73 
   1   6  -1  512.45   25.88 
  -1  -6   1  538.69   34.56 
  -1  -6   1  540.38   31.26 
  -1  -6   1  527.52   34.08 
  -1  -6   1  554.77   47.62 
  -1  -6   1  515.67   20.90 
   0   6  -1  684.65   50.96 
   0   6  -1  673.52   40.91 
   0   6  -1  718.56   29.46 
   0   6  -1  704.30   28.77 
   0  -6   1  743.08   51.28 
   0  -6   1  723.75   40.87 
   0  -6   1  690.47   31.95 
   0  -6   1  784.63   33.15 
   0  -6   1  671.02   31.51 
   0  -6   1  731.02   42.60 
  -1   6  -1  194.58    9.89 
  -1   6  -1  189.80   14.79 
  -1   6  -1  217.81   12.14 
  -1   6  -1  217.81    9.72 
   1  -6   1  229.94   11.81 
   1  -6   1  223.15   10.77 
   1  -6   1  225.68   13.58 
   1  -6   1  232.11   14.02 
   1  -6   1  244.45   12.98 
   1  -6   1  202.54    9.16 
  -2   6  -1  277.04   15.83 
  -2   6  -1  278.01   13.10 
  -2   6  -1  275.63   20.53 
  -2   6  -1  294.72   14.35 
   2  -6   1  298.22   12.74 
   2  -6   1  304.45   10.41 
   2  -6   1  300.99   15.63 
   2  -6   1  282.83   16.56 
   2  -6   1  264.34   16.88 
   2  -6   1  299.47   18.77 
   2  -6   1  293.72   15.99 
  -3   6  -1  229.58   11.81 
  -3   6  -1  247.79   15.23 
   3  -6   1  225.44   10.13 
   3  -6   1  278.37   11.77 
   3  -6   1  256.18   13.46 
   3  -6   1  262.53   11.05 
   3  -6   1  258.68   11.17 
   3  -6   1  238.02   12.98 
   3  -6   1  233.92   13.26 
   3  -6   1  250.68   18.12 
   3  -6   1  237.82   12.46 
  -4   6  -1  50.554   3.054 
  -4   6  -1  56.984   3.456 
  -4   6  -1  50.835   2.773 
   4  -6   1  48.866   3.255 
   4  -6   1  48.866   3.938 
   4  -6   1  52.885   3.014 
  -5   6  -1  59.998   3.657 
  -5   6  -1  67.392   3.737 
   5  -6   1  53.688   5.063 
   5  -6   1  53.166   3.536 
   5  -6   1  56.783   3.536 
  -6   6  -1  75.791   4.702 
   6  -6   1  63.373   5.144 
   6  -6   1  75.268   5.827 
   6  -6   1  62.168   4.621 
  -7   6  -1  48.022   3.697 
   7  -6   1  56.140   6.028 
   7  -6   1  37.252   3.657 
   7  -6   1  39.020   3.978 
  -8   6  -1  15.070   3.094 
   8  -6   1  18.445   6.430 
   7   5  -1  3.8980  5.3045 
   7   5  -1  16.717   6.510 
  -7  -5   1  15.351   4.621 
  -7  -5   1  4.3401  3.8578 
  -7  -5   1  8.1175  4.0990 
   6   5  -1  104.48    8.36 
   6   5  -1  95.602   9.926 
  -6  -5   1  105.89    6.99 
  -6  -5   1  95.763   6.028 
  -6  -5   1  110.99    7.35 
   5   5  -1  5.0232  3.0139 
   5   5  -1  5.9073  3.2952 
   5   5  -1  4.2597  2.4112 
  -5  -5   1  9.2026  2.4513 
  -5  -5   1  3.2952  2.4112 
  -5  -5   1  2.1700  2.0897 
   4   5  -1  532.86   28.73 
   4   5  -1  499.31   34.64 
   4   5  -1  395.87   34.28 
  -4  -5   1  494.69   25.04 
  -4  -5   1  513.25   29.50 
  -4  -5   1  524.26   23.91 
  -4  -5   1  516.07   28.65 
  -4  -5   1  495.29   27.21 
   3   5  -1  17.481   2.250 
   3   5  -1  15.431   2.371 
  -3  -5   1  18.405   1.728 
  -3  -5   1  14.065   1.728 
  -3  -5   1  19.169   1.929 
  -3  -5   1  20.133   1.728 
  -3  -5   1  17.561   1.447 
   2   5  -1  874.69   54.09 
   2   5  -1  833.70   37.41 
   2   5  -1  916.72   63.77 
  -2  -5   1  925.96   66.43 
  -2  -5   1  964.30   73.06 
  -2  -5   1  962.73   65.46 
  -2  -5   1  925.52   53.09 
  -2  -5   1  907.60   54.13 
   1   5  -1  34.520   2.250 
   1   5  -1  35.082   2.612 
   1   5  -1  27.768   2.049 
   1   5  -1  34.158   1.607 
  -1  -5   1  31.586   2.291 
  -1  -5   1  34.922   2.331 
  -1  -5   1  34.841   2.130 
  -1  -5   1  37.413   2.652 
  -1  -5   1  35.243   2.331 
  -1  -5   1  34.761   2.532 
   0   5  -1 1607.68   64.46 
   0   5  -1 1593.25   90.82 
   0   5  -1 1408.92   64.18 
   0   5  -1 1736.27  141.17 
   0  -5   1 1813.71   74.34 
   0  -5   1 1516.29   69.40 
   0  -5   1 1742.86  110.63 
   0  -5   1 1853.01  106.53 
   0  -5   1 1787.23  106.77 
   0   5  -1 1461.31  116.93 
   0   5  -1 1662.38  128.44 
   0  -5   1 1858.14  114.52 
   0  -5   1 1747.24   88.40 
  -1   5  -1  13.221   1.487 
  -1   5  -1  17.762   1.407 
  -1   5  -1  19.209   1.326 
  -1   5  -1  16.396   1.527 
   1  -5   1  16.918   1.487 
   1  -5   1  18.285   1.366 
   1  -5   1  15.753   2.090 
   1  -5   1  14.547   1.567 
   1  -5   1  16.356   1.125 
  -1   5  -1  9.1318  3.6502 
  -1   5  -1  10.482   3.167 
   1  -5   1  17.751   3.360 
   1  -5   1  10.809   2.886 
  -2   5  -1 1722.57   81.26 
  -2   5  -1 1670.73  134.06 
  -2   5  -1 1623.03   97.65 
  -2   5  -1 1587.14  108.10 
   2  -5   1 1817.16  110.27 
   2  -5   1 1882.11  175.73 
   2  -5   1 1830.35  105.77 
   2  -5   1 1794.74  102.07 
   2  -5   1 1796.27   81.62 
   2  -5   1 1678.16   90.06 
   2  -5   1 1738.48   67.87 
  -2   5  -1 1658.04   83.99 
  -2   5  -1 1632.94   83.53 
   2  -5   1 1764.75   78.62 
  -3   5  -1  3.1345  0.8439 
  -3   5  -1  2.8532  0.9645 
  -3   5  -1  2.6523  1.2859 
   3  -5   1  2.0495  0.9645 
   3  -5   1  3.5765  1.0046 
   3  -5   1  2.6925  1.0850 
   3  -5   1  3.0541  1.4869 
   3  -5   1  2.6121  0.9243 
   3  -5   1  3.2551  1.2056 
   3  -5   1  1.9691  1.1654 
   3  -5   1  3.5364  0.9243 
   3  -5   1  1.5271  1.0850 
  -4   5  -1  117.58    6.19 
  -4   5  -1  124.98    6.31 
  -4   5  -1  131.57    5.91 
   4  -5   1  122.33    8.96 
   4  -5   1  118.27    6.35 
   4  -5   1  134.02    6.47 
   4  -5   1  132.29    8.08 
   4  -5   1  123.61    5.99 
   4  -5   1  117.50    5.99 
   4  -5   1  124.01    6.91 
   4  -5   1  118.43    6.07 
   4  -5   1  115.09    5.38 
  -5   5  -1  0.8037  1.3261 
  -5   5  -1  1.6074  1.4869 
   5  -5   1  1.4065  1.5271 
   5  -5   1  -1.728   2.652 
   5  -5   1  2.4112  1.6476 
   5  -5   1 -0.4019  1.3261 
  -6   5  -1  9.5240  1.9691 
  -6   5  -1  6.7110  1.6074 
   6  -5   1  5.2643  1.7682 
   6  -5   1  6.7512  3.8578 
  -7   5  -1  15.954   2.813 
  -7   5  -1  16.074   2.773 
   7  -5   1  13.784   2.773 
   7  -5   1  18.043   4.300 
  -8   5  -1  12.940   2.974 
  -8   5  -1  21.901   3.978 
   8  -5   1  14.869   5.988 
   7   4  -1  18.928   5.505 
   7   4  -1  14.507   4.461 
  -7  -4   1  14.065   4.019 
  -7  -4   1  20.776   3.617 
  -7  -4   1  16.758   3.737 
   6   4  -1  73.902   6.510 
   6   4  -1  67.512   5.827 
   6   4  -1  75.308   7.475 
  -6  -4   1  69.401   4.742 
  -6  -4   1  73.098   5.787 
  -6  -4   1  77.197   5.023 
   5   4  -1  160.34    9.24 
   5   4  -1  147.64   10.05 
   5   4  -1  153.99   11.01 
  -5  -4   1  167.66    8.04 
  -5  -4   1  153.31    5.67 
  -5  -4   1  151.50    9.08 
  -5  -4   1  155.88    8.44 
   4   4  -1  88.570   6.189 
   4   4  -1  88.730   5.465 
   4   4  -1  88.771   5.747 
  -4  -4   1  92.628   5.345 
  -4  -4   1  91.222   4.420 
  -4  -4   1  90.057   4.742 
  -4  -4   1  89.735   5.546 
  -4  -4   1  90.820   4.300 
   3   4  -1  478.45   35.24 
   3   4  -1  442.49   32.47 
   3   4  -1  477.37   26.60 
   3   4  -1  466.44   28.97 
  -3  -4   1  493.20   26.36 
  -3  -4   1  483.19   23.23 
  -3  -4   1  490.15   30.30 
  -3  -4   1  467.68   21.70 
  -3  -4   1  503.05   28.25 
  -3  -4   1  488.62   29.38 
   2   4  -1  63.453   4.822 
   2   4  -1  65.222   3.416 
   2   4  -1  64.820   4.179 
   2   4  -1  66.146   4.662 
  -2  -4   1  70.607   3.536 
  -2  -4   1  69.280   3.898 
  -2  -4   1  71.370   3.376 
  -2  -4   1  69.522   4.220 
  -2  -4   1  67.673   3.938 
   1   4  -1  683.40   42.15 
   1   4  -1  587.56   24.96 
   1   4  -1  664.11   59.72 
   1   4  -1  618.66   26.40 
   1   4  -1  684.12   43.96 
  -1  -4   1  696.94   42.88 
  -1  -4   1  564.29   25.36 
  -1  -4   1  652.50   28.17 
  -1  -4   1  666.60   35.32 
  -1  -4   1  704.62   44.00 
   1   4  -1  694.75   58.11 
   1   4  -1  685.45   59.78 
  -1  -4   1  715.85   47.45 
  -1  -4   1  709.51   41.58 
   0   4  -1  68.637   3.416 
   0   4  -1  65.101   4.340 
   0   4  -1  71.732   5.827 
   0  -4   1  78.282   4.340 
   0  -4   1  68.557   3.175 
   0  -4   1  71.893   4.099 
   0  -4   1  64.016   2.773 
   0  -4   1  72.134   3.858 
   0   4  -1  58.209   6.471 
   0  -4   1  76.087   6.195 
   0  -4   1  75.183   6.254 
  -1   4  -1  197.39    9.97 
  -1   4  -1  210.29   14.51 
  -1   4  -1  207.84   13.10 
  -1   4  -1  195.30    9.85 
   1  -4   1  222.83   10.81 
   1  -4   1  230.43   12.34 
   1  -4   1  234.69   13.14 
   1  -4   1  210.94    8.00 
   1  -4   1  215.07   11.94 
   1  -4   1  234.85   12.78 
  -1   4  -1  200.75   13.63 
  -1   4  -1  206.13   13.88 
   1  -4   1  221.05   11.64 
   1  -4   1  227.42   12.19 
  -2   4  -1  266.27   16.48 
  -2   4  -1  253.73   11.73 
  -2   4  -1  259.76   12.78 
  -2   4  -1  274.15   13.18 
   2  -4   1  279.21   10.77 
   2  -4   1  290.70   15.47 
   2  -4   1  260.20   13.42 
   2  -4   1  265.63   12.26 
   2  -4   1  265.99   14.95 
   2  -4   1  293.64   10.37 
   2  -4   1  285.36   15.47 
  -2   4  -1  238.57   11.24 
  -2   4  -1  251.48   11.44 
   2  -4   1  237.22   10.76 
  -3   4  -1  495.25   27.53 
  -3   4  -1  497.54   21.06 
  -3   4  -1  472.95   24.47 
   3  -4   1  503.89   22.06 
   3  -4   1  498.99   43.36 
   3  -4   1  495.09   24.75 
   3  -4   1  455.63   25.56 
   3  -4   1  502.81   23.95 
   3  -4   1  481.87   23.79 
   3  -4   1  434.13   23.31 
   3  -4   1  545.00   25.16 
   3  -4   1  507.31   23.71 
  -4   4  -1  183.45    8.52 
  -4   4  -1  163.80    8.60 
  -4   4  -1  188.95    8.76 
   4  -4   1  189.84    8.68 
   4  -4   1  172.96    8.40 
   4  -4   1  185.18    9.60 
   4  -4   1  180.07    8.16 
   4  -4   1  178.55    8.84 
   4  -4   1  186.38    8.92 
   4  -4   1  178.34   11.37 
   4  -4   1  179.07    8.32 
  -5   4  -1  193.29    9.40 
  -5   4  -1  201.57    9.40 
   5  -4   1  200.61   12.74 
   5  -4   1  186.06   10.49 
   5  -4   1  185.78    8.32 
   5  -4   1  188.35    8.76 
  -6   4  -1  135.79    7.03 
  -6   4  -1  142.46    8.24 
   6  -4   1  136.55   11.41 
   6  -4   1  132.81    8.36 
  -7   4  -1  8.8811  2.8934 
  -7   4  -1  10.810   2.331 
   7  -4   1  10.328   4.702 
   7  -4   1  10.649   2.492 
  -8   4  -1  14.467   3.014 
  -8   4  -1  12.176   3.295 
   8  -4   1  8.3988  5.7466 
   8   3  -1  -2.130   5.305 
   8   3  -1  3.9784  5.9877 
  -8  -3   1  1.0046  3.7373 
  -8  -3   1  -3.858   3.978 
   7   3  -1  101.71    9.16 
   7   3  -1  91.021   8.198 
  -7  -3   1  102.27    7.19 
  -7  -3   1  98.214   6.550 
  -7  -3   1  92.910   6.430 
   6   3  -1 -0.8439  3.6569 
   6   3  -1  8.1979  3.1345 
   6   3  -1  6.7512  2.6121 
  -6  -3   1  2.9336  2.3308 
  -6  -3   1  8.6400  2.4513 
  -6  -3   1  4.9830  2.5317 
   5   3  -1  365.13   23.55 
   5   3  -1  371.92   23.75 
   5   3  -1  377.95   20.37 
  -5  -3   1  380.64   20.09 
  -5  -3   1  362.48   18.93 
  -5  -3   1  353.88   18.65 
   4   3  -1  93.673   5.505 
   4   3  -1  91.463   6.269 
   4   3  -1  100.71    6.59 
  -4  -3   1  100.10    5.43 
  -4  -3   1  105.65    5.91 
  -4  -3   1  94.196   5.948 
  -4  -3   1  96.486   4.019 
  -4  -3   1  88.007   4.139 
  -4  -3   1  89.373   5.144 
   3   3  -1  642.01   33.56 
   3   3  -1  617.50   41.99 
   3   3  -1  596.60   46.29 
   3   3  -1  603.95   35.81 
   3   3  -1  596.12   38.82 
  -3  -3   1  642.37   32.59 
  -3  -3   1  591.17   31.99 
  -3  -3   1  597.04   33.47 
  -3  -3   1  630.44   37.45 
  -3  -3   1  617.78   35.48 
  -3  -3   1  622.72   32.95 
   2   3  -1  503.13   28.89 
   2   3  -1  481.87   31.22 
   2   3  -1  494.17   37.21 
   2   3  -1  521.21   38.06 
   2   3  -1  497.38   24.92 
  -2  -3   1  522.58   31.18 
  -2  -3   1  527.16   25.72 
  -2  -3   1  539.21   29.74 
  -2  -3   1  515.18   25.16 
  -2  -3   1  479.42   19.89 
  -2  -3   1  545.36   35.32 
   2   3  -1  498.23   36.24 
   2   3  -1  509.81   36.98 
  -2  -3   1  511.91   28.53 
  -2  -3   1  537.22   40.85 
   1   3  -1  669.70   43.44 
   1   3  -1  573.65   31.59 
   1   3  -1  663.35   43.36 
   1   3  -1  621.03   28.53 
  -1  -3   1  683.68   25.56 
  -1  -3   1  695.14   33.60 
  -1  -3   1  660.90   38.90 
  -1  -3   1  589.04   34.92 
  -1  -3   1  709.96   44.16 
  -1  -3   1  707.47   34.16 
   1   3  -1  614.32   53.40 
   1   3  -1  661.74   50.96 
  -1  -3   1  684.14   38.60 
  -1  -3   1  688.92   55.98 
   0   3  -1  37.132   2.934 
   0   3  -1  33.997   1.849 
   0   3  -1  36.047   1.969 
   0   3  -1  36.650   2.532 
   0  -3   1  42.155   2.170 
   0  -3   1  38.297   1.929 
   0  -3   1  33.354   1.567 
   0  -3   1  34.600   1.567 
   0  -3   1  34.479   1.929 
   0   3  -1  26.622   3.691 
   0  -3   1  31.507   3.608 
   0  -3   1  36.987   3.899 
  -1   3  -1  19.892   1.045 
  -1   3  -1  18.686   1.165 
  -1   3  -1  17.642   1.366 
  -1   3  -1  18.043   1.246 
   1  -3   1  17.360   1.125 
   1  -3   1  20.696   1.206 
   1  -3   1  18.847   1.005 
   1  -3   1  22.464   1.326 
   1  -3   1  18.807   1.085 
  -1   3  -1  14.538   1.749 
  -1   3  -1  14.202   1.780 
   1  -3   1  14.264   1.797 
   1  -3   1  20.006   2.029 
  -2   3  -1  237.10   13.54 
  -2   3  -1  225.76   11.17 
  -2   3  -1  233.96   10.89 
   2  -3   1  237.38   10.73 
   2  -3   1  235.81   13.02 
   2  -3   1  240.75   10.01 
   2  -3   1  253.33   10.05 
   2  -3   1  262.78   13.46 
   2  -3   1  196.19   11.49 
   2  -3   1  227.61   10.81 
   2  -3   1  238.46   13.38 
  -3   3  -1  730.90   36.49 
  -3   3  -1  738.25   40.39 
  -3   3  -1  734.32   34.00 
  -3   3  -1  700.76   40.15 
  -3   3  -1  700.16   33.92 
   3  -3   1  851.46   69.64 
   3  -3   1  737.17   35.28 
   3  -3   1  768.51   32.51 
   3  -3   1  815.01   43.20 
   3  -3   1  757.66   40.83 
   3  -3   1  686.90   35.04 
   3  -3   1  754.81   32.47 
   3  -3   1  657.92   33.64 
  -3   3  -1  756.03   41.21 
  -3   3  -1  753.31   40.32 
   3  -3   1  753.64   37.08 
   3  -3   1  730.95   37.51 
  -4   3  -1  148.37    7.68 
  -4   3  -1  144.07    8.48 
  -4   3  -1  150.30    7.39 
   4  -3   1  158.13   11.85 
   4  -3   1  140.37    6.07 
   4  -3   1  150.86    6.51 
   4  -3   1  158.85    8.56 
   4  -3   1  158.17    7.47 
   4  -3   1  141.66    6.75 
   4  -3   1  136.59    6.95 
  -5   3  -1  127.07    8.32 
  -5   3  -1  130.64    7.39 
  -5   3  -1  131.69    7.68 
   5  -3   1  131.41    8.60 
   5  -3   1  120.44    6.55 
   5  -3   1  121.16    5.95 
   5  -3   1  132.53    7.51 
   5  -3   1  117.46    6.35 
  -6   3  -1  117.70    6.87 
  -6   3  -1  133.22    7.23 
   6  -3   1  116.38    8.12 
   6  -3   1  113.57    8.40 
  -7   3  -1  72.455   4.501 
  -7   3  -1  67.673   4.822 
   7  -3   1  57.144   5.385 
   7  -3   1  56.984   6.108 
  -8   3  -1  15.150   3.014 
  -8   3  -1  12.980   3.054 
   8  -3   1  21.499   6.510 
   8   2  -1  29.095   6.510 
   8   2  -1  35.404   7.515 
  -8  -2   1  30.742   4.581 
  -8  -2   1  40.105   4.059 
   7   2  -1 -0.2009  5.3447 
  -7  -2   1  0.2813  2.5317 
  -7  -2   1  6.1484  2.6523 
   6   2  -1  144.47    9.12 
   6   2  -1  145.03   10.09 
  -6  -2   1  154.03    8.72 
  -6  -2   1  157.81    8.72 
  -6  -2   1  153.51    8.44 
   5   2  -1  57.024   4.220 
   5   2  -1  45.571   3.577 
  -5  -2   1  49.710   3.014 
  -5  -2   1  43.361   4.019 
  -5  -2   1  40.588   3.255 
  -5  -2   1  48.102   3.094 
   4   2  -1  545.28   30.18 
   4   2  -1  580.32   35.85 
  -4  -2   1  510.40   18.57 
  -4  -2   1  503.09   34.32 
  -4  -2   1  542.55   31.71 
  -4  -2   1  563.77   21.74 
  -4  -2   1  557.34   28.89 
  -4  -2   1  558.50   22.79 
  -4  -2   1  550.75   26.20 
   3   2  -1  10.006   1.407 
   3   2  -1  11.895   1.688 
   3   2  -1  8.3185  1.1252 
   3   2  -1  10.087   1.487 
  -3  -2   1  8.9614  0.8841 
  -3  -2   1  9.4035  1.1252 
  -3  -2   1  8.8007  0.9243 
   2   2  -1  163.48    7.07 
   2   2  -1  136.75    7.84 
   2   2  -1  155.56    9.85 
   2   2  -1  155.92   10.45 
   2   2  -1  142.14    8.36 
  -2  -2   1  168.50    8.36 
  -2  -2   1  163.44    6.95 
  -2  -2   1  141.74    6.83 
  -2  -2   1  154.80    7.03 
  -2  -2   1  145.15    7.51 
  -2  -2   1  161.19   10.01 
   2   2  -1  135.38   13.37 
   2   2  -1  143.58   10.63 
  -2  -2   1  160.06   15.92 
  -2  -2   1  159.13   10.43 
   1   2  -1  195.46   11.29 
   1   2  -1  194.46   14.02 
   1   2  -1  203.58    9.12 
   1   2  -1  192.61   10.97 
  -1  -2   1  202.50   10.45 
  -1  -2   1  209.73    8.64 
  -1  -2   1  211.62   13.14 
  -1  -2   1  210.41    9.40 
  -1  -2   1  201.69    9.93 
  -1  -2   1  214.83   11.69 
  -1  -2   1  204.79   10.09 
   1   2  -1  192.20   16.48 
   1   2  -1  189.63   13.69 
  -1  -2   1  213.85   14.60 
  -1  -2   1  202.00   16.38 
   0   2  -1 1714.93   94.28 
   0   2  -1 2050.00  161.71 
   0   2  -1 1807.80   86.52 
   0   2  -1 1881.30  106.65 
   0  -2   1 1974.13  124.09 
   0  -2   1 1679.37   74.91 
   0  -2   1 2059.45  130.60 
   0  -2   1 1851.56   87.16 
   0  -2   1 1731.13   84.19 
   0   2  -1 1771.53  122.44 
   0  -2   1 1866.36  111.75 
   0  -2   1 1730.88  120.08 
  -1   2  -1  53.487   3.255 
  -1   2  -1  55.818   2.532 
  -1   2  -1  55.376   3.175 
  -1   2  -1  56.984   3.014 
  -1   2  -1  49.951   2.532 
   1  -2   1  51.237   2.612 
   1  -2   1  59.073   3.215 
   1  -2   1  55.416   2.893 
   1  -2   1  57.988   3.215 
   1  -2   1  54.211   2.612 
   1  -2   1  55.778   3.295 
   1  -2   1  52.282   2.371 
  -1   2  -1  46.285   2.830 
  -1   2  -1  49.924   2.917 
   1  -2   1  48.317   2.875 
   1  -2   1  45.826   2.799 
  -2   2  -1  35.685   1.768 
  -2   2  -1  34.359   1.607 
  -2   2  -1  35.685   2.130 
  -2   2  -1  38.458   1.849 
  -2   2  -1  33.314   1.889 
   2  -2   1  35.846   1.688 
   2  -2   1  40.226   1.889 
   2  -2   1  38.659   1.969 
   2  -2   1  34.238   2.130 
   2  -2   1  36.650   2.210 
  -2   2  -1  29.688   2.295 
  -2   2  -1  29.646   2.516 
   2  -2   1  30.954   2.446 
   2  -2   1  32.365   2.225 
  -3   2  -1  0.9243  0.7635 
  -3   2  -1  1.8887  0.8037 
  -3   2  -1  1.4467  0.8841 
   3  -2   1  2.2504  1.3261 
   3  -2   1  0.8037  0.7635 
   3  -2   1  1.8887  0.6028 
   3  -2   1  1.7682  0.5224 
   3  -2   1  0.0000  0.8037 
   3  -2   1  0.8439  0.7233 
   3  -2   1  0.3215  0.8037 
  -3   2  -1  0.3823  2.1188 
  -3   2  -1  0.9929  2.2823 
   3  -2   1  -4.325   2.638 
  -4   2  -1  320.76   14.31 
  -4   2  -1  350.38   17.16 
  -4   2  -1  305.41   18.65 
   4  -2   1  366.70   21.22 
   4  -2   1  360.11   25.56 
   4  -2   1  347.13   15.75 
   4  -2   1  361.19   17.64 
   4  -2   1  348.05   17.40 
   4  -2   1  374.29   17.84 
   4  -2   1  346.32   13.34 
   4  -2   1  353.64   14.35 
  -5   2  -1  241.68   12.10 
  -5   2  -1  229.70   13.34 
  -5   2  -1  220.70   14.63 
   5  -2   1  235.89   14.19 
   5  -2   1  252.33   14.23 
   5  -2   1  228.74    9.97 
   5  -2   1  229.78   12.58 
  -6   2  -1  138.48    7.84 
  -6   2  -1  137.07    7.55 
   6  -2   1  138.88   10.61 
   6  -2   1  125.34    8.72 
  -7   2  -1  84.631   5.747 
  -7   2  -1  87.444   5.988 
   7  -2   1  88.248   7.756 
   7  -2   1  78.081   6.631 
  -8   2  -1  5.5858  3.5765 
  -8   2  -1  4.9830  2.9336 
   8  -2   1  1.3663  5.9877 
   8   1  -1  57.988   8.278 
  -8  -1   1  54.050   4.943 
  -8  -1   1  47.540   4.581 
   7   1  -1  65.141   7.555 
  -7  -1   1  62.851   4.581 
  -7  -1   1  67.753   5.546 
   6   1  -1  37.855   3.295 
   6   1  -1  46.776   5.264 
  -6  -1   1  45.812   3.657 
  -6  -1   1  46.817   3.657 
   5   1  -1  426.85   21.30 
   5   1  -1  433.89   23.23 
  -5  -1   1  426.41   21.02 
  -5  -1   1  449.04   21.70 
  -5  -1   1  408.45   27.29 
  -5  -1   1  435.86   19.45 
   4   1  -1  537.53   26.80 
   4   1  -1  562.12   31.71 
   4   1  -1  506.02   34.96 
  -4  -1   1  509.68   16.56 
  -4  -1   1  478.77   25.40 
  -4  -1   1  504.21   27.97 
  -4  -1   1  543.59   18.53 
  -4  -1   1  492.56   27.45 
  -4  -1   1  527.24   25.40 
  -4  -1   1  508.07   16.52 
   3   1  -1  65.181   3.617 
   3   1  -1  66.668   4.300 
   3   1  -1  63.896   3.295 
   3   1  -1  64.860   3.215 
   3   1  -1  70.205   4.099 
  -3  -1   1  64.338   3.215 
  -3  -1   1  72.817   5.104 
  -3  -1   1  61.484   3.255 
  -3  -1   1  62.409   2.250 
  -3  -1   1  66.467   3.054 
  -3  -1   1  59.555   3.255 
   3   1  -1  58.315   6.897 
   3   1  -1  56.042   6.979 
  -3  -1   1  60.376   6.599 
  -3  -1   1  70.615   7.304 
   2   1  -1  1.6878  0.6028 
   2   1  -1  1.4467  1.0448 
   2   1  -1  1.1252  0.6028 
   2   1  -1  1.0448  0.5224 
   2   1  -1  1.6476  0.6430 
  -2  -1   1  1.2056  0.5626 
  -2  -1   1  0.9645  0.6028 
  -2  -1   1  1.0448  0.4420 
  -2  -1   1  1.0448  0.5224 
  -2  -1   1  2.1299  0.9243 
   2   1  -1  2.8772  2.8827 
   2   1  -1 -0.2778  2.3979 
  -2  -1   1  2.9491  3.0893 
  -2  -1   1  0.7594  2.2291 
   1   1  -1 1804.47  104.04 
   1   1  -1 1756.48  101.75 
   1   1  -1 1857.87  101.19 
   1   1  -1 1964.08  112.52 
   1   1  -1 1927.76   83.22 
  -1  -1   1 1852.17   91.99 
  -1  -1   1 1928.88  103.40 
  -1  -1   1 1801.89   87.61 
  -1  -1   1 1820.46   91.62 
  -1  -1   1 1873.79   86.52 
   1   1  -1 1871.46  140.19 
   1   1  -1 1996.16  133.52 
  -1  -1   1 1939.56  122.37 
  -1  -1   1 1920.53  127.50 
   0   1  -1  61.886   3.014 
   0   1  -1  64.217   4.139 
   0   1  -1  67.713   3.858 
   0   1  -1  65.423   3.335 
   0  -1   1  67.191   3.858 
   0  -1   1  69.160   4.220 
   0  -1   1  57.024   3.335 
   0  -1   1  63.212   3.456 
   0  -1   1  60.640   2.250 
   0   1  -1  57.950   4.196 
   0  -1   1  56.777   4.570 
   0  -1   1  60.215   4.087 
  -1   1  -1  659.65   31.95 
  -1   1  -1  726.84   40.99 
  -1   1  -1  690.59   33.15 
  -1   1  -1  601.10   35.60 
   1  -1   1  652.66   32.23 
   1  -1   1  744.64   39.46 
   1  -1   1  699.96   30.46 
   1  -1   1  743.68   38.82 
   1  -1   1  592.26   39.38 
  -1   1  -1  725.06   42.01 
  -1   1  -1  692.86   39.38 
   1  -1   1  727.86   40.02 
   1  -1   1  707.60   38.65 
  -2   1  -1  1.6476  0.6430 
  -2   1  -1  3.1345  0.4822 
  -2   1  -1  2.1700  0.5626 
   2  -1   1  3.5765  0.4420 
   2  -1   1  3.1345  0.5224 
   2  -1   1  2.8532  0.5626 
   2  -1   1  4.1391  0.6028 
   2  -1   1  2.2102  0.6430 
   2  -1   1  3.0139  0.4822 
  -2   1  -1  0.4884  1.3818 
  -2   1  -1  5.2112  2.0353 
   2  -1   1  0.0839  1.3078 
   2  -1   1  2.2589  1.8142 
  -3   1  -1  475.28   27.57 
  -3   1  -1  459.65   24.23 
  -3   1  -1  518.08   27.97 
   3  -1   1  536.92   19.49 
   3  -1   1  544.20   19.41 
   3  -1   1  531.82   22.42 
   3  -1   1  559.07   26.32 
   3  -1   1  539.50   31.79 
   3  -1   1  557.02   28.09 
   3  -1   1  490.11   24.51 
  -3   1  -1  544.75   32.58 
  -3   1  -1  534.62   34.13 
   3  -1   1  542.37   35.13 
   3  -1   1  555.83   30.72 
  -4   1  -1 -0.0402  0.9645 
  -4   1  -1  0.4420  1.2458 
  -4   1  -1  2.6523  1.0046 
   4  -1   1  0.4019  1.2056 
   4  -1   1 -0.8037  1.5271 
   4  -1   1  0.6028  1.0850 
   4  -1   1  0.4822  1.0046 
   4  -1   1  0.4019  0.9645 
  -5   1  -1  139.89    7.76 
  -5   1  -1  135.35    8.32 
  -5   1  -1  144.71    7.27 
   5  -1   1  137.36    8.00 
   5  -1   1  144.55    8.48 
   5  -1   1  137.88    9.20 
  -6   1  -1  0.7233  1.6074 
  -6   1  -1 -0.2009  1.6074 
   6  -1   1  -1.085   1.929 
   6  -1   1  2.2102  2.9738 
  -7   1  -1  71.611   5.184 
  -7   1  -1  70.124   5.184 
   7  -1   1  62.730   6.028 
   7  -1   1  76.434   6.872 
  -8   1  -1  9.3633  3.1345 
  -8   1  -1  2.1700  3.7373 
   8  -1   1  -3.094   6.751 
   8   0  -1  14.427   6.711 
  -8   0   1  28.733   4.461 
  -8   0   1  19.209   3.777 
   7   0  -1  118.43    9.28 
  -7   0   1  121.20    7.03 
  -7   0   1  114.97    7.64 
   6   0  -1  24.594   4.019 
   6   0  -1  21.741   2.492 
  -6   0   1  23.469   2.331 
  -6   0   1  21.138   2.210 
  -6   0   1  20.173   3.295 
   5   0  -1  76.554   3.938 
   5   0  -1  74.263   5.345 
  -5   0   1  76.996   3.938 
  -5   0   1  76.072   4.742 
  -5   0   1  72.696   4.782 
   4   0  -1 1378.98   64.74 
   4   0  -1 1446.81   78.32 
   4   0  -1 1512.19   89.94 
  -4   0   1 1363.27   45.29 
  -4   0   1 1406.67   71.25 
  -4   0   1 1400.40   43.56 
  -4   0   1 1343.57   68.40 
  -4   0   1 1440.50   65.99 
   3   0  -1  602.15   32.19 
   3   0  -1  610.42   36.29 
   3   0  -1  637.95   30.02 
   3   0  -1  567.87   25.24 
   3   0  -1  617.25   30.30 
  -3   0   1  541.67   25.48 
  -3   0   1  656.96   42.76 
  -3   0   1  552.03   20.78 
  -3   0   1  585.39   26.36 
  -3   0   1  560.75   24.11 
  -3   0   1  556.98   26.88 
  -3   0   1  546.49   20.13 
   3   0  -1  571.23   36.07 
   3   0  -1  561.98   39.03 
  -3   0   1  598.64   37.00 
   2   0  -1  591.54   33.11 
   2   0  -1  591.42   24.63 
   2   0  -1  592.58   34.28 
   2   0  -1  632.28   29.66 
   2   0  -1  590.09   34.16 
   2   0  -1  558.54   21.42 
  -2   0   1  528.52   21.90 
  -2   0   1  570.16   25.08 
  -2   0   1  587.84   31.30 
  -2   0   1  661.86   44.24 
  -2   0   1  553.84   27.29 
  -2   0   1  593.67   28.37 
   2   0  -1  610.03   33.40 
   2   0  -1  619.93   36.94 
  -2   0   1  604.96   34.93 
   1   0  -1 1818.45   79.17 
   1   0  -1 1925.26   78.28 
   1   0  -1 1954.80   88.41 
   1   0  -1 2005.92   98.58 
   1   0  -1 1821.87   86.36 
   1   0  -1 1931.81   94.40 
  -1   0   1 1846.46  100.87 
  -1   0   1 1812.58   96.00 
  -1   0   1 2042.65  112.36 
  -1   0   1 1953.03  101.15 
  -1   0   1 1807.28   71.85 
   1   0  -1 1884.53  100.22 
   1   0  -1 1832.98  114.51 
  -1   0   1 1904.99  114.64 
  -1   0   1 1829.24  103.66 
   0   0  -1  486.29   21.74 
   0   0  -1  480.34   24.88 
   0   0  -1  520.33   33.19 
   0   0  -1  554.89   28.65 
   0   0  -1  545.64   26.12 
   0   0   1  556.61   28.53 
   0   0   1  523.82   29.46 
   0   0   1  532.38   34.40 
   0   0   1  536.80   24.55 
   0   0   1  553.28   23.27 
   0   0  -1  563.44   32.28 
   0   0  -1  543.15   34.85 
   0   0   1  541.37   36.15 
   0   0   1  538.44   33.37 
  -1   0  -1  62.610   3.376 
  -1   0  -1  59.555   2.934 
  -1   0  -1  57.426   3.577 
   1   0   1  70.808   3.577 
   1   0   1  63.654   3.255 
   1   0   1  61.203   2.813 
   1   0   1  67.512   3.215 
   1   0   1  67.432   3.617 
  -1   0  -1  63.154   4.470 
   1   0   1  69.487   4.688 
   1   0   1  65.176   4.277 
  -2   0  -1  630.28   32.35 
  -2   0  -1  652.94   30.94 
  -2   0  -1  730.62   41.95 
  -2   0  -1  683.72   34.72 
   2   0   1  708.20   38.30 
   2   0   1  719.81   36.09 
   2   0   1  632.89   21.90 
   2   0   1  667.05   34.56 
  -2   0  -1  735.94   43.85 
   2   0   1  751.90   45.71 
   2   0   1  729.90   50.15 
  -3   0  -1  196.67   10.57 
  -3   0  -1  191.00    9.12 
  -3   0  -1  193.94   10.29 
  -3   0  -1  198.12    9.12 
   3   0   1  208.16   10.49 
   3   0   1  198.84   10.17 
   3   0   1  195.26    9.08 
  -3   0  -1  220.75   16.04 
  -3   0  -1  206.98   13.79 
   3   0   1  212.70   15.18 
   3   0   1  216.86   15.69 
  -4   0  -1  65.905   3.617 
  -4   0  -1  64.137   4.260 
  -4   0  -1  67.311   3.898 
  -4   0  -1  65.824   3.536 
   4   0   1  70.808   5.505 
   4   0   1  68.597   3.818 
   4   0   1  63.735   3.898 
  -5   0  -1  11.734   1.889 
  -5   0  -1  16.396   1.728 
  -5   0  -1  11.533   2.130 
   5   0   1  13.543   2.090 
   5   0   1  11.614   3.376 
   5   0   1  15.753   1.808 
  -6   0  -1  19.490   2.331 
  -6   0  -1  18.566   2.451 
   6   0   1  22.303   4.420 
   6   0   1  17.481   2.572 
  -7   0  -1  17.200   3.094 
  -7   0  -1  13.342   2.773 
   7   0   1  9.6044  2.8532 
   7   0   1  8.9614  4.3803 
  -8   0  -1  11.694   3.335 
  -8   0  -1  10.689   4.581 
   8   0   1  7.6755  6.2288 
   8  -1  -1  63.574   7.515 
  -8   1   1  58.993   5.385 
  -8   1   1  66.186   5.626 
   7  -1  -1  7.8362  4.8625 
  -7   1   1  9.6848  2.7326 
  -7   1   1  10.167   2.411 
   6  -1  -1  117.58    8.72 
   6  -1  -1  114.97    7.43 
  -6   1   1  124.90    6.91 
  -6   1   1  120.44    6.79 
  -6   1   1  102.55    7.47 
   5  -1  -1  64.378   3.858 
   5  -1  -1  70.687   5.305 
  -5   1   1  61.806   4.019 
  -5   1   1  69.280   2.532 
  -5   1   1  66.789   4.059 
  -5   1   1  65.503   3.657 
   4  -1  -1  378.87   14.23 
   4  -1  -1  376.14   22.54 
   4  -1  -1  350.18   16.44 
   4  -1  -1  396.15   18.65 
   4  -1  -1  379.88   22.75 
   4  -1  -1  377.91   18.93 
  -4   1   1  345.16   16.48 
  -4   1   1  360.87   17.96 
  -4   1   1  349.70   15.31 
  -4   1   1  358.78   12.34 
  -4   1   1  340.45   12.86 
   3  -1  -1  180.56   10.05 
   3  -1  -1  164.04    5.75 
   3  -1  -1  164.20    7.55 
   3  -1  -1  169.22   10.13 
   3  -1  -1  168.22   10.61 
   3  -1  -1  177.50    8.32 
  -3   1   1  162.35    6.43 
  -3   1   1  161.71    8.12 
  -3   1   1  156.20    7.15 
  -3   1   1  156.64    8.04 
  -3   1   1  158.29    6.03 
  -3   1   1  176.66   11.25 
   3  -1  -1  156.46   11.26 
   3  -1  -1  142.71   10.32 
  -3   1   1  172.22   11.66 
  -3   1   1  155.34   11.82 
   2  -1  -1  767.67   38.86 
   2  -1  -1  627.70   29.34 
   2  -1  -1  751.48   34.52 
   2  -1  -1  801.55   48.10 
   2  -1  -1  703.21   27.57 
  -2   1   1  640.52   33.60 
  -2   1   1  701.36   31.10 
  -2   1   1  714.83   32.39 
  -2   1   1  715.19   27.89 
  -2   1   1  675.60   27.89 
  -2   1   1  748.54   53.97 
   2  -1  -1  724.48   43.28 
   2  -1  -1  754.36   39.66 
  -2   1   1  712.54   42.29 
  -2   1   1  729.38   43.02 
   1  -1  -1  111.31    5.47 
   1  -1  -1  111.23    5.59 
   1  -1  -1  103.60    4.70 
   1  -1  -1  108.18    4.50 
  -1   1   1  107.14    5.59 
  -1   1   1  99.982   5.546 
  -1   1   1  102.59    4.22 
  -1   1   1  100.14    4.70 
   1  -1  -1  91.720   5.315 
   1  -1  -1  90.487   5.380 
  -1   1   1  87.220   5.237 
  -1   1   1  89.467   5.656 
   0  -1  -1 1329.03   72.01 
   0  -1  -1 1590.68  115.74 
   0  -1  -1 1268.63   68.40 
   0  -1  -1 1396.02   72.86 
   0  -1  -1 1309.22   73.02 
   0   1   1 1254.48   87.48 
   0   1   1 1297.56   79.49 
   0   1   1 1346.15   72.82 
   0   1   1 1385.45   93.43 
   0   1   1 1589.15  113.97 
   0  -1  -1 1553.76  110.35 
   0  -1  -1 1514.14   98.68 
   0   1   1 1525.08  111.21 
   0   1   1 1471.77   97.70 
  -1  -1  -1 1181.10   67.95 
  -1  -1  -1 1116.97   67.27 
  -1  -1  -1 1041.38   50.27 
  -1  -1  -1 1062.92   44.85 
  -1  -1  -1  981.94   46.13 
   1   1   1 1082.53   57.71 
   1   1   1 1159.56   71.69 
   1   1   1 1227.84   82.62 
   1   1   1 1200.11   74.99 
   1   1   1 1123.19   60.32 
  -1  -1  -1 1244.61   83.57 
  -1  -1  -1 1209.15   76.32 
   1   1   1 1219.65   93.17 
   1   1   1 1241.87   85.04 
  -2  -1  -1  131.93    6.43 
  -2  -1  -1  141.57    6.99 
  -2  -1  -1  138.36    6.87 
  -2  -1  -1  135.23    6.19 
  -2  -1  -1  125.34    4.62 
   2   1   1  138.28    5.91 
   2   1   1  127.99    6.75 
   2   1   1  147.60    8.84 
   2   1   1  142.98    6.55 
   2   1   1  137.40    7.96 
  -2  -1  -1  161.09   10.40 
  -2  -1  -1  146.49    9.49 
   2   1   1  124.75   10.21 
   2   1   1  153.08   10.95 
  -3  -1  -1  155.60    7.19 
  -3  -1  -1  165.36    8.20 
  -3  -1  -1  154.03    8.16 
  -3  -1  -1  157.57    7.35 
   3   1   1  161.23    9.00 
   3   1   1  172.56    9.81 
   3   1   1  160.78    8.44 
   3   1   1  171.79   12.18 
  -3  -1  -1  187.53   14.16 
  -3  -1  -1  153.56   10.84 
   3   1   1  138.78   12.15 
   3   1   1  168.73   15.69 
  -4  -1  -1  70.406   3.617 
  -4  -1  -1  68.879   3.697 
  -4  -1  -1  62.087   4.662 
  -4  -1  -1  68.437   4.019 
   4   1   1  71.008   5.586 
   4   1   1  66.186   3.898 
   4   1   1  67.593   3.978 
  -5  -1  -1  2.6121  1.4065 
  -5  -1  -1 -0.1607  1.2859 
  -5  -1  -1  0.7635  1.6476 
   5   1   1  -1.326   2.692 
   5   1   1  2.6925  1.8084 
  -6  -1  -1  55.296   4.019 
  -6  -1  -1  67.110   4.461 
   6   1   1  55.095   6.229 
   6   1   1  61.404   4.822 
  -7  -1  -1  18.767   3.175 
  -7  -1  -1  15.552   3.255 
   7   1   1  21.540   5.988 
   7   1   1  13.623   3.215 
  -8  -1  -1  5.9475  6.3494 
  -8  -1  -1  19.410   4.260 
   8   1   1  16.557   6.671 
   8  -2  -1  14.467   6.751 
  -8   2   1  4.7419  3.0541 
  -8   2   1  8.1979  3.0541 
   7  -2  -1  33.917   5.586 
  -7   2   1  35.042   3.134 
  -7   2   1  27.688   2.934 
   6  -2  -1  54.371   5.385 
   6  -2  -1  47.701   3.697 
  -6   2   1  46.776   3.657 
  -6   2   1  54.894   3.697 
  -6   2   1  52.885   2.331 
  -6   2   1  48.102   3.335 
   5  -2  -1  27.568   2.210 
   5  -2  -1  29.215   1.688 
   5  -2  -1  39.422   3.858 
  -5   2   1  29.778   2.572 
  -5   2   1  28.170   2.291 
  -5   2   1  30.099   2.331 
  -5   2   1  35.605   1.808 
   4  -2  -1  23.750   1.929 
   4  -2  -1  21.821   1.246 
   4  -2  -1  25.920   2.572 
   4  -2  -1  23.991   1.929 
   4  -2  -1  22.022   1.487 
   4  -2  -1  20.213   1.889 
  -4   2   1  23.308   1.728 
  -4   2   1  22.946   1.607 
  -4   2   1  23.027   1.527 
  -4   2   1  26.121   1.326 
  -4   2   1  22.504   1.286 
   3  -2  -1  224.88    8.40 
   3  -2  -1  221.42   11.90 
   3  -2  -1  221.26    8.20 
   3  -2  -1  233.16   14.51 
   3  -2  -1  193.66    8.84 
   3  -2  -1  242.48   11.45 
  -3   2   1  219.46    9.68 
  -3   2   1  205.79    8.64 
  -3   2   1  235.01   14.51 
  -3   2   1  230.39   10.17 
  -3   2   1  213.99    8.56 
   3  -2  -1  213.88   12.18 
   3  -2  -1  226.32   13.31 
  -3   2   1  217.81   12.77 
  -3   2   1  216.92   14.21 
   2  -2  -1  197.88   10.65 
   2  -2  -1  212.90    8.00 
   2  -2  -1  200.53    7.68 
   2  -2  -1  217.28    9.28 
   2  -2  -1  188.87    9.36 
   2  -2  -1  214.95   12.38 
   2  -2  -1  207.80    8.12 
  -2   2   1  198.56    9.60 
  -2   2   1  208.36   10.05 
  -2   2   1  212.62   15.47 
  -2   2   1  198.84    9.24 
   2  -2  -1  200.74   10.68 
   2  -2  -1  188.45   10.51 
  -2   2   1  199.11   10.80 
  -2   2   1  183.25   10.43 
   1  -2  -1 1212.05   67.47 
   1  -2  -1 1213.97   58.75 
   1  -2  -1 1231.13   58.35 
   1  -2  -1 1122.55   47.86 
   1  -2  -1 1114.72   45.49 
   1  -2  -1 1145.90   48.38 
  -1   2   1 1095.23   44.61 
  -1   2   1 1143.73   59.11 
  -1   2   1 1160.01   73.10 
  -1   2   1 1121.23   62.41 
   1  -2  -1 1162.66   66.39 
   1  -2  -1 1208.85   61.37 
  -1   2   1 1142.38   73.06 
  -1   2   1 1201.16   71.78 
   0  -2  -1  110.91    5.47 
   0  -2  -1  122.29    5.71 
   0  -2  -1  140.29    8.72 
   0  -2  -1  100.71    5.95 
   0  -2  -1  115.33    5.10 
   0   2   1  118.75   11.37 
   0   2   1  122.04    7.55 
   0   2   1  101.39    4.62 
   0   2   1  118.95    7.07 
   0   2   1  106.89    7.23 
   0   2   1  111.36    5.47 
   0  -2  -1  140.51    9.49 
   0  -2  -1  125.78    8.70 
   0   2   1  118.03    9.45 
   0   2   1  130.54   10.54 
  -1  -2  -1 3146.11  185.78 
  -1  -2  -1 3075.71  176.22 
  -1  -2  -1 2665.53  124.86 
  -1  -2  -1 2643.10  129.32 
  -1  -2  -1 2899.37  131.17 
   1   2   1 3224.11  189.44 
   1   2   1 3177.05  241.16 
   1   2   1 3116.41  204.35 
   1   2   1 2830.85  193.90 
   1   2   1 2896.03  204.47 
  -1  -2  -1 3047.55  179.35 
  -1  -2  -1 3250.18  215.74 
   1   2   1 3111.79  265.47 
   1   2   1 2989.50  288.86 
  -2  -2  -1  41.552   1.728 
  -2  -2  -1  39.141   2.170 
  -2  -2  -1  44.888   2.733 
  -2  -2  -1  39.422   1.768 
  -2  -2  -1  39.503   2.250 
   2   2   1  39.945   2.250 
   2   2   1  42.557   2.250 
   2   2   1  43.642   2.893 
   2   2   1  39.543   2.572 
   2   2   1  45.289   2.853 
  -2  -2  -1  37.798   5.116 
  -2  -2  -1  36.582   5.014 
   2   2   1  28.209   5.275 
   2   2   1  42.146   5.603 
  -3  -2  -1  44.204   3.416 
  -3  -2  -1  45.330   1.688 
  -3  -2  -1  49.308   2.411 
  -3  -2  -1  47.620   2.451 
  -3  -2  -1  45.973   2.612 
   3   2   1  47.540   2.853 
   3   2   1  46.093   2.974 
   3   2   1  49.670   4.019 
   3   2   1  49.509   2.813 
  -4  -2  -1  46.013   2.612 
  -4  -2  -1  44.687   2.733 
  -4  -2  -1  42.718   3.416 
  -4  -2  -1  49.188   2.733 
   4   2   1  54.693   3.697 
   4   2   1  48.464   3.054 
   4   2   1  48.424   3.938 
  -5  -2  -1  672.71   35.56 
  -5  -2  -1  671.35   32.67 
  -5  -2  -1  680.19   34.96 
   5   2   1  668.29   45.29 
   5   2   1  630.88   36.17 
  -6  -2  -1  0.5626  1.8887 
  -6  -2  -1 -0.6430  2.2906 
  -6  -2  -1 -0.3617  2.1700 
   6   2   1  -6.550   3.858 
   6   2   1  0.8841  2.1700 
  -7  -2  -1  23.790   3.335 
  -7  -2  -1  19.651   3.094 
   7   2   1  18.767   5.184 
   7   2   1  17.079   3.657 
  -8  -2  -1  14.829   4.943 
  -8  -2  -1  5.7868  4.3803 
   8   2   1  4.0588  8.3587 
   8  -3  -1  7.1129  5.9877 
  -8   3   1  9.8054  3.5765 
  -8   3   1  9.4437  3.2952 
   7  -3  -1  42.276   5.907 
  -7   3   1  56.702   4.179 
  -7   3   1  50.795   3.737 
   6  -3  -1  79.488   5.425 
   6  -3  -1  89.896   6.952 
  -6   3   1  92.186   5.465 
  -6   3   1  88.087   4.983 
  -6   3   1  97.491   4.099 
   5  -3  -1  42.436   2.612 
   5  -3  -1  49.509   4.099 
   5  -3  -1  43.682   2.773 
  -5   3   1  47.982   3.014 
  -5   3   1  47.861   2.170 
  -5   3   1  44.164   3.134 
   4  -3  -1  1.4869  0.7233 
   4  -3  -1  0.4420  1.2056 
   4  -3  -1  0.6832  0.7233 
   4  -3  -1  5.7466  2.1700 
   4  -3  -1 -0.5224  0.7635 
   4  -3  -1  1.1252  1.0850 
   4  -3  -1  0.6430  0.9243 
  -4   3   1  2.8130  0.9645 
  -4   3   1  0.9645  1.1654 
  -4   3   1  0.6832  0.8841 
  -4   3   1 -0.2009  0.8439 
   3  -3  -1  246.94   10.77 
   3  -3  -1  256.35   11.09 
   3  -3  -1  248.39   14.31 
   3  -3  -1  214.99   11.25 
   3  -3  -1  265.07   13.38 
   3  -3  -1  235.93    8.84 
   3  -3  -1  252.21    9.28 
  -3   3   1  232.72   11.05 
  -3   3   1  220.22   10.53 
  -3   3   1  249.03   15.91 
  -3   3   1  234.89   10.41 
   3  -3  -1  230.80   13.01 
   3  -3  -1  221.96   11.83 
  -3   3   1  226.36   12.80 
  -3   3   1  219.08   12.64 
   2  -3  -1  873.20   37.25 
   2  -3  -1  860.74   38.42 
   2  -3  -1  890.64   33.60 
   2  -3  -1  807.90   34.36 
   2  -3  -1  834.26   54.01 
   2  -3  -1  812.08   32.55 
  -2   3   1  841.61   39.74 
  -2   3   1  763.13   44.04 
  -2   3   1  857.45   75.19 
  -2   3   1  813.80   42.28 
  -2   3   1  745.57   35.69 
   2  -3  -1  739.58   36.76 
   2  -3  -1  800.65   37.26 
  -2   3   1  772.43   45.56 
  -2   3   1  720.32   38.12 
   1  -3  -1  16.798   1.125 
   1  -3  -1  17.481   1.085 
   1  -3  -1  18.244   1.125 
   1  -3  -1  17.642   0.764 
   1  -3  -1  16.396   1.286 
   1  -3  -1  15.431   1.005 
   1  -3  -1  17.280   0.884 
  -1   3   1  14.186   0.804 
  -1   3   1  13.703   1.045 
  -1   3   1  13.703   1.045 
  -1   3   1  13.985   0.723 
   1  -3  -1  15.427   1.986 
   1  -3  -1  14.838   2.101 
  -1   3   1  11.560   2.145 
  -1   3   1  12.953   1.991 
   0  -3  -1  186.02   11.13 
   0  -3  -1  156.44    7.64 
   0  -3  -1  173.08    8.96 
   0  -3  -1  159.06    6.75 
   0  -3  -1  140.21    6.39 
   0  -3  -1  145.63    7.39 
   0   3   1  146.44    5.99 
   0   3   1  141.33   10.49 
   0   3   1  156.77   12.66 
   0   3   1  152.95   10.13 
   0   3   1  156.36   10.45 
   0   3   1  151.18    6.31 
   0  -3  -1  188.67   11.77 
   0  -3  -1  158.37   11.00 
   0   3   1  154.77   12.13 
   0   3   1  156.25   13.88 
  -1  -3  -1  49.951   2.451 
  -1  -3  -1  53.367   2.331 
  -1  -3  -1  50.112   2.291 
  -1  -3  -1  52.925   3.175 
  -1  -3  -1  54.653   3.054 
   1   3   1  54.572   3.777 
   1   3   1  49.348   2.853 
   1   3   1  49.670   2.773 
   1   3   1  49.429   3.376 
   1   3   1  53.729   3.536 
   1   3   1  50.353   2.974 
  -1  -3  -1  51.148   5.870 
  -1  -3  -1  59.198   6.086 
   1   3   1  47.775   6.006 
   1   3   1  43.975   5.418 
  -2  -3  -1  193.01    8.28 
  -2  -3  -1  214.71    9.85 
  -2  -3  -1  214.87    8.56 
  -2  -3  -1  200.05    8.12 
  -2  -3  -1  200.73   10.65 
   2   3   1  207.28   14.27 
   2   3   1  193.13   12.26 
   2   3   1  212.26   12.78 
   2   3   1  213.87   12.06 
  -2  -3  -1  237.54   15.52 
  -2  -3  -1  210.98   14.44 
   2   3   1  200.16   16.26 
   2   3   1  226.39   17.71 
  -3  -3  -1  52.965   3.054 
  -3  -3  -1  46.214   3.416 
  -3  -3  -1  58.189   3.094 
  -3  -3  -1  53.045   2.813 
  -3  -3  -1  54.854   2.331 
  -3  -3  -1  49.911   2.130 
   3   3   1  48.745   3.697 
   3   3   1  51.237   2.451 
   3   3   1  52.965   3.898 
   3   3   1  54.211   3.456 
  -4  -3  -1  244.05   12.10 
  -4  -3  -1  247.50   12.66 
  -4  -3  -1  222.19    7.80 
  -4  -3  -1  227.81   11.29 
   4   3   1  243.49   14.31 
   4   3   1  242.00   19.01 
  -5  -3  -1  2.4513  1.5271 
  -5  -3  -1 -0.2411  2.0093 
  -5  -3  -1  2.5317  1.7280 
   5   3   1  2.2906  3.1747 
   5   3   1  0.1206  2.2102 
  -6  -3  -1  82.944   5.425 
  -6  -3  -1  82.341   5.144 
  -6  -3  -1  95.321   5.787 
   6   3   1  80.372   6.912 
   6   3   1  80.211   7.394 
  -7  -3  -1  9.2829  3.4962 
  -7  -3  -1  1.8887  3.1747 
  -7  -3  -1  -3.295   3.255 
   7   3   1  3.2551  6.1886 
   7   3   1  -1.125   3.054 
   8  -4  -1  14.989   5.988 
  -8   4   1  10.931   3.657 
   7  -4  -1  19.410   4.822 
  -7   4   1  9.6446  2.2102 
   6  -4  -1  77.197   6.510 
   6  -4  -1  72.937   4.862 
  -6   4   1  76.876   4.099 
  -6   4   1  79.930   4.380 
   5  -4  -1  110.67    5.83 
   5  -4  -1  103.52    5.63 
   5  -4  -1  117.06    6.87 
   5  -4  -1  103.72    5.51 
  -5   4   1  118.71    5.75 
  -5   4   1  104.40    5.10 
   4  -4  -1  424.00   17.76 
   4  -4  -1  427.86   25.96 
   4  -4  -1  412.87   20.66 
   4  -4  -1  430.71   18.77 
   4  -4  -1  388.68   18.20 
  -4   4   1  373.97   18.61 
  -4   4   1  423.88   20.05 
  -4   4   1  396.84   18.93 
   3  -4  -1  5.2242  0.8841 
   3  -4  -1  4.5812  1.0046 
   3  -4  -1  4.9027  0.9645 
   3  -4  -1  5.1438  0.7233 
   3  -4  -1  7.1129  1.6074 
   3  -4  -1  5.5858  1.0046 
   3  -4  -1  4.5410  0.9243 
   3  -4  -1  4.7821  1.1654 
  -3   4   1  4.0588  0.9645 
  -3   4   1  4.5812  1.6878 
  -3   4   1  5.4653  1.0850 
   3  -4  -1  2.5274  1.6062 
   3  -4  -1  3.5975  1.6688 
  -3   4   1  1.8967  1.8769 
  -3   4   1  6.8606  2.1425 
   2  -4  -1  17.883   1.407 
   2  -4  -1  17.079   0.884 
   2  -4  -1  17.200   1.206 
   2  -4  -1  14.869   1.407 
   2  -4  -1  14.628   0.964 
   2  -4  -1  17.240   1.366 
   2  -4  -1  16.557   1.286 
  -2   4   1  15.552   1.929 
  -2   4   1  15.954   0.884 
  -2   4   1  15.110   1.246 
  -2   4   1  14.387   1.246 
   2  -4  -1  16.251   2.346 
   2  -4  -1  16.543   2.368 
  -2   4   1  14.975   2.469 
  -2   4   1  15.800   2.421 
   1  -4  -1  351.02   16.92 
   1  -4  -1  359.90   18.24 
   1  -4  -1  311.32   14.23 
   1  -4  -1  350.70   20.82 
   1  -4  -1  335.39   17.00 
   1  -4  -1  322.53   14.79 
  -1   4   1  317.59   17.84 
  -1   4   1  335.71   22.66 
  -1   4   1  289.50   21.18 
  -1   4   1  308.02   14.35 
  -1   4   1  321.13   19.57 
  -1   4   1  293.48   12.58 
   1  -4  -1  348.82   21.21 
   1  -4  -1  331.58   18.46 
  -1   4   1  299.19   21.15 
  -1   4   1  325.21   23.81 
   0  -4  -1  153.71    6.03 
   0  -4  -1  135.39    6.39 
   0  -4  -1  160.66    8.40 
   0  -4  -1  168.62   10.21 
   0  -4  -1  155.80    7.07 
   0   4   1  143.70   10.09 
   0   4   1  143.34    9.12 
   0   4   1  135.67    8.64 
   0   4   1  132.17    5.59 
   0   4   1  147.28    5.38 
   0  -4  -1  157.78    9.46 
   0   4   1  142.86   11.61 
   0   4   1  134.81   11.09 
  -1  -4  -1  295.29   16.19 
  -1  -4  -1  311.32   14.51 
  -1  -4  -1  296.33   11.98 
  -1  -4  -1  295.45   15.31 
  -1  -4  -1  276.68   17.04 
   1   4   1  294.28   19.41 
   1   4   1  306.74   21.26 
   1   4   1  317.39   19.97 
   1   4   1  266.19   12.74 
   1   4   1  287.73   20.17 
   1   4   1  296.17   15.59 
  -1  -4  -1  339.50   20.82 
  -1  -4  -1  302.49   18.88 
   1   4   1  301.78   21.91 
   1   4   1  301.33   25.06 
  -2  -4  -1  110.39    5.47 
  -2  -4  -1  109.43    6.03 
  -2  -4  -1  109.91    5.63 
  -2  -4  -1  105.69    5.55 
  -2  -4  -1  107.90    5.67 
   2   4   1  102.43    6.79 
   2   4   1  97.692   6.791 
   2   4   1  108.78    5.87 
   2   4   1  111.52    6.23 
   2   4   1  105.45    5.55 
   2   4   1  103.16    9.00 
  -3  -4  -1  5.4251  0.9645 
  -3  -4  -1  6.1083  1.3663 
  -3  -4  -1  6.7512  1.0448 
   3   4   1  8.3185  1.6476 
   3   4   1  6.9923  1.8485 
   3   4   1  8.0372  1.1252 
   3   4   1  10.288   1.728 
  -4  -4  -1  103.28    5.67 
  -4  -4  -1  97.692   5.626 
  -4  -4  -1  99.460   4.019 
  -4  -4  -1  103.80    5.18 
   4   4   1  98.978   8.519 
   4   4   1  95.763   6.309 
  -5  -4  -1  218.17   11.05 
  -5  -4  -1  226.01   11.61 
  -5  -4  -1  224.48   10.29 
   5   4   1  214.87   14.75 
   5   4   1  211.26   14.15 
  -6  -4  -1  149.01    8.20 
  -6  -4  -1  162.51    9.08 
  -6  -4  -1  174.17    9.08 
   6   4   1  134.22   10.37 
   6   4   1  156.89   11.49 
  -7  -4  -1  25.478   4.019 
  -7  -4  -1  20.977   4.420 
  -7  -4  -1  28.130   4.581 
   7   4   1  29.938   5.385 
   7   4   1  18.968   4.260 
   7   4   1  17.400   6.108 
   8  -5  -1  1.0850  5.3045 
  -8   5   1  14.708   3.617 
   7  -5  -1  16.798   5.023 
  -7   5   1  16.597   2.813 
  -7   5   1  18.445   2.934 
   6  -5  -1  27.206   2.652 
   6  -5  -1  31.023   4.019 
  -6   5   1  32.510   2.652 
  -6   5   1  33.435   2.652 
   5  -5  -1  439.35   19.81 
   5  -5  -1  412.75   20.17 
   5  -5  -1  443.01   29.09 
   5  -5  -1  437.18   19.41 
  -5   5   1  443.29   21.50 
  -5   5   1  441.24   21.54 
   4  -5  -1  12.096   1.407 
   4  -5  -1  17.722   1.527 
   4  -5  -1  15.954   1.889 
   4  -5  -1  12.458   1.889 
   4  -5  -1  12.136   1.567 
   4  -5  -1  17.159   2.371 
  -4   5   1  14.628   1.567 
  -4   5   1  18.646   1.688 
  -4   5   1  18.887   1.929 
   3  -5  -1  186.70    7.51 
   3  -5  -1  191.61    7.84 
   3  -5  -1  198.68   10.17 
   3  -5  -1  181.16    7.35 
   3  -5  -1  201.65    9.12 
   3  -5  -1  189.64    9.77 
   3  -5  -1  179.87    9.24 
   3  -5  -1  183.17   11.69 
  -3   5   1  168.02    9.44 
  -3   5   1  162.39    9.16 
  -3   5   1  172.16    6.63 
   2  -5  -1  17.280   1.567 
   2  -5  -1  19.450   1.165 
   2  -5  -1  19.812   1.567 
   2  -5  -1  18.164   1.005 
   2  -5  -1  19.410   1.648 
   2  -5  -1  20.816   1.688 
   2  -5  -1  20.696   1.487 
  -2   5   1  15.512   1.567 
  -2   5   1  18.727   1.688 
  -2   5   1  18.807   0.964 
  -2   5   1  20.856   2.331 
  -2   5   1  17.561   1.246 
   2  -5  -1  17.908   3.097 
  -2   5   1  17.584   3.207 
  -2   5   1  19.497   3.477 
   1  -5  -1  369.35   17.04 
   1  -5  -1  349.98   20.01 
   1  -5  -1  365.61   23.95 
   1  -5  -1  336.84   14.99 
   1  -5  -1  375.50   18.89 
   1  -5  -1  362.64   14.83 
  -1   5   1  327.60   24.63 
  -1   5   1  324.30   15.11 
  -1   5   1  342.34   19.21 
  -1   5   1  344.83   21.66 
  -1   5   1  336.19   18.36 
  -1   5   1  327.72   14.43 
   1  -5  -1  405.88   27.12 
   1  -5  -1  355.63   19.48 
  -1   5   1  355.93   26.80 
  -1   5   1  346.63   25.19 
   0  -5  -1  1.0448  0.9645 
   0  -5  -1  2.0495  1.0046 
   0  -5  -1  2.9738  0.8439 
   0  -5  -1  4.8625  1.3663 
   0   5   1  4.1793  1.0046 
   0   5   1  3.8980  0.4420 
   0   5   1  1.4467  1.1252 
   0   5   1  2.6925  0.9243 
   0   5   1  4.4606  0.9645 
   0  -5  -1  -1.123   2.605 
   0  -5  -1  1.9178  2.8098 
   0   5   1  7.5393  5.0443 
   0   5   1  0.7744  4.2621 
  -1  -5  -1  349.50   15.75 
  -1  -5  -1  328.52   20.37 
  -1  -5  -1  297.82   14.75 
  -1  -5  -1  343.91   17.36 
  -1  -5  -1  316.10   15.59 
   1   5   1  339.69   20.53 
   1   5   1  320.72   26.28 
   1   5   1  328.12   22.18 
   1   5   1  330.25   13.02 
   1   5   1  324.10   20.09 
   1   5   1  330.93   19.29 
  -2  -5  -1  1.3663  1.0046 
  -2  -5  -1  0.0804  0.9243 
  -2  -5  -1  0.7233  1.1654 
  -2  -5  -1  0.5224  1.2859 
   2   5   1  1.6878  1.8084 
   2   5   1  1.4467  1.0046 
   2   5   1  0.5224  1.4065 
   2   5   1 -0.6028  1.1654 
   2   5   1  0.6430  1.2859 
  -3  -5  -1  367.26   19.37 
  -3  -5  -1  384.10   18.93 
  -3  -5  -1  376.50   20.58 
  -3  -5  -1  373.17   20.78 
   3   5   1  385.18   21.10 
   3   5   1  372.28   27.09 
   3   5   1  355.85   18.16 
   3   5   1  381.93   27.73 
  -4  -5  -1  17.119   1.849 
  -4  -5  -1  15.793   2.411 
  -4  -5  -1  18.244   2.170 
  -4  -5  -1  16.597   2.130 
  -4  -5  -1  16.918   1.688 
   4   5   1  23.308   3.134 
   4   5   1  18.727   3.134 
   4   5   1  15.632   2.652 
  -5  -5  -1  131.89    7.55 
  -5  -5  -1  145.03    7.43 
  -5  -5  -1  144.43    7.15 
   5   5   1  132.77   10.61 
   5   5   1  148.33   10.45 
   5   5   1  158.29    9.97 
  -6  -5  -1  18.887   3.577 
  -6  -5  -1  17.360   4.059 
  -6  -5  -1  17.039   3.978 
   6   5   1  15.311   4.541 
   6   5   1  16.074   4.742 
   6   5   1  17.200   4.461 
  -7  -5  -1  34.841   4.742 
  -7  -5  -1  40.909   5.224 
  -7  -5  -1  28.853   4.179 
   7   5   1  29.135   6.028 
   7   5   1  42.758   6.390 
   7   5   1  31.466   7.394 
   8  -6  -1  4.9830  5.5456 
  -8   6   1  9.1222  3.0541 
   7  -6  -1  106.05    8.04 
  -7   6   1  108.30    7.51 
  -7   6   1  106.09    6.11 
   6  -6  -1  0.7635  1.6476 
   6  -6  -1  3.8980  3.2952 
  -6   6   1  2.0897  1.8887 
  -6   6   1  2.3710  2.2504 
   5  -6  -1  222.19   10.69 
   5  -6  -1  231.99   15.23 
   5  -6  -1  240.87   14.91 
  -5   6   1  245.42   12.50 
  -5   6   1  227.09   10.65 
   4  -6  -1  393.42   24.92 
   4  -6  -1  400.33   20.78 
   4  -6  -1  387.51   21.50 
   4  -6  -1  392.94   17.52 
   4  -6  -1  364.16   19.57 
  -4   6   1  380.92   21.74 
  -4   6   1  410.42   19.25 
  -4   6   1  369.07   17.68 
   3  -6  -1  4.7821  1.1252 
   3  -6  -1  3.5765  1.3261 
   3  -6  -1  5.9877  1.0046 
   3  -6  -1  8.3185  1.3663 
  -3   6   1  4.1793  0.7635 
  -3   6   1  7.5951  1.4065 
  -3   6   1  5.8270  1.0448 
   2  -6  -1  206.72    7.96 
   2  -6  -1  204.10    8.44 
   2  -6  -1  220.86   10.81 
   2  -6  -1  203.34    9.08 
   2  -6  -1  211.78    9.12 
   2  -6  -1  214.27   11.65 
   2  -6  -1  210.86   10.97 
  -2   6   1  189.80   11.29 
  -2   6   1  195.99   10.97 
  -2   6   1  198.20    8.84 
  -2   6   1  194.54    9.16 
   1  -6  -1 1183.80   59.43 
   1  -6  -1 1139.27   73.66 
   1  -6  -1 1152.65   47.38 
   1  -6  -1 1091.89   49.35 
   1  -6  -1 1118.81   63.53 
   1  -6  -1 1051.91   49.23 
  -1   6   1  988.77   45.45 
  -1   6   1 1028.32   73.82 
  -1   6   1 1061.95   61.24 
  -1   6   1 1068.74   66.67 
  -1   6   1 1013.25   44.69 
   0  -6  -1  151.70    8.76 
   0  -6  -1  161.23    7.88 
   0  -6  -1  170.59    8.56 
   0  -6  -1  138.76    6.67 
   0  -6  -1  141.01    8.04 
   0  -6  -1  160.14    7.27 
   0   6   1  155.16    7.55 
   0   6   1  147.16    9.36 
   0   6   1  160.82    7.27 
   0   6   1  161.43    8.68 
  -1  -6  -1  58.832   3.536 
  -1  -6  -1  68.838   4.903 
  -1  -6  -1  68.035   4.862 
  -1  -6  -1  71.370   4.059 
   1   6   1  63.333   3.335 
   1   6   1  66.146   3.496 
   1   6   1  58.470   3.134 
   1   6   1  63.333   3.456 
  -2  -6  -1  291.83   13.94 
  -2  -6  -1  302.64   17.76 
  -2  -6  -1  275.96   15.15 
  -2  -6  -1  294.00   21.86 
   2   6   1  294.96   14.79 
   2   6   1  301.39   15.83 
   2   6   1  280.70   13.58 
   2   6   1  285.64   19.49 
   2   6   1  289.02   19.45 
  -3  -6  -1  116.14    6.91 
  -3  -6  -1  121.88    6.23 
  -3  -6  -1  110.39    6.63 
  -3  -6  -1  110.19    7.11 
   3   6   1  124.98    6.91 
   3   6   1  116.10    8.52 
   3   6   1  108.18    5.75 
   3   6   1  112.96    8.08 
  -4  -6  -1  238.82   12.14 
  -4  -6  -1  248.19   13.18 
  -4  -6  -1  241.88   11.25 
   4   6   1  224.28   17.96 
   4   6   1  230.27   17.40 
   4   6   1  262.61   14.47 
  -5  -6  -1  16.557   3.094 
  -5  -6  -1  14.025   2.652 
  -5  -6  -1  12.819   3.416 
   5   6   1  15.150   3.978 
   5   6   1  16.958   3.818 
  -6  -6  -1  35.484   4.501 
  -6  -6  -1  34.640   4.139 
  -6  -6  -1  35.846   4.662 
   6   6   1  38.619   8.077 
   6   6   1  36.569   5.666 
   6   6   1  34.359   5.747 
   8  -7  -1  26.201   4.420 
   8  -7  -1  21.700   6.229 
  -8   7   1  36.730   4.340 
   7  -7  -1  0.8037  3.8980 
   7  -7  -1  0.7233  2.4513 
  -7   7   1 -0.4420  2.4112 
  -7   7   1  1.5271  3.0139 
   6  -7  -1  59.154   5.224 
   6  -7  -1  45.611   3.938 
   6  -7  -1  44.928   3.777 
  -6   7   1  65.543   4.260 
  -6   7   1  57.144   4.099 
   5  -7  -1  -1.005   1.969 
   5  -7  -1  1.4467  1.6878 
   5  -7  -1  2.0897  2.8130 
  -5   7   1  3.6971  1.8887 
  -5   7   1 -0.6028  1.9289 
   4  -7  -1  88.288   5.787 
   4  -7  -1  88.168   5.345 
   4  -7  -1  88.087   4.822 
   4  -7  -1  81.256   4.220 
   4  -7  -1  74.424   5.305 
  -4   7   1  74.103   4.461 
  -4   7   1  85.355   4.822 
   3  -7  -1  25.598   2.291 
   3  -7  -1  24.031   2.250 
   3  -7  -1  22.384   2.009 
   3  -7  -1  18.244   1.728 
  -3   7   1  25.438   1.527 
  -3   7   1  19.249   2.130 
  -3   7   1  19.289   2.009 
   2  -7  -1  244.65   12.10 
   2  -7  -1  274.71   10.57 
   2  -7  -1  276.12   12.54 
   2  -7  -1  274.23   14.67 
  -2   7   1  260.89   11.17 
  -2   7   1  270.09   11.49 
  -2   7   1  255.10   13.18 
  -2   7   1  276.40   14.39 
   1  -7  -1  258.56   11.57 
   1  -7  -1  273.95   14.95 
   1  -7  -1  248.95   10.33 
  -1   7   1  247.59   11.73 
  -1   7   1  249.07   12.14 
  -1   7   1  242.36    9.85 
   0  -7  -1  190.40   10.65 
   0  -7  -1  187.47    9.52 
   0   7   1  177.74    9.16 
   0   7   1  190.96    8.24 
  -1  -7  -1  36.368   2.451 
  -1  -7  -1  35.806   2.934 
   1   7   1  37.493   2.773 
   1   7   1  36.207   2.331 
  -2  -7  -1  257.03   14.35 
  -2  -7  -1  252.21   12.18 
   2   7   1  257.07   15.23 
   2   7   1  270.61   13.10 
   2   7   1  307.14   14.31 
   2   7   1  254.18   14.15 
  -3  -7  -1  150.17    7.92 
  -3  -7  -1  159.50    9.48 
   3   7   1  176.62   11.45 
   3   7   1  154.07   10.77 
   3   7   1  149.13    9.85 
   3   7   1  149.93    7.23 
   3   7   1  166.65   10.57 
  -4  -7  -1  31.385   2.813 
  -4  -7  -1  31.265   3.014 
  -4  -7  -1  22.062   2.853 
   4   7   1  30.421   4.059 
   4   7   1  22.946   3.737 
   4   7   1  36.810   4.179 
  -5  -7  -1  57.506   5.385 
  -5  -7  -1  44.365   5.063 
  -5  -7  -1  45.330   4.501 
   5   7   1  53.528   6.269 
   5   7   1  60.038   6.068 
  -6  -7  -1  19.530   3.978 
  -6  -7  -1  11.453   4.380 
  -6  -7  -1  11.614   4.179 
   6   7   1  15.914   6.590 
   6   7   1  5.8671  4.9429 
   8  -8  -1  2.0093  5.1036 
   8  -8  -1  2.7326  3.9382 
  -8   8   1  1.9289  3.6167 
   7  -8  -1  34.279   3.978 
   7  -8  -1  16.798   4.862 
  -7   8   1  31.506   3.577 
  -7   8   1  24.192   3.657 
   6  -8  -1  0.9645  2.2504 
   6  -8  -1  -1.728   3.255 
   6  -8  -1  1.6476  1.8887 
  -6   8   1  -1.165   2.451 
  -6   8   1  -1.206   1.728 
   5  -8  -1  28.170   3.376 
   5  -8  -1  33.917   3.818 
   5  -8  -1  38.498   3.134 
  -5   8   1  30.903   2.934 
   4  -8  -1  5.5456  2.1299 
   4  -8  -1  4.1391  1.9691 
   4  -8  -1  1.3261  1.9289 
   4  -8  -1  1.9289  2.0093 
  -4   8   1  4.2195  1.2056 
  -4   8   1  3.9784  1.8887 
   3  -8  -1  104.08    5.22 
   3  -8  -1  106.61    6.83 
   3  -8  -1  111.92    6.63 
   3  -8  -1  118.71    7.15 
  -3   8   1  113.53    4.66 
  -3   8   1  118.95    6.51 
   2  -8  -1  0.0804  1.6476 
   2  -8  -1 -0.8037  1.2056 
   2  -8  -1  0.0000  1.6476 
  -2   8   1  0.5224  1.2056 
  -2   8   1 -0.8037  1.7682 
  -2   8   1  0.7635  1.1654 
   1  -8  -1  369.91   21.78 
   1  -8  -1  365.29   17.64 
  -1   8   1  339.81   17.48 
  -1   8   1  335.07   17.32 
  -1   8   1  344.75   16.07 
   0  -8  -1  29.858   2.813 
   0  -8  -1  26.081   2.451 
   0   8   1  26.683   2.049 
   0   8   1  28.291   2.411 
   0   8   1  22.303   2.492 
  -1  -8  -1  253.37   16.52 
  -1  -8  -1  275.63   16.11 
   1   8   1  251.32   14.63 
   1   8   1  283.23   14.39 
  -2  -8  -1  13.744   2.371 
  -2  -8  -1  9.8455  2.0897 
   2   8   1  13.382   2.371 
   2   8   1  11.413   2.170 
  -3  -8  -1  96.004   6.148 
  -3  -8  -1  93.030   6.229 
   3   8   1  91.865   6.189 
   3   8   1  91.021   5.706 
  -4  -8  -1  -4.260   2.733 
  -4  -8  -1 -0.1607  2.2102 
  -4  -8  -1  0.7635  2.8130 
   4   8   1  2.0897  3.4962 
  -5  -8  -1  42.075   4.581 
  -5  -8  -1  55.014   5.385 
  -5  -8  -1  48.987   4.340 
   5   8   1  47.540   7.274 
   8  -9  -1  9.6446  4.6214 
   8  -9  -1  13.703   6.510 
  -8   9   1  11.373   3.416 
   7  -9  -1  3.1345  3.8177 
   7  -9  -1  5.2242  5.5055 
  -7   9   1  3.7775  3.2952 
   6  -9  -1  8.3185  3.1747 
   6  -9  -1  6.4297  3.0541 
   6  -9  -1  5.0634  2.8934 
  -6   9   1  7.7961  3.3354 
   5  -9  -1  15.672   2.773 
   5  -9  -1  16.235   2.572 
  -5   9   1  19.450   3.014 
   4  -9  -1  15.632   2.371 
   4  -9  -1  17.441   2.572 
  -4   9   1  18.285   1.768 
  -4   9   1  17.200   2.773 
   3  -9  -1  76.353   5.144 
   3  -9  -1  62.328   3.737 
   3  -9  -1  64.177   6.028 
  -3   9   1  71.651   4.943 
  -3   9   1  69.120   3.295 
   2  -9  -1  240.55   12.50 
   2  -9  -1  221.14    9.24 
   2  -9  -1  227.65   12.50 
  -2   9   1  215.60    9.48 
  -2   9   1  212.82   10.09 
  -2   9   1  224.32   10.45 
   1  -9  -1  38.860   3.295 
   1  -9  -1  48.946   3.496 
  -1   9   1  47.660   3.094 
  -1   9   1  43.280   2.612 
  -1   9   1  45.370   3.376 
   0  -9  -1  252.89   15.91 
   0  -9  -1  238.99   13.82 
   0   9   1  234.16   11.69 
   0   9   1  230.55   11.33 
   0   9   1  242.56   12.58 
  -1  -9  -1  2.7326  2.4112 
  -1  -9  -1  4.6214  1.8485 
   1   9   1  0.6430  1.6476 
   1   9   1  4.0588  2.2906 
  -2  -9  -1  171.27    9.89 
  -2  -9  -1  164.80    8.84 
   2   9   1  167.58    9.60 
   2   9   1  162.35   10.53 
  -3  -9  -1  6.6307  3.1747 
  -3  -9  -1  2.0897  2.3308 
   3   9   1  1.8887  2.9738 
  -4  -9  -1  151.22    9.28 
  -4  -9  -1  141.94    8.92 
  -4  -9  -1  153.35   10.69 
   4   9   1  155.44   11.65 
  -5  -9  -1  3.4560  3.4560 
  -5  -9  -1  -8.720   4.742 
  -5  -9  -1  1.5271  4.2999 
   5   9   1  -7.756   6.108 
   7 -10  -1  18.405   6.068 
   7 -10  -1  11.292   3.777 
  -7  10   1  11.694   4.300 
   6 -10  -1  4.7419  3.1747 
   6 -10  -1  6.6709  2.8934 
   6 -10  -1  4.0186  4.1391 
  -6  10   1  7.2335  3.3756 
   5 -10  -1  10.890   2.974 
   5 -10  -1  10.046   3.014 
   5 -10  -1  7.9166  2.6925 
  -5  10   1  11.011   3.054 
   4 -10  -1  67.392   4.862 
   4 -10  -1  74.022   4.983 
  -4  10   1  70.245   3.898 
  -4  10   1  70.888   4.782 
   3 -10  -1  2.2504  2.7326 
  -3  10   1  1.7280  1.4065 
  -3  10   1  4.0588  2.2906 
  -3  10   1  3.9784  1.6074 
   2 -10  -1  187.31   10.53 
  -2  10   1  163.07    7.92 
  -2  10   1  164.48    9.32 
  -2  10   1  166.17    8.00 
   1 -10  -1  17.400   2.532 
   1 -10  -1  14.788   2.532 
  -1  10   1  16.557   2.813 
  -1  10   1  14.788   2.049 
  -1  10   1  17.642   2.331 
   0 -10  -1  70.205   4.501 
   0 -10  -1  77.277   5.345 
   0  10   1  67.834   5.264 
   0  10   1  67.512   4.943 
   0  10   1  73.621   4.461 
  -1 -10  -1  78.403   5.706 
  -1 -10  -1  68.276   4.541 
   1  10   1  69.240   4.782 
   1  10   1  69.280   4.903 
  -2 -10  -1  48.585   4.742 
  -2 -10  -1  51.358   4.019 
   2  10   1  51.036   4.581 
   2  10   1  50.715   4.702 
  -3 -10  -1  41.271   4.662 
  -3 -10  -1  46.334   4.702 
   3  10   1  40.427   5.747 
  -4 -10  -1  1.6074  3.1345 
  -4 -10  -1 -0.3215  4.0186 
  -4 -10  -1  11.614   3.898 
   4  10   1  5.7868  6.4699 
   7 -11  -1  53.086   6.148 
  -7  11   1  52.041   6.590 
   6 -11  -1  7.7559  3.8578 
   6 -11  -1  7.9970  3.5364 
  -6  11   1  2.8532  3.7775 
   5 -11  -1  56.501   5.827 
   5 -11  -1  56.582   5.465 
  -5  11   1  60.600   5.988 
   4 -11  -1  -4.179   3.416 
  -4  11   1 -0.8037  2.2504 
  -4  11   1  0.5224  2.4112 
   3 -11  -1  147.32    9.77 
  -3  11   1  141.17    9.00 
  -3  11   1  139.69    6.67 
  -3  11   1  108.58    7.76 
   2 -11  -1 -0.5224  2.9738 
  -2  11   1  1.0046  1.7280 
  -2  11   1  3.9784  2.2102 
  -2  11   1  1.6074  2.3710 
   1 -11  -1  168.90   11.49 
   1 -11  -1  141.82    9.12 
  -1  11   1  157.89    8.84 
  -1  11   1  164.56   11.73 
  -1  11   1  164.84    8.92 
   0 -11  -1  2.4513  2.1700 
   0 -11  -1  0.8439  2.8130 
   0  11   1  1.3261  3.1345 
   0  11   1  4.0588  2.4112 
   0  11   1  2.8130  2.1299 
  -1 -11  -1  87.324   5.988 
  -1 -11  -1  99.500   6.470 
   1  11   1  103.20    6.47 
   1  11   1  75.710   6.470 
   1  11   1  97.089   5.907 
  -2 -11  -1  3.0541  2.7728 
  -2 -11  -1  9.8054  3.5364 
   2  11   1  6.4297  3.0139 
   2  11   1  3.4560  3.8578 
  -3 -11  -1  18.847   4.220 
  -3 -11  -1  18.043   4.662 
   3  11   1  18.807   5.948 
   6 -12  -1  3.8177  4.5008 
  -6  12   1  1.0046  4.3803 
   5 -12  -1  36.087   4.380 
   5 -12  -1  27.889   4.782 
   4 -12  -1  26.925   5.224 
  -4  12   1  23.589   3.978 
   3 -12  -1  11.373   4.260 
  -3  12   1  8.3185  3.1747 
   2 -12  -1  19.852   3.255 
   2 -12  -1  13.543   3.215 
  -2  12   1  16.958   4.019 
   1 -12  -1  11.975   3.697 
   1 -12  -1  18.124   3.536 
  -1  12   1  17.240   3.295 
   0 -12  -1  50.433   4.782 
   0 -12  -1  55.256   4.702 
   0  12   1  43.803   4.903 
  -1 -12  -1  15.954   4.380 
  -1 -12  -1  7.5148  3.4158 
   1  12   1  12.377   3.376 
  -2 -12  -1  44.888   5.787 
  -2 -12  -1  45.129   5.224 
   5 -13  -1  0.8037  4.4606 
   5 -13  -1 -0.3215  4.9027 
  -5  13   1  4.8223  4.8223 
   4 -13  -1  41.954   5.948 
  -4  13   1  39.824   5.867 
   3 -13  -1  8.8409  3.5765 
  -3  13   1  16.034   4.461 
   2 -13  -1  123.09   10.05 
   2 -13  -1  96.044   8.238 
  -2  13   1  104.60    8.36 
   1 -13  -1  0.3617  3.1747 
   1 -13  -1  5.7868  3.3354 
  -1  13   1  9.9661  4.4606 
   0 -13  -1  3.4962  4.4606 
   0 -13  -1  -2.612   3.215 
   0  13   1  -3.978   3.376 
   2 -14   2  35.564   5.023 
   1  13  -2  7.7559  4.0990 
   1  13  -2  13.824   5.666 
  -1 -13   2  6.7110  4.7419 
   0  13  -2  117.95    9.89 
   0  13  -2  124.66    8.04 
   0 -13   2  119.87    9.20 
  -1  13  -2  3.5765  3.7373 
  -1  13  -2  8.1577  4.0990 
   1 -13   2  4.1793  4.0588 
  -2  13  -2  18.887   3.657 
  -2  13  -2  16.074   3.777 
   2 -13   2  18.928   3.938 
  -3  13  -2  4.6616  3.4158 
  -3  13  -2  3.1345  3.3354 
   3 -13   2  6.6307  4.1391 
   4 -13   2  21.982   4.019 
   4 -13   2  12.257   4.300 
   5 -13   2  2.4915  4.8625 
   5 -13   2 -0.9645  3.5765 
   2  12  -2  2.8130  4.8625 
   2  12  -2  4.7017  4.6214 
  -2 -12   2  1.1252  3.3354 
   1  12  -2  373.81   24.59 
   1  12  -2  368.75   26.32 
  -1 -12   2  353.92   23.27 
   0  12  -2  32.309   3.938 
   0  12  -2  26.241   4.340 
   0 -12   2  25.759   4.059 
  -1  12  -2  48.303   4.662 
  -1  12  -2  48.183   4.742 
   1 -12   2  47.580   5.546 
  -2  12  -2  4.2195  2.4915 
  -2  12  -2  5.6662  3.0943 
   2 -12   2  3.3354  2.8532 
  -3  12  -2  15.030   2.974 
  -3  12  -2  20.937   3.536 
   3 -12   2  11.614   3.536 
  -4  12  -2  8.3988  2.9738 
   4 -12   2  9.4437  3.7373 
   4 -12   2  1.9691  3.5364 
  -5  12  -2  29.738   3.818 
   5 -12   2  21.941   4.903 
   5 -12   2  23.870   4.822 
  -6  12  -2  1.3261  3.6971 
   6 -12   2  0.0804  4.9830 
   6 -12   2  -2.451   4.380 
   3  11  -2  51.759   6.148 
  -3 -11   2  40.628   5.586 
   2  11  -2  19.289   4.662 
   2  11  -2  16.235   3.777 
  -2 -11   2  15.753   4.260 
   1  11  -2  12.659   3.416 
   1  11  -2  10.408   3.737 
  -1 -11   2  14.547   3.818 
   0  11  -2  20.093   2.813 
   0  11  -2  14.226   3.496 
   0 -11   2  19.048   2.572 
   0 -11   2  11.574   2.331 
  -1  11  -2  53.246   4.581 
  -1  11  -2  60.359   4.862 
   1 -11   2  58.993   4.139 
   1 -11   2  62.248   4.702 
  -2  11  -2  59.837   5.184 
  -2  11  -2  64.297   4.340 
   2 -11   2  75.831   5.505 
  -3  11  -2  141.01    9.48 
  -3  11  -2  148.29    8.32 
   3 -11   2  146.20    9.68 
  -4  11  -2  4.0990  2.2906 
   4 -11   2 -0.0804  3.2952 
   4 -11   2  1.7682  3.2149 
  -5  11  -2  -2.291   2.612 
   5 -11   2  3.8980  3.5364 
   5 -11   2  7.3942  3.6167 
  -6  11  -2  10.087   3.376 
   6 -11   2  6.9923  4.4204 
   6 -11   2  5.4653  3.8578 
   7 -11   2  5.9073  4.7017 
   4  10  -2  76.634   9.162 
  -4 -10   2  65.222   5.626 
  -4 -10   2  80.050  10.770 
  -4 -10   2  68.718   6.952 
   3  10  -2  0.4019  3.5364 
  -3 -10   2  1.4869  3.4962 
  -3 -10   2  6.4297  2.9336 
  -3 -10   2  1.5271  2.3710 
   2  10  -2  28.492   3.697 
  -2 -10   2  29.657   2.893 
  -2 -10   2  27.246   3.898 
   1  10  -2  2.8934  2.6121 
   1  10  -2  2.9738  2.4915 
  -1 -10   2  1.4869  2.8532 
  -1 -10   2  3.8578  2.0495 
   0  10  -2  280.98   15.31 
   0  10  -2  274.27   14.51 
   0 -10   2  271.74   12.66 
   0 -10   2  276.80   13.98 
  -1  10  -2  2.2504  2.2504 
  -1  10  -2  1.2458  2.0495 
   1 -10   2  -2.813   2.250 
   1 -10   2  0.0402  1.6878 
  -2  10  -2  179.03    9.40 
  -2  10  -2  165.32    9.44 
  -2  10  -2  166.69    8.48 
   2 -10   2  178.34   10.21 
  -3  10  -2  1.1654  2.4513 
  -3  10  -2  3.7373  2.3308 
  -3  10  -2  2.0897  2.1700 
   3 -10   2 -0.1206  2.2906 
  -4  10  -2  22.986   2.692 
   4 -10   2  14.909   2.893 
   4 -10   2  18.043   3.456 
   4 -10   2  19.169   2.893 
  -5  10  -2  14.507   2.291 
   5 -10   2  10.408   3.134 
   5 -10   2  6.7110  3.2952 
   5 -10   2  17.521   3.215 
  -6  10  -2  12.659   2.934 
   6 -10   2  9.6044  3.4158 
   6 -10   2  14.427   3.536 
   6 -10   2  9.2829  4.7017 
   7 -10   2  5.5055  5.4251 
   7 -10   2  -1.165   5.144 
   7 -10   2  4.6616  4.7017 
   5   9  -2  45.410   7.876 
  -5  -9   2  38.498   4.903 
  -5  -9   2  34.761   4.220 
  -5  -9   2  35.765   6.068 
   4   9  -2  4.9027  4.1793 
  -4  -9   2  11.734   3.818 
  -4  -9   2  5.0232  2.8532 
  -4  -9   2  13.462   3.255 
   3   9  -2  29.456   4.662 
  -3  -9   2  24.473   2.773 
  -3  -9   2  19.249   3.697 
  -3  -9   2  25.759   2.773 
   2   9  -2  1.4065  2.8934 
  -2  -9   2  -3.697   2.612 
  -2  -9   2 -0.3617  1.7682 
   1   9  -2  195.99   10.73 
   1   9  -2  200.37    9.85 
  -1  -9   2  196.95   11.33 
  -1  -9   2  187.07    8.80 
   0   9  -2  3.7373  1.8485 
   0   9  -2  3.0943  2.0495 
   0  -9   2  6.6709  1.4467 
   0  -9   2  5.9475  2.1700 
  -1   9  -2  64.981   4.179 
  -1   9  -2  61.565   4.380 
  -1   9  -2  50.152   4.059 
   1  -9   2  57.024   4.340 
   1  -9   2  65.302   3.416 
  -2   9  -2  1.2458  1.7280 
  -2   9  -2  3.0541  1.6476 
  -2   9  -2  0.9243  2.3710 
   2  -9   2 -0.0804  1.1252 
   2  -9   2  0.3617  1.3663 
   2  -9   2  1.4065  2.0093 
  -3   9  -2  150.13    7.92 
  -3   9  -2  140.13    5.87 
  -3   9  -2  134.90    7.47 
   3  -9   2  145.55    8.80 
   3  -9   2  125.62    8.96 
   3  -9   2  130.20    8.68 
   3  -9   2  127.43    9.08 
  -4   9  -2  61.083   5.425 
  -4   9  -2  73.580   3.978 
   4  -9   2  75.750   5.023 
   4  -9   2  59.596   5.305 
   4  -9   2  73.178   5.546 
  -5   9  -2  87.043   5.144 
   5  -9   2  81.015   7.033 
   5  -9   2  88.891   7.193 
   5  -9   2  66.548   5.626 
  -6   9  -2  1.6476  2.5317 
   6  -9   2  4.0186  3.5364 
   6  -9   2  -2.733   3.014 
   6  -9   2  -2.532   2.411 
  -7   9  -2  7.1129  3.5364 
   7  -9   2  5.7868  3.0139 
   7  -9   2  12.016   4.621 
   7  -9   2  7.2335  3.4560 
   5   8  -2  30.742   6.068 
  -5  -8   2  27.809   3.978 
  -5  -8   2  31.144   4.943 
  -5  -8   2  26.764   3.617 
   4   8  -2  21.660   4.300 
  -4  -8   2  18.003   2.934 
  -4  -8   2  18.968   2.652 
  -4  -8   2  20.013   3.456 
   3   8  -2  17.923   3.697 
  -3  -8   2  16.798   2.492 
  -3  -8   2  13.703   2.371 
  -3  -8   2  13.422   2.451 
   2   8  -2  51.076   2.652 
   2   8  -2  47.982   3.456 
  -2  -8   2  47.902   3.777 
  -2  -8   2  48.665   3.175 
   1   8  -2  293.12   14.23 
  -1  -8   2  268.00   15.23 
  -1  -8   2  269.21   14.02 
   0   8  -2  122.29    7.43 
   0   8  -2  131.49    6.27 
   0  -8   2  124.54    5.18 
   0  -8   2  117.30    7.92 
  -1   8  -2  60.640   3.376 
  -1   8  -2  63.333   3.818 
  -1   8  -2  58.551   4.581 
   1  -8   2  56.823   2.652 
   1  -8   2  68.557   4.220 
   1  -8   2  47.982   2.692 
  -2   8  -2  67.110   4.059 
  -2   8  -2  68.999   3.898 
  -2   8  -2  64.981   4.461 
   2  -8   2  72.415   4.340 
   2  -8   2  67.070   4.220 
   2  -8   2  67.311   3.496 
   2  -8   2  60.681   3.898 
  -3   8  -2  130.56    6.19 
  -3   8  -2  129.96    7.11 
  -3   8  -2  138.60    7.96 
   3  -8   2  115.86    7.15 
   3  -8   2  126.71    8.84 
   3  -8   2  130.76    7.88 
   3  -8   2  130.72    7.43 
  -4   8  -2  70.888   3.697 
  -4   8  -2  64.418   4.260 
   4  -8   2  58.189   4.501 
   4  -8   2  69.401   4.380 
   4  -8   2  63.333   4.260 
  -5   8  -2  7.9568  2.0093 
  -5   8  -2  10.529   2.130 
   5  -8   2  9.1624  1.9289 
   5  -8   2  8.9614  2.4112 
   5  -8   2  6.4297  2.7326 
  -6   8  -2  61.645   5.023 
   6  -8   2  51.478   5.988 
   6  -8   2  59.314   4.782 
   6  -8   2  49.469   3.898 
  -7   8  -2  6.2690  2.8934 
   7  -8   2  5.6662  3.6167 
   7  -8   2  2.4112  2.8130 
   7  -8   2  6.2288  4.5812 
  -8   8  -2  17.883   5.023 
   8  -8   2  12.578   6.791 
   6   7  -2  49.710   7.033 
  -6  -7   2  36.569   5.264 
  -6  -7   2  38.699   4.300 
  -6  -7   2  36.087   4.742 
   5   7  -2  8.0372  4.3803 
  -5  -7   2  3.5765  2.4513 
  -5  -7   2  3.0139  3.2149 
  -5  -7   2  6.6709  3.0541 
   4   7  -2  203.10   12.26 
   4   7  -2  210.61   13.10 
  -4  -7   2  202.09   11.37 
  -4  -7   2  211.10   12.38 
  -4  -7   2  193.58   11.53 
   3   7  -2  137.44    7.80 
   3   7  -2  139.77    8.68 
  -3  -7   2  141.41    6.87 
  -3  -7   2  139.40    8.92 
  -3  -7   2  139.28    7.76 
   2   7  -2  88.288   4.903 
   2   7  -2  80.332   4.139 
  -2  -7   2  74.143   5.305 
  -2  -7   2  74.866   3.657 
   1   7  -2  53.407   3.134 
  -1  -7   2  48.263   3.577 
  -1  -7   2  52.402   3.014 
   0   7  -2  546.73   26.44 
   0   7  -2  581.13   24.15 
   0  -7   2  607.97   29.74 
   0  -7   2  554.56   39.98 
   0  -7   2  538.45   25.72 
  -1   7  -2  1.2859  1.7280 
  -1   7  -2  1.0448  1.2056 
  -1   7  -2 -0.9645  1.3261 
   1  -7   2  1.6878  1.4065 
   1  -7   2  0.9645  0.7233 
   1  -7   2  2.1299  1.9289 
   1  -7   2  2.3710  1.1252 
   1  -7   2  2.8130  0.9645 
  -2   7  -2  209.97   11.41 
  -2   7  -2  229.14   12.14 
  -2   7  -2  222.63    9.00 
   2  -7   2  237.14    9.52 
   2  -7   2  249.88   12.94 
   2  -7   2  228.54   15.59 
   2  -7   2  219.82   12.86 
   2  -7   2  234.28   10.89 
  -3   7  -2  8.9213  1.4869 
  -3   7  -2  9.0820  1.8084 
  -3   7  -2  8.4390  1.4869 
   3  -7   2  9.8455  1.6476 
   3  -7   2  5.8270  1.2458 
   3  -7   2  9.4437  1.7682 
   3  -7   2  6.3092  1.3261 
   3  -7   2  8.5194  1.6878 
  -4   7  -2  88.771   4.179 
  -4   7  -2  84.350   4.581 
   4  -7   2  86.239   5.063 
   4  -7   2  80.492   5.626 
   4  -7   2  83.667   5.063 
  -5   7  -2  1.2859  1.4869 
  -5   7  -2  3.3756  1.6074 
   5  -7   2  2.3710  1.6476 
   5  -7   2  2.8130  2.5317 
   5  -7   2  3.2149  1.9691 
  -6   7  -2  30.139   3.054 
   6  -7   2  33.756   3.456 
   6  -7   2  34.962   4.541 
   6  -7   2  32.551   3.335 
  -7   7  -2  18.727   3.456 
   7  -7   2  14.186   2.733 
   7  -7   2  15.672   3.737 
   7  -7   2  17.400   4.983 
  -8   7  -2  35.002   4.983 
   8  -7   2  24.634   6.309 
   6   6  -2  78.483   7.595 
   6   6  -2  66.990   8.399 
  -6  -6   2  70.607   5.345 
  -6  -6   2  74.103   4.782 
  -6  -6   2  72.294   6.269 
   5   6  -2  110.59    9.28 
   5   6  -2  111.15    8.08 
  -5  -6   2  120.48    6.35 
  -5  -6   2  110.63    7.64 
  -5  -6   2  110.15    6.63 
   4   6  -2  66.025   5.063 
   4   6  -2  71.330   5.505 
  -4  -6   2  67.311   4.099 
  -4  -6   2  69.964   4.179 
  -4  -6   2  63.735   4.340 
   3   6  -2  161.87    8.40 
   3   6  -2  165.73    9.64 
  -3  -6   2  162.19   11.37 
  -3  -6   2  157.65    9.77 
  -3  -6   2  164.60    9.81 
  -3  -6   2  154.27    7.11 
  -3  -6   2  163.36    9.68 
   2   6  -2  22.504   2.291 
   2   6  -2  19.812   2.371 
   2   6  -2  23.669   1.768 
  -2  -6   2  21.499   2.210 
  -2  -6   2  20.937   1.487 
  -2  -6   2  15.190   2.130 
  -2  -6   2  21.299   1.688 
  -2  -6   2  19.490   2.130 
   1   6  -2  348.61   14.51 
   1   6  -2  330.69   18.04 
  -1  -6   2  351.55   20.29 
  -1  -6   2  365.89   15.99 
  -1  -6   2  350.42   26.44 
  -1  -6   2  326.31   24.59 
  -1  -6   2  332.82   18.24 
  -1  -6   2  330.13   17.72 
   0   6  -2  87.766   4.300 
   0   6  -2  90.298   4.260 
   0   6  -2  75.871   6.148 
   0  -6   2  86.922   3.496 
   0  -6   2  90.941   5.385 
   0  -6   2  98.817   5.264 
   0  -6   2  98.415   5.626 
   0  -6   2  90.659   3.978 
  -1   6  -2  260.61   12.30 
  -1   6  -2  255.82   17.04 
  -1   6  -2  272.10   13.46 
  -1   6  -2  295.65   18.45 
   1  -6   2  283.47   15.35 
   1  -6   2  290.62   17.52 
   1  -6   2  276.40   14.71 
   1  -6   2  321.25   18.77 
   1  -6   2  296.97   15.51 
   1  -6   2  259.76   11.25 
  -2   6  -2 -0.2411  1.4065 
  -2   6  -2  2.4513  1.2056 
  -2   6  -2  1.4467  1.1654 
  -2   6  -2  0.6028  1.0046 
   2  -6   2  1.8485  1.3261 
   2  -6   2  1.6476  0.6832 
   2  -6   2  2.9738  1.2458 
   2  -6   2  -1.045   1.085 
   2  -6   2  5.6260  1.4467 
   2  -6   2  2.4112  0.8439 
  -3   6  -2  234.81   10.89 
  -3   6  -2  248.99   13.74 
  -3   6  -2  219.21   10.53 
   3  -6   2  231.43   13.98 
   3  -6   2  239.63   10.37 
   3  -6   2  236.78   10.45 
   3  -6   2  244.33   17.88 
   3  -6   2  225.08   11.21 
   3  -6   2  237.94   10.85 
   3  -6   2  235.21   11.37 
   3  -6   2  223.19   10.41 
   3  -6   2  222.71   11.49 
  -4   6  -2  5.2643  1.2458 
  -4   6  -2  7.3942  1.4065 
   4  -6   2  4.6616  1.4467 
   4  -6   2  5.7064  2.0897 
   4  -6   2  7.2335  1.5672 
   4  -6   2  2.9336  1.6074 
   4  -6   2  2.2504  1.3663 
  -5   6  -2  99.741   4.501 
   5  -6   2  91.985   5.747 
   5  -6   2  88.449   5.385 
   5  -6   2  94.557   7.153 
  -6   6  -2  -1.849   2.210 
   6  -6   2  1.6878  1.5271 
   6  -6   2  0.4019  1.8887 
   6  -6   2  4.6616  3.5364 
   7  -6   2  19.289   2.974 
   7  -6   2  24.674   4.822 
   7  -6   2  23.911   3.416 
  -8   6  -2  3.0541  3.0541 
   8  -6   2  -3.215   5.626 
   7   5  -2  47.218   7.756 
   7   5  -2  37.493   6.631 
  -7  -5   2  32.591   5.224 
  -7  -5   2  42.195   4.822 
  -7  -5   2  39.181   5.224 
   6   5  -2  36.127   5.104 
   6   5  -2  34.640   5.867 
  -6  -5   2  29.577   3.898 
  -6  -5   2  25.277   3.255 
  -6  -5   2  32.350   4.019 
   5   5  -2  89.695   7.274 
   5   5  -2  90.257   6.510 
  -5  -5   2  87.485   5.747 
  -5  -5   2  86.842   5.425 
  -5  -5   2  89.333   5.224 
   4   5  -2  81.698   6.068 
   4   5  -2  83.627   5.626 
  -4  -5   2  75.911   4.702 
  -4  -5   2  75.831   4.702 
  -4  -5   2  79.287   4.501 
  -4  -5   2  78.081   4.420 
  -4  -5   2  80.291   4.581 
   3   5  -2  264.74   17.28 
   3   5  -2  286.85   13.90 
  -3  -5   2  289.66   15.19 
  -3  -5   2  284.32   13.42 
  -3  -5   2  289.70   18.69 
  -3  -5   2  276.04   17.24 
  -3  -5   2  275.19   15.47 
   2   5  -2  16.999   1.889 
   2   5  -2  18.646   1.969 
   2   5  -2  15.030   1.567 
  -2  -5   2  16.034   1.206 
  -2  -5   2  16.275   1.688 
  -2  -5   2  14.989   1.286 
  -2  -5   2  11.131   2.090 
  -2  -5   2  16.677   1.688 
  -2  -5   2  16.557   1.728 
   1   5  -2  280.42   19.25 
   1   5  -2  298.58   12.46 
   1   5  -2  288.45   13.66 
  -1  -5   2  301.64   17.64 
  -1  -5   2  296.13   13.58 
  -1  -5   2  293.48   14.87 
  -1  -5   2  308.31   12.30 
  -1  -5   2  289.46   13.74 
  -1  -5   2  311.56   18.20 
   0   5  -2  1.3261  1.0448 
   0   5  -2  1.3261  0.8439 
   0   5  -2  1.2458  1.4467 
   0  -5   2 -0.6430  1.2859 
   0  -5   2 -0.5224  0.7635 
   0  -5   2  3.5765  1.0850 
   0  -5   2  3.5364  1.1252 
   0  -5   2  0.7233  0.6028 
   0   5  -2  2.6407  3.6860 
   0   5  -2  3.1474  3.8582 
   0  -5   2  0.2221  3.2223 
   0  -5   2 -0.9586  3.5239 
  -1   5  -2  183.89    7.84 
  -1   5  -2  204.67    9.56 
  -1   5  -2  176.54   12.42 
   1  -5   2  197.71   11.94 
   1  -5   2  211.58   11.69 
   1  -5   2  198.24    9.72 
   1  -5   2  200.57   11.94 
   1  -5   2  215.76   10.85 
   1  -5   2  199.12    7.60 
  -1   5  -2  207.90   14.33 
  -1   5  -2  192.17   13.05 
   1  -5   2  208.17   12.37 
   1  -5   2  199.26   12.96 
  -2   5  -2  24.473   1.969 
  -2   5  -2  25.639   1.527 
  -2   5  -2  23.830   1.607 
  -2   5  -2  21.620   2.130 
   2  -5   2  24.714   1.688 
   2  -5   2  27.367   1.849 
   2  -5   2  24.232   1.929 
   2  -5   2  24.232   1.326 
   2  -5   2  20.173   1.607 
   2  -5   2  24.996   1.326 
  -2   5  -2  19.507   2.871 
  -2   5  -2  21.387   2.969 
   2  -5   2  25.758   2.960 
   2  -5   2  16.949   2.311 
  -3   5  -2  10.247   1.085 
  -3   5  -2  9.2427  1.0850 
   3  -5   2  7.0325  1.0448 
   3  -5   2  8.6801  1.5271 
   3  -5   2  9.4437  1.2458 
   3  -5   2  6.3092  1.0046 
   3  -5   2  9.4437  1.4869 
   3  -5   2  8.6400  1.4065 
   3  -5   2  6.5101  1.0448 
   3  -5   2  8.6400  1.4869 
  -4   5  -2  177.42    9.28 
  -4   5  -2  185.94    8.96 
   4  -5   2  185.14    7.64 
   4  -5   2  199.36   13.18 
   4  -5   2  186.50    9.40 
   4  -5   2  190.60    9.04 
   4  -5   2  166.53    8.16 
   4  -5   2  186.98    8.88 
   4  -5   2  204.55   10.09 
  -5   5  -2  64.378   3.376 
  -5   5  -2  69.803   3.697 
   5  -5   2  62.449   4.059 
   5  -5   2  59.716   3.777 
   5  -5   2  54.693   4.782 
   5  -5   2  57.385   3.938 
   5  -5   2  53.568   3.536 
  -6   5  -2  33.957   3.416 
  -6   5  -2  37.373   3.014 
   6  -5   2  35.203   4.340 
   6  -5   2  29.416   3.376 
  -7   5  -2  3.0541  2.0093 
  -7   5  -2  4.8625  2.2102 
   7  -5   2  2.7728  2.6925 
   7  -5   2  7.1129  4.9429 
  -8   5  -2  64.820   5.144 
  -8   5  -2  67.954   5.465 
   8  -5   2  70.406   9.002 
   7   4  -2  6.1886  5.5456 
   7   4  -2  3.4962  4.4606 
  -7  -4   2  10.247   3.978 
  -7  -4   2  8.8007  3.0541 
  -7  -4   2  7.9166  4.3401 
   6   4  -2  61.886   6.992 
   6   4  -2  65.664   6.028 
  -6  -4   2  59.515   4.380 
  -6  -4   2  64.981   4.862 
  -6  -4   2  62.127   5.063 
   5   4  -2  -1.648   3.255 
   5   4  -2  -2.451   2.532 
  -5  -4   2 -0.2411  0.9645 
  -5  -4   2  2.3710  2.1299 
  -5  -4   2  0.6028  1.5672 
  -5  -4   2  0.1206  1.9691 
   4   4  -2  188.95   11.73 
   4   4  -2  196.11   14.19 
  -4  -4   2  200.65   11.65 
  -4  -4   2  196.87    9.89 
  -4  -4   2  205.83   10.57 
  -4  -4   2  202.01   10.45 
  -4  -4   2  199.48   10.41 
   3   4  -2  4.0588  1.4869 
   3   4  -2  3.0541  1.7682 
   3   4  -2  3.2952  1.6074 
  -3  -4   2  0.3215  0.9645 
  -3  -4   2  2.0093  1.1252 
  -3  -4   2  1.2859  0.7635 
  -3  -4   2  2.6925  1.7682 
  -3  -4   2  3.0139  1.6476 
  -3  -4   2  1.6074  1.0046 
   2   4  -2  503.93   21.02 
   2   4  -2  524.67   27.93 
   2   4  -2  509.36   28.65 
   2   4  -2  523.10   29.54 
  -2  -4   2  548.14   27.69 
  -2  -4   2  536.32   23.79 
  -2  -4   2  554.20   31.59 
  -2  -4   2  531.86   33.35 
  -2  -4   2  547.61   22.75 
  -2  -4   2  545.20   28.01 
   1   4  -2  65.624   4.019 
   1   4  -2  68.195   3.737 
   1   4  -2  70.165   3.255 
   1   4  -2  69.361   3.335 
  -1  -4   2  69.602   3.456 
  -1  -4   2  76.434   3.898 
  -1  -4   2  73.219   3.255 
  -1  -4   2  61.002   3.416 
  -1  -4   2  64.458   3.255 
  -1  -4   2  72.134   4.983 
   1   4  -2  55.299   6.955 
   1   4  -2  66.847   8.192 
  -1  -4   2  64.476   5.838 
  -1  -4   2  65.324   6.914 
   0   4  -2  254.46   10.93 
   0   4  -2  229.50    9.72 
   0   4  -2  256.35   17.72 
   0   4  -2  265.63   14.91 
   0  -4   2  275.88   14.11 
   0  -4   2  242.72   10.49 
   0  -4   2  270.01   15.31 
   0  -4   2  275.92   15.31 
   0  -4   2  251.64   12.42 
   0   4  -2  221.50   15.13 
   0  -4   2  224.75   15.01 
   0  -4   2  231.06   13.39 
  -1   4  -2  14.547   1.125 
  -1   4  -2  15.914   1.366 
  -1   4  -2  14.989   1.085 
   1  -4   2  16.396   1.366 
   1  -4   2  15.190   1.206 
   1  -4   2  16.155   1.246 
   1  -4   2  15.713   0.844 
   1  -4   2  14.829   1.487 
   1  -4   2  16.034   1.286 
  -1   4  -2  11.273   2.528 
  -1   4  -2  10.077   2.638 
   1  -4   2  13.568   2.240 
   1  -4   2  12.772   2.429 
  -2   4  -2  523.26   40.39 
  -2   4  -2  545.36   28.01 
  -2   4  -2  562.56   25.84 
  -2   4  -2  525.71   24.79 
   2  -4   2  583.70   29.82 
   2  -4   2  555.17   31.06 
   2  -4   2  558.22   29.86 
   2  -4   2  546.77   21.66 
   2  -4   2  583.06   22.34 
   2  -4   2  576.35   29.46 
   2  -4   2  590.01   31.43 
  -2   4  -2  529.04   29.08 
  -2   4  -2  541.89   27.74 
   2  -4   2  536.24   25.45 
   2  -4   2  527.07   25.73 
  -3   4  -2  24.473   1.688 
  -3   4  -2  28.331   1.688 
  -3   4  -2  25.840   1.527 
   3  -4   2  25.518   2.009 
   3  -4   2  25.438   2.049 
   3  -4   2  25.558   1.607 
   3  -4   2  27.969   1.849 
   3  -4   2  24.674   1.648 
   3  -4   2  23.147   1.688 
   3  -4   2  25.036   1.849 
   3  -4   2  26.764   1.929 
  -4   4  -2  78.483   5.546 
  -4   4  -2  88.610   5.264 
  -4   4  -2  79.970   4.139 
  -4   4  -2  91.142   4.862 
   4  -4   2  88.610   4.581 
   4  -4   2  84.913   6.631 
   4  -4   2  89.333   4.662 
   4  -4   2  78.242   4.903 
   4  -4   2  81.135   3.777 
   4  -4   2  87.404   5.063 
   4  -4   2  83.988   3.777 
  -5   4  -2  173.28    8.60 
  -5   4  -2  182.48    9.77 
   5  -4   2  191.77   12.38 
   5  -4   2  170.99    9.81 
   5  -4   2  175.57   10.45 
   5  -4   2  172.12    7.80 
   5  -4   2  167.09    7.47 
  -6   4  -2  16.838   2.331 
  -6   4  -2  16.034   2.090 
   6  -4   2  13.543   2.210 
   6  -4   2  9.4035  4.9830 
  -7   4  -2  39.061   3.577 
  -7   4  -2  37.855   3.175 
   7  -4   2  37.051   3.697 
   7  -4   2  29.456   4.983 
  -8   4  -2  21.620   4.059 
  -8   4  -2  19.771   3.577 
   8  -4   2  34.520   6.108 
   8   3  -2  15.793   5.224 
   8   3  -2  4.5812  8.3587 
  -8  -3   2  9.2427  4.9429 
  -8  -3   2  4.9027  4.4204 
   7   3  -2  39.342   5.264 
   7   3  -2  41.472   6.832 
  -7  -3   2  34.319   4.461 
  -7  -3   2  35.243   4.139 
  -7  -3   2  42.758   4.139 
   6   3  -2  9.4839  2.9336 
   6   3  -2  3.8578  3.8177 
   6   3  -2  13.703   3.255 
  -6  -3   2  9.0418  2.7326 
  -6  -3   2  9.3633  2.6121 
  -6  -3   2  8.3587  2.3710 
   5   3  -2  88.128   5.626 
   5   3  -2  85.234   5.867 
   5   3  -2  90.740   7.193 
  -5  -3   2  82.381   3.215 
  -5  -3   2  81.256   4.983 
  -5  -3   2  86.319   5.706 
  -5  -3   2  72.134   5.948 
  -5  -3   2  90.137   5.184 
  -5  -3   2  80.693   3.777 
  -5  -3   2  82.220   3.737 
   4   3  -2  139.89    8.72 
   4   3  -2  140.01    7.27 
   4   3  -2  133.42    9.04 
  -4  -3   2  125.86    7.07 
  -4  -3   2  140.45    6.99 
  -4  -3   2  145.67    6.55 
  -4  -3   2  126.51    7.96 
  -4  -3   2  138.48    7.47 
   3   3  -2  13.020   1.607 
   3   3  -2  15.512   1.849 
   3   3  -2  12.819   1.808 
   3   3  -2  13.663   1.849 
  -3  -3   2  13.181   1.527 
  -3  -3   2  11.292   1.206 
  -3  -3   2  10.529   1.165 
  -3  -3   2  13.623   1.286 
  -3  -3   2  12.176   1.808 
  -3  -3   2  11.815   1.206 
   2   3  -2  2.8130  1.1252 
   2   3  -2  2.2102  0.8439 
   2   3  -2  2.6925  1.2056 
   2   3  -2  3.0541  1.3261 
  -2  -3   2  2.8130  1.0046 
  -2  -3   2  1.8485  0.5224 
  -2  -3   2  5.1840  1.2458 
  -2  -3   2  3.5364  0.6430 
  -2  -3   2  2.5719  0.7635 
  -2  -3   2  2.5719  0.8841 
   2   3  -2  5.2660  4.6994 
   2   3  -2  -3.658   4.573 
  -2  -3   2  5.9328  3.5307 
  -2  -3   2  7.7861  5.1495 
   1   3  -2  228.42    9.85 
   1   3  -2  235.25   10.41 
   1   3  -2  230.10   14.23 
   1   3  -2  228.34   12.38 
  -1  -3   2  240.95   14.31 
  -1  -3   2  247.95   10.21 
  -1  -3   2  246.50   11.25 
  -1  -3   2  246.34    9.89 
  -1  -3   2  231.47   11.57 
  -1  -3   2  234.28   10.73 
   1   3  -2  215.77   16.32 
   1   3  -2  218.89   19.96 
  -1  -3   2  249.90   15.86 
  -1  -3   2  228.71   13.67 
   0   3  -2  98.737   3.777 
   0   3  -2  91.704   5.505 
   0   3  -2  97.571   6.390 
   0   3  -2  94.718   5.023 
   0  -3   2  95.562   4.019 
   0  -3   2  102.80    5.14 
   0  -3   2  88.610   4.903 
   0  -3   2  109.06    5.43 
   0  -3   2  96.486   6.590 
   0   3  -2  80.112   7.104 
   0  -3   2  89.007   6.115 
   0  -3   2  75.312   6.270 
  -1   3  -2  352.35   20.05 
  -1   3  -2  340.86   20.74 
  -1   3  -2  323.26   15.27 
  -1   3  -2  355.00   17.20 
   1  -3   2  356.17   21.06 
   1  -3   2  359.94   22.10 
   1  -3   2  354.04   17.56 
   1  -3   2  329.20   13.18 
   1  -3   2  377.39   20.21 
   1  -3   2  327.35   21.70 
   1  -3   2  343.95   14.19 
  -1   3  -2  331.42   20.43 
  -1   3  -2  344.30   22.45 
   1  -3   2  325.88   18.40 
   1  -3   2  336.32   19.19 
  -2   3  -2  153.03    7.03 
  -2   3  -2  155.32    8.32 
  -2   3  -2  162.31    6.47 
   2  -3   2  164.64    9.00 
   2  -3   2  171.75    8.60 
   2  -3   2  163.92    7.39 
   2  -3   2  153.39    6.59 
   2  -3   2  158.37    7.55 
   2  -3   2  167.41    8.32 
   2  -3   2  159.30    9.08 
  -2   3  -2  149.44    8.66 
  -2   3  -2  149.32    8.75 
   2  -3   2  142.71    8.17 
   2  -3   2  153.09    8.26 
  -3   3  -2  27.527   1.728 
  -3   3  -2  30.501   2.049 
  -3   3  -2  28.572   1.527 
  -3   3  -2  28.934   1.728 
   3  -3   2  29.657   2.009 
   3  -3   2  29.175   1.969 
   3  -3   2  34.439   1.969 
   3  -3   2  29.938   2.170 
   3  -3   2  34.640   1.768 
   3  -3   2  28.251   1.929 
  -3   3  -2  26.577   3.059 
  -3   3  -2  18.544   3.077 
   3  -3   2  25.818   2.768 
   3  -3   2  21.318   3.153 
  -4   3  -2  61.806   3.536 
  -4   3  -2  63.695   3.215 
  -4   3  -2  59.756   4.420 
   4  -3   2  58.270   2.652 
   4  -3   2  63.132   3.657 
   4  -3   2  62.811   3.858 
   4  -3   2  65.985   4.059 
   4  -3   2  56.823   2.813 
   4  -3   2  58.912   3.898 
  -5   3  -2  486.81   23.95 
  -5   3  -2  512.29   25.88 
   5  -3   2  492.08   21.30 
   5  -3   2  561.08   31.26 
   5  -3   2  514.38   17.84 
   5  -3   2  477.57   30.42 
   5  -3   2  512.69   27.81 
  -6   3  -2  51.558   3.978 
  -6   3  -2  50.433   3.577 
   6  -3   2  44.446   3.737 
   6  -3   2  43.039   4.260 
  -7   3  -2  335.91   18.08 
  -7   3  -2  366.98   19.13 
   7  -3   2  346.56   25.32 
   7  -3   2  312.16   21.54 
  -8   3  -2  10.850   4.340 
  -8   3  -2  12.458   3.335 
   8  -3   2  16.275   5.747 
   8   2  -2  19.571   8.961 
   8   2  -2  8.9614  5.6260 
  -8  -2   2  20.053   4.099 
  -8  -2   2  18.244   4.179 
   7   2  -2  41.472   6.028 
   7   2  -2  53.648   5.948 
  -7  -2   2  50.755   4.621 
  -7  -2   2  47.058   4.099 
   6   2  -2  18.968   2.612 
   6   2  -2  21.781   3.295 
   6   2  -2  26.563   4.822 
  -6  -2   2  31.144   3.255 
  -6  -2   2  23.067   2.974 
  -6  -2   2  24.674   2.692 
   5   2  -2  85.234   4.903 
   5   2  -2  104.24    6.95 
   5   2  -2  87.284   5.706 
  -5  -2   2  89.815   5.867 
  -5  -2   2  83.426   5.144 
  -5  -2   2  76.434   3.215 
  -5  -2   2  88.489   3.134 
  -5  -2   2  97.451   5.224 
  -5  -2   2  96.526   3.697 
  -5  -2   2  89.092   5.104 
   4   2  -2  150.90    9.36 
   4   2  -2  170.67    9.56 
   4   2  -2  175.93   10.21 
  -4  -2   2  169.79    8.88 
  -4  -2   2  162.71    6.47 
  -4  -2   2  156.72   11.73 
  -4  -2   2  171.63    9.00 
  -4  -2   2  173.12    8.52 
  -4  -2   2  187.91    7.43 
  -4  -2   2  163.44   10.05 
   3   2  -2  160.30   11.21 
   3   2  -2  165.04    9.60 
   3   2  -2  157.65    8.20 
   3   2  -2  154.76    8.72 
   3   2  -2  149.41    7.07 
   3   2  -2  170.71    7.51 
  -3  -2   2  177.50   10.29 
  -3  -2   2  150.98    7.19 
  -3  -2   2  164.32    7.15 
  -3  -2   2  150.09    7.35 
  -3  -2   2  159.22    8.28 
   2   2  -2  115.05    5.67 
   2   2  -2  126.67    5.47 
   2   2  -2  119.07    6.55 
   2   2  -2  115.05    5.87 
   2   2  -2  117.87    6.51 
  -2  -2   2  115.37    5.87 
  -2  -2   2  121.04    5.06 
  -2  -2   2  113.65    4.50 
  -2  -2   2  112.76    4.94 
  -2  -2   2  131.57    6.19 
   2   2  -2  116.68    9.26 
   2   2  -2  111.78   10.22 
  -2  -2   2  114.71    8.91 
  -2  -2   2  127.85    9.13 
   1   2  -2  671.87   29.54 
   1   2  -2  656.15   28.13 
   1   2  -2  626.18   31.87 
   1   2  -2  653.82   38.14 
  -1  -2   2  664.11   27.25 
  -1  -2   2  708.36   29.17 
  -1  -2   2  619.47   32.19 
  -1  -2   2  640.84   28.01 
  -1  -2   2  638.92   24.83 
   1   2  -2  643.85   41.50 
   1   2  -2  666.29   55.35 
  -1  -2   2  695.97   38.62 
  -1  -2   2  659.22   37.14 
   0   2  -2 1713.93   83.59 
   0   2  -2 1715.62   82.50 
   0   2  -2 1702.03   92.43 
   0   2  -2 1734.82  114.81 
   0  -2   2 1720.72   89.98 
   0  -2   2 1617.88   52.32 
   0  -2   2 1780.07  101.27 
   0  -2   2 1632.11   53.37 
   0  -2   2 1679.45   86.80 
   0   2  -2 1583.48  102.90 
   0  -2   2 1584.11   95.37 
   0  -2   2 1668.67  106.47 
  -1   2  -2  80.934   3.737 
  -1   2  -2  88.288   5.063 
  -1   2  -2  90.217   4.782 
  -1   2  -2  87.444   4.420 
  -1   2  -2  80.090   3.858 
  -1   2  -2  87.686   4.340 
   1  -2   2  88.449   4.581 
   1  -2   2  91.423   3.416 
   1  -2   2  90.700   4.461 
   1  -2   2  82.019   5.465 
   1  -2   2  87.525   3.697 
   1  -2   2  88.851   5.063 
  -1   2  -2  83.433   5.765 
  -1   2  -2  81.864   5.565 
   1  -2   2  83.513   5.266 
   1  -2   2  78.238   5.047 
  -2   2  -2  416.04   27.13 
  -2   2  -2  474.64   24.59 
  -2   2  -2  452.73   21.46 
  -2   2  -2  477.57   23.99 
   2  -2   2  497.06   23.87 
   2  -2   2  398.24   23.67 
   2  -2   2  478.85   26.40 
   2  -2   2  470.90   20.94 
   2  -2   2  524.71   25.16 
   2  -2   2  491.07   21.46 
   2  -2   2  449.20   25.80 
  -2   2  -2  457.20   27.44 
  -2   2  -2  453.88   27.82 
   2  -2   2  479.10   26.02 
   2  -2   2  481.03   25.18 
  -3   2  -2  862.63   51.84 
  -3   2  -2  892.69   47.14 
  -3   2  -2  917.20   47.26 
   3  -2   2  983.59   51.52 
   3  -2   2  939.10   42.48 
   3  -2   2  931.71   36.33 
   3  -2   2  937.98   43.52 
   3  -2   2  952.97   40.67 
   3  -2   2  900.89   51.56 
  -3   2  -2  934.93   66.16 
  -3   2  -2  876.19   50.97 
   3  -2   2  925.66   52.18 
   3  -2   2  874.47   54.46 
  -4   2  -2  621.64   39.22 
  -4   2  -2  624.65   28.01 
  -4   2  -2  660.33   33.96 
   4  -2   2  654.99   24.75 
   4  -2   2  722.30   32.99 
   4  -2   2  672.63   32.03 
   4  -2   2  650.21   34.36 
   4  -2   2  669.13   31.79 
   4  -2   2  640.12   25.36 
  -5   2  -2  5.8671  1.4869 
  -5   2  -2  4.9429  1.6074 
   5  -2   2  5.2242  1.5672 
   5  -2   2  7.1933  2.7326 
   5  -2   2  2.3308  1.4467 
   5  -2   2  3.9382  0.6430 
   5  -2   2  4.2999  0.6028 
  -6   2  -2  178.18   10.29 
  -6   2  -2  174.57    9.68 
   6  -2   2  158.37   11.45 
   6  -2   2  168.86   10.77 
  -7   2  -2  152.59    9.52 
  -7   2  -2  154.11    8.48 
   7  -2   2  151.14   11.41 
   7  -2   2  144.15   10.93 
  -8   2  -2  79.166   6.550 
  -8   2  -2  84.953   5.827 
   8  -2   2  71.852   7.676 
   8   1  -2  8.1175  6.5905 
   8   1  -2  9.0820  5.4251 
  -8  -1   2  7.3540  3.6167 
  -8  -1   2  13.904   4.340 
   7   1  -2  8.7605  5.3447 
  -7  -1   2  7.1129  3.2952 
   6   1  -2  36.569   3.094 
   6   1  -2  37.815   4.461 
  -6  -1   2  33.073   2.773 
  -6  -1   2  36.328   3.054 
   5   1  -2  81.055   5.345 
   5   1  -2  72.535   4.903 
  -5  -1   2  79.447   2.652 
  -5  -1   2  74.706   4.581 
  -5  -1   2  73.741   4.260 
  -5  -1   2  81.457   2.813 
  -5  -1   2  84.069   2.974 
  -5  -1   2  77.157   4.059 
  -5  -1   2  67.593   4.782 
   4   1  -2  49.429   3.335 
   4   1  -2  39.945   2.572 
  -4  -1   2  43.722   2.572 
  -4  -1   2  33.877   3.818 
  -4  -1   2  40.387   2.532 
  -4  -1   2  41.311   2.170 
  -4  -1   2  41.833   1.728 
  -4  -1   2  40.105   2.692 
   3   1  -2  59.957   3.456 
   3   1  -2  68.276   3.858 
   3   1  -2  65.945   3.536 
   3   1  -2  59.555   3.295 
   3   1  -2  55.698   3.014 
  -3  -1   2  58.832   2.291 
  -3  -1   2  56.019   2.934 
  -3  -1   2  57.747   2.733 
  -3  -1   2  58.350   2.692 
  -3  -1   2  63.614   3.014 
  -3  -1   2  61.042   3.898 
   3   1  -2  42.890   6.417 
   3   1  -2  44.636   5.809 
  -3  -1   2  55.481   5.844 
  -3  -1   2  61.540   7.792 
   2   1  -2  461.53   25.88 
   2   1  -2  485.53   19.21 
   2   1  -2  487.05   24.35 
   2   1  -2  484.92   24.07 
   2   1  -2  456.27   24.88 
  -2  -1   2  445.58   17.28 
  -2  -1   2  418.78   21.46 
  -2  -1   2  453.10   21.22 
  -2  -1   2  441.20   18.81 
  -2  -1   2  453.82   17.36 
  -2  -1   2  511.32   24.35 
   2   1  -2  476.65   29.81 
   2   1  -2  430.75   31.17 
  -2  -1   2  481.50   27.35 
  -2  -1   2  490.14   26.62 
   1   1  -2  326.91   17.04 
   1   1  -2  321.89   15.47 
   1   1  -2  346.12   14.75 
   1   1  -2  318.43   16.03 
   1   1  -2  313.81   14.99 
  -1  -1   2  329.36   12.54 
  -1  -1   2  320.88   17.00 
  -1  -1   2  324.62   15.99 
  -1  -1   2  345.12   15.63 
  -1  -1   2  319.36   17.40 
   1   1  -2  308.66   20.71 
   1   1  -2  318.49   19.87 
  -1  -1   2  322.74   20.77 
  -1  -1   2  318.92   17.70 
   0   1  -2 1995.91   96.65 
   0   1  -2 2068.61  112.60 
   0   1  -2 2043.85  104.04 
   0   1  -2 2044.21  100.99 
   0   1  -2 1753.19   85.84 
   0  -1   2 2031.19   99.18 
   0  -1   2 1961.91  137.56 
   0  -1   2 2116.11  107.22 
   0  -1   2 1886.49  106.25 
   0  -1   2 1951.26  109.10 
   0   1  -2 1819.58  122.83 
   0   1  -2 2031.73  125.25 
   0  -1   2 1949.09  126.79 
   0  -1   2 1760.31  103.27 
  -1   1  -2  178.59    9.36 
  -1   1  -2  170.87    8.76 
  -1   1  -2  192.93    9.32 
  -1   1  -2  190.12    9.52 
  -1   1  -2  182.24   10.25 
   1  -1   2  187.83    8.60 
   1  -1   2  188.23    9.32 
   1  -1   2  164.20   11.81 
   1  -1   2  189.96   10.69 
   1  -1   2  182.24    7.47 
  -1   1  -2  201.84   12.24 
  -1   1  -2  189.44   12.00 
   1  -1   2  184.04   11.38 
   1  -1   2  191.65   11.57 
  -2   1  -2 1612.54   69.28 
  -2   1  -2 1460.19   77.44 
  -2   1  -2 1590.07   91.86 
  -2   1  -2 1644.08   84.43 
   2  -1   2 1425.47   83.35 
   2  -1   2 1605.91   69.08 
   2  -1   2 1655.86   83.14 
   2  -1   2 1662.25   79.53 
  -2   1  -2 1622.99  109.59 
  -2   1  -2 1718.51  104.25 
   2  -1   2 1633.67  101.51 
  -3   1  -2  563.57   31.79 
  -3   1  -2  568.15   30.34 
  -3   1  -2  562.24   29.82 
   3  -1   2  576.71   24.07 
   3  -1   2  590.13   28.21 
   3  -1   2  600.74   27.17 
   3  -1   2  598.13   24.47 
   3  -1   2  574.82   31.02 
  -3   1  -2  578.36   39.42 
  -3   1  -2  575.93   33.51 
   3  -1   2  602.36   38.09 
   3  -1   2  542.72   33.77 
  -4   1  -2  325.55   20.49 
  -4   1  -2  346.56   18.41 
  -4   1  -2  339.77   15.63 
   4  -1   2  354.20   13.78 
   4  -1   2  360.99   12.90 
   4  -1   2  375.94   17.48 
   4  -1   2  355.73   19.21 
   4  -1   2  356.29   12.70 
  -5   1  -2  192.89   10.21 
  -5   1  -2  199.84    9.52 
   5  -1   2  186.22   11.53 
   5  -1   2  186.58   10.29 
   5  -1   2  186.86   11.29 
  -6   1  -2  9.3633  2.0897 
  -6   1  -2  6.0279  1.8485 
   6  -1   2  11.131   4.019 
   6  -1   2  11.453   2.291 
  -7   1  -2  82.542   5.706 
  -7   1  -2  82.019   5.827 
   7  -1   2  80.492   7.475 
   7  -1   2  73.339   6.550 
  -8   1  -2  93.271   6.550 
  -8   1  -2  109.91    6.71 
   8  -1   2  95.562   9.524 
   8   0  -2  13.864   6.550 
  -8   0   2  20.213   3.978 
  -8   0   2  10.087   4.380 
   7   0  -2  89.213   8.158 
  -7   0   2  101.71    5.95 
  -7   0   2  87.404   6.430 
   6   0  -2  48.585   3.134 
   6   0  -2  53.528   5.184 
  -6   0   2  53.166   3.536 
  -6   0   2  50.473   3.737 
  -6   0   2  40.708   3.898 
   5   0  -2  210.82   11.49 
   5   0  -2  217.97    9.81 
  -5   0   2  214.75   10.73 
  -5   0   2  216.52   11.81 
  -5   0   2  207.04   12.06 
  -5   0   2  213.07    7.07 
  -5   0   2  215.68    7.35 
   4   0  -2  72.214   4.822 
   4   0  -2  81.537   4.300 
   4   0  -2  71.933   3.255 
  -4   0   2  67.512   3.536 
  -4   0   2  69.682   3.255 
  -4   0   2  61.444   5.023 
  -4   0   2  70.848   2.853 
  -4   0   2  68.838   2.773 
  -4   0   2  70.084   4.099 
   3   0  -2  535.40   24.27 
   3   0  -2  508.27   23.15 
   3   0  -2  558.50   26.56 
   3   0  -2  497.70   26.32 
   3   0  -2  487.62   20.58 
  -3   0   2  515.62   32.43 
  -3   0   2  480.18   19.61 
  -3   0   2  501.80   21.58 
  -3   0   2  475.76   22.66 
  -3   0   2  484.56   20.66 
  -3   0   2  478.77   17.88 
   3   0  -2  526.20   28.90 
   3   0  -2  493.49   34.59 
  -3   0   2  481.85   31.91 
   2   0  -2  5.0232  0.6832 
   2   0  -2  6.1484  0.8037 
   2   0  -2  5.2643  0.5224 
   2   0  -2  6.7512  1.1252 
   2   0  -2  6.1083  0.7233 
  -2   0   2  6.8718  1.0448 
  -2   0   2  5.4653  0.6430 
  -2   0   2  6.1083  0.4822 
  -2   0   2  6.2288  0.7233 
  -2   0   2  6.5905  0.5626 
  -2   0   2  4.3803  0.6028 
   2   0  -2  4.6711  2.5839 
   2   0  -2  5.0940  2.3747 
  -2   0   2  11.548   3.250 
  -2   0   2  4.4541  2.1043 
   1   0  -2 1789.11   77.44 
   1   0  -2 1610.41   73.22 
   1   0  -2 1663.69   78.00 
   1   0  -2 1685.52   77.36 
   1   0  -2 1778.75   75.47 
   1   0  -2 1617.52   79.25 
  -1   0   2 1668.96   80.37 
  -1   0   2 1773.20   96.61 
  -1   0   2 1641.59   94.72 
  -1   0   2 1734.34   71.77 
  -1   0   2 1615.23   72.17 
   1   0  -2 1700.97   90.59 
   1   0  -2 1614.44   96.65 
  -1   0   2 1660.14   94.36 
  -1   0   2 1660.17   97.34 
   0   0  -2  343.11   15.99 
   0   0  -2  330.13   20.49 
   0   0  -2  352.75   19.09 
   0   0  -2  340.94   16.52 
   0   0  -2  352.55   15.23 
   0   0   2  360.39   15.31 
   0   0   2  352.83   15.31 
   0   0   2  339.49   16.92 
   0   0   2  338.32   18.12 
   0   0   2  353.76   21.50 
   0   0  -2  347.28   23.41 
   0   0  -2  350.16   21.52 
   0   0   2  336.89   19.59 
   0   0   2  336.95   20.51 
  -1   0  -2 2000.41   98.42 
  -1   0  -2 1871.90   86.60 
  -1   0  -2 1967.94   98.90 
   1   0   2 1846.46  126.63 
   1   0   2 2110.24   99.30 
   1   0   2 1679.37   93.15 
   1   0   2 1981.20   80.73 
   1   0   2 1938.89  109.99 
  -1   0  -2 2052.38  121.39 
  -1   0  -2 2076.00  126.40 
   1   0   2 2103.90  139.80 
   1   0   2 2092.34  126.21 
  -2   0  -2  93.553   4.742 
  -2   0  -2  86.801   4.220 
  -2   0  -2  82.984   5.224 
  -2   0  -2  100.10    5.14 
   2   0   2  90.700   3.657 
   2   0   2  98.817   5.425 
   2   0   2  92.146   4.581 
   2   0   2  99.299   4.983 
   2   0   2  101.95    5.06 
  -2   0  -2  101.66    7.41 
   2   0   2  103.45    7.88 
   2   0   2  104.39    8.16 
  -3   0  -2 1035.11   44.81 
  -3   0  -2  979.13   46.66 
   3   0   2  947.74   33.19 
   3   0   2 1137.66   64.90 
   3   0   2 1025.10   54.57 
   3   0   2 1120.54   45.53 
   3   0   2 1043.47   55.22 
  -3   0  -2 1168.69   73.86 
  -3   0  -2 1204.17   79.44 
   3   0   2 1240.51   87.50 
   3   0   2 1140.94   83.83 
  -4   0  -2  400.21   25.64 
  -4   0  -2  425.45   23.59 
  -4   0  -2  419.10   20.49 
  -4   0  -2  396.71   21.58 
   4   0   2  415.08   20.49 
   4   0   2  449.60   22.34 
  -5   0  -2  320.88   13.50 
  -5   0  -2  321.61   17.00 
   5   0   2  306.74   18.04 
   5   0   2  305.53   17.56 
   5   0   2  315.02   17.84 
  -6   0  -2  4.2597  1.8887 
  -6   0  -2  0.6430  2.2906 
   6   0   2  0.9243  3.0943 
   6   0   2  3.7775  1.9691 
  -7   0  -2  13.985   2.773 
  -7   0  -2  18.365   2.813 
   7   0   2  12.136   3.134 
   7   0   2  26.764   6.349 
  -8   0  -2  84.310   6.189 
  -8   0  -2  82.582   5.666 
   8   0   2  74.263   9.645 
   8  -1  -2  12.136   6.148 
  -8   1   2  15.954   3.175 
  -8   1   2  17.682   3.858 
   7  -1  -2  26.442   5.224 
  -7   1   2  29.778   3.456 
   6  -1  -2  66.266   4.019 
   6  -1  -2  68.959   5.666 
  -6   1   2  69.361   4.742 
  -6   1   2  58.390   4.380 
  -6   1   2  70.124   4.139 
  -6   1   2  66.990   2.733 
   5  -1  -2  136.15    6.43 
   5  -1  -2  147.80    8.60 
  -5   1   2  127.51    7.51 
  -5   1   2  117.22    6.47 
  -5   1   2  135.27    4.82 
  -5   1   2  139.44    5.02 
  -5   1   2  134.94    7.11 
   4  -1  -2  49.790   3.777 
   4  -1  -2  45.169   2.291 
   4  -1  -2  45.571   2.934 
   4  -1  -2  46.937   3.014 
   4  -1  -2  44.164   2.291 
   4  -1  -2  53.608   3.054 
  -4   1   2  43.803   4.581 
  -4   1   2  44.807   1.929 
  -4   1   2  43.320   2.572 
  -4   1   2  46.937   2.250 
  -4   1   2  45.852   2.853 
  -4   1   2  45.892   2.009 
   3  -1  -2  2.0897  0.8439 
   3  -1  -2  3.4560  1.0850 
   3  -1  -2  2.6925  0.4420 
   3  -1  -2  1.9289  0.7635 
   3  -1  -2  2.7326  0.5626 
   3  -1  -2  1.4869  1.6074 
  -3   1   2  2.8532  0.5626 
  -3   1   2  1.6476  0.9645 
  -3   1   2  2.4915  1.2458 
  -3   1   2  2.1299  0.6028 
  -3   1   2  2.4915  0.7233 
  -3   1   2  1.7682  0.4420 
   3  -1  -2  1.9989  3.6012 
   3  -1  -2  1.2610  3.2480 
  -3   1   2  3.9958  3.2247 
  -3   1   2  4.3420  2.8330 
   2  -1  -2 1192.56   46.62 
   2  -1  -2 1289.40   61.81 
   2  -1  -2 1253.84   57.71 
   2  -1  -2 1292.90   58.19 
  -2   1   2 1199.79   59.39 
  -2   1   2 1154.02   46.09 
  -2   1   2 1269.63   62.85 
  -2   1   2 1123.92   48.26 
   2  -1  -2 1168.18   59.82 
   2  -1  -2 1228.22   64.25 
  -2   1   2 1193.29   58.17 
  -2   1   2 1138.03   62.81 
   1  -1  -2  79.648   3.657 
   1  -1  -2  83.185   3.416 
   1  -1  -2  83.386   3.898 
   1  -1  -2  88.329   4.019 
   1  -1  -2  86.078   3.737 
  -1   1   2  87.525   3.978 
  -1   1   2  81.818   3.577 
  -1   1   2  81.899   3.737 
   1  -1  -2  81.857   5.138 
   1  -1  -2  84.866   5.051 
  -1   1   2  76.553   5.306 
   0  -1  -2 1432.71   82.22 
   0  -1  -2 1308.09   68.76 
   0  -1  -2 1380.10   73.02 
   0  -1  -2 1337.18   57.71 
   0  -1  -2 1304.47   57.31 
   0   1   2 1337.39   59.84 
   0   1   2 1400.60   80.05 
   0   1   2 1229.57   82.10 
   0   1   2 1344.22   58.75 
   0   1   2 1203.12   61.48 
   0  -1  -2 1497.05   93.31 
   0  -1  -2 1464.77   84.09 
   0   1   2 1449.15   93.41 
   0   1   2 1500.38   99.18 
  -1  -1  -2 3395.99  240.35 
  -1  -1  -2 7048.30  412.01 
  -1  -1  -2 7102.49  422.37 
   1   1   2 7628.94  469.36 
   1   1   2 6971.69  522.90 
  -2  -1  -2  645.63   33.27 
  -2  -1  -2  661.06   27.00 
  -2  -1  -2  655.99   30.98 
  -2  -1  -2  716.63   36.53 
   2   1   2  686.98   38.90 
   2   1   2  649.28   30.50 
   2   1   2  732.51   41.23 
   2   1   2  612.31   28.89 
   2   1   2  699.88   41.35 
  -2  -1  -2  754.02   47.24 
  -2  -1  -2  744.98   42.52 
   2   1   2  770.63   45.05 
   2   1   2  748.83   48.22 
  -3  -1  -2  9.7250  1.2458 
  -3  -1  -2  10.971   1.286 
  -3  -1  -2  12.819   1.005 
  -3  -1  -2  11.493   1.527 
   3   1   2  11.855   1.125 
   3   1   2  11.694   0.603 
   3   1   2  11.252   1.527 
   3   1   2  12.417   1.447 
   3   1   2  10.489   0.603 
  -4  -1  -2  682.20   32.99 
  -4  -1  -2  647.43   38.46 
  -4  -1  -2  684.69   45.53 
  -4  -1  -2  668.05   31.59 
   4   1   2  636.70   38.70 
   4   1   2  645.51   33.43 
  -5  -1  -2  5.8270  1.8485 
  -5  -1  -2  2.6121  1.4467 
  -5  -1  -2  0.8037  1.2458 
   5   1   2  1.9289  2.8934 
   5   1   2  1.4869  1.6476 
   5   1   2  0.2411  2.0093 
  -6  -1  -2  61.605   4.260 
  -6  -1  -2  64.940   4.541 
   6   1   2  62.047   5.184 
   6   1   2  65.704   6.229 
  -7  -1  -2  2.4513  2.5719 
  -7  -1  -2  -1.085   2.612 
   7   1   2  -2.331   2.813 
   7   1   2  3.3354  5.5858 
  -8  -1  -2  40.347   5.666 
  -8  -1  -2  38.136   4.782 
   8   1   2  42.115   7.917 
   8  -2  -2  41.030   7.997 
  -8   2   2  37.292   3.818 
  -8   2   2  47.741   4.300 
   7  -2  -2  7.7559  3.8980 
  -7   2   2  0.9645  2.1299 
  -7   2   2  -1.125   2.411 
   6  -2  -2  116.30    7.92 
   6  -2  -2  109.06    6.35 
  -6   2   2  116.26    4.90 
  -6   2   2  116.82    6.55 
  -6   2   2  116.22    4.54 
  -6   2   2  110.75    6.59 
  -6   2   2  111.44    6.31 
   5  -2  -2  26.121   3.456 
   5  -2  -2  22.785   1.648 
   5  -2  -2  22.665   1.567 
  -5   2   2  24.754   1.447 
  -5   2   2  21.540   1.648 
  -5   2   2  23.669   2.090 
  -5   2   2  27.326   1.487 
  -5   2   2  21.258   2.090 
   4  -2  -2  342.14   16.44 
   4  -2  -2  368.02   15.15 
   4  -2  -2  412.35   22.95 
   4  -2  -2  385.38   20.13 
  -4   2   2  365.05   14.71 
  -4   2   2  373.37   19.41 
  -4   2   2  367.26   15.71 
  -4   2   2  367.42   15.31 
   3  -2  -2  126.26    6.83 
   3  -2  -2  110.59    4.98 
   3  -2  -2  132.69    6.55 
   3  -2  -2  130.89    6.91 
   3  -2  -2  122.04    4.70 
  -3   2   2  127.75    8.12 
  -3   2   2  115.05    5.14 
  -3   2   2  120.56    4.94 
  -3   2   2  123.53    5.79 
   3  -2  -2  126.71    8.34 
   3  -2  -2  126.45    8.30 
  -3   2   2  118.82    8.51 
  -3   2   2  107.14    7.93 
   2  -2  -2 1739.89   67.27 
   2  -2  -2 1825.97   92.79 
   2  -2  -2 1712.68   71.85 
  -2   2   2 1605.79   74.67 
  -2   2   2 1698.29   74.99 
  -2   2   2 1657.95   73.90 
  -2   2   2 1661.08   91.38 
   2  -2  -2 1596.42   77.46 
   2  -2  -2 1679.14   93.05 
  -2   2   2 1689.01   91.52 
  -2   2   2 1527.32   81.70 
   1  -2  -2  609.18   23.39 
   1  -2  -2  567.18   26.56 
   1  -2  -2  580.40   19.01 
   1  -2  -2  600.42   26.08 
   1  -2  -2  583.18   28.97 
  -1   2   2  577.79   30.70 
  -1   2   2  576.31   29.05 
  -1   2   2  545.20   27.81 
  -1   2   2  585.39   32.11 
   1  -2  -2  601.31   32.34 
   1  -2  -2  614.51   31.66 
  -1   2   2  591.73   36.59 
  -1   2   2  610.53   38.33 
   0  -2  -2  30.260   1.487 
   0  -2  -2  32.792   1.969 
   0  -2  -2  30.139   1.688 
   0  -2  -2  28.090   1.447 
   0  -2  -2  26.925   1.326 
   0   2   2  27.286   1.648 
   0   2   2  25.960   1.407 
   0   2   2  30.340   2.170 
   0   2   2  30.340   1.889 
   0   2   2  27.648   1.969 
   0  -2  -2  30.641   3.664 
   0  -2  -2  25.612   2.919 
   0   2   2  26.302   3.497 
   0   2   2  27.082   3.080 
  -1  -2  -2  921.58   57.87 
   1   2   2  664.19   63.82 
  -1  -2  -2 9999.00  563.89 
  -1  -2  -2 9704.47  510.62 
   1   2   2 9758.15  728.24 
   1   2   2 9959.57  640.09 
  -2  -2  -2 1035.31   51.88 
  -2  -2  -2 1043.27   41.67 
  -2  -2  -2 1019.23   59.72 
  -2  -2  -2 1108.45   57.71 
   2   2   2 1072.24   63.13 
   2   2   2 1060.42   58.35 
   2   2   2 1104.23   59.88 
   2   2   2 1045.19   55.50 
   2   2   2 1069.79   67.35 
  -2  -2  -2 1288.48   75.54 
  -2  -2  -2 1137.12   63.63 
   2   2   2 1179.74   65.93 
   2   2   2 1112.77   78.71 
  -3  -2  -2  67.151   2.612 
  -3  -2  -2  71.531   4.300 
  -3  -2  -2  73.701   3.777 
  -3  -2  -2  65.543   3.295 
  -3  -2  -2  73.178   3.295 
   3   2   2  72.777   3.054 
   3   2   2  65.463   4.501 
   3   2   2  72.254   3.255 
   3   2   2  65.342   3.898 
   3   2   2  69.240   4.019 
  -4  -2  -2  73.138   4.300 
  -4  -2  -2  71.129   3.536 
  -4  -2  -2  76.715   3.697 
   4   2   2  73.821   4.420 
   4   2   2  61.605   3.978 
   4   2   2  71.491   5.345 
  -5  -2  -2  131.41    6.99 
  -5  -2  -2  127.59    7.19 
  -5  -2  -2  118.75    6.63 
   5   2   2  128.19    7.64 
   5   2   2  136.03    8.88 
  -6  -2  -2  13.422   2.411 
  -6  -2  -2  15.110   2.291 
  -6  -2  -2  12.618   2.974 
   6   2   2  11.614   3.175 
   6   2   2  14.507   4.501 
  -7  -2  -2  62.770   5.104 
  -7  -2  -2  60.118   5.345 
   7   2   2  53.608   5.626 
   7   2   2  55.537   6.832 
  -8  -2  -2  2.1299  5.1840 
  -8  -2  -2  4.8625  4.7821 
   8   2   2  5.2242  8.3185 
   8  -3  -2  11.453   5.104 
  -8   3   2  15.994   3.858 
   7  -3  -2  63.775   6.631 
  -7   3   2  58.350   4.179 
  -7   3   2  55.416   3.938 
   6  -3  -2  1.1654  3.3354 
   6  -3  -2  1.6878  1.1654 
  -6   3   2 -0.9243  1.4467 
  -6   3   2  1.1654  1.3663 
  -6   3   2 -0.0804  1.3663 
  -6   3   2  1.0850  1.2056 
   5  -3  -2  180.76    9.89 
   5  -3  -2  168.42   10.13 
   5  -3  -2  179.43   11.17 
  -5   3   2  193.21    7.88 
  -5   3   2  197.47   10.73 
  -5   3   2  188.59    7.80 
   4  -3  -2  142.58    7.47 
   4  -3  -2  121.04    5.87 
   4  -3  -2  144.47    8.16 
   4  -3  -2  145.87    6.31 
  -4   3   2  142.66    5.59 
  -4   3   2  137.92    5.59 
  -4   3   2  135.19    5.87 
   3  -3  -2 1107.24   40.43 
   3  -3  -2 1099.45   56.06 
   3  -3  -2 1092.33   41.19 
   3  -3  -2 1128.38   43.52 
   3  -3  -2 1047.28   59.60 
   3  -3  -2 1082.45   43.48 
   3  -3  -2 1034.79   48.38 
  -3   3   2 1083.13   47.02 
  -3   3   2 1037.92   47.26 
  -3   3   2  994.16   49.15 
  -3   3   2 1164.18   63.94 
   3  -3  -2 1125.19   64.95 
   3  -3  -2 1099.76   52.53 
  -3   3   2 1021.67   60.18 
  -3   3   2 1063.57   60.24 
   2  -3  -2  34.037   1.929 
   2  -3  -2  30.742   1.246 
   2  -3  -2  36.167   1.688 
   2  -3  -2  30.983   2.170 
   2  -3  -2  33.836   1.969 
   2  -3  -2  31.506   1.688 
  -2   3   2  30.421   1.648 
  -2   3   2  32.028   1.808 
  -2   3   2  31.948   2.291 
   2  -3  -2  29.048   2.955 
   2  -3  -2  30.784   2.754 
  -2   3   2  24.514   2.992 
  -2   3   2  23.438   2.921 
   1  -3  -2 1460.64   70.20 
   1  -3  -2 1531.52   82.78 
   1  -3  -2 1542.53   67.55 
   1  -3  -2 1600.28   70.20 
   1  -3  -2 1323.80   61.85 
   1  -3  -2 1366.00   48.87 
  -1   3   2 1433.39   48.34 
  -1   3   2 1448.62   94.56 
  -1   3   2 1368.17   62.61 
  -1   3   2 1450.99   75.95 
   1  -3  -2 1703.55   90.30 
   1  -3  -2 1542.33   85.47 
  -1   3   2 1547.41   99.09 
  -1   3   2 1574.47  114.52 
   0  -3  -2 1885.08  136.07 
   0  -3  -2 1850.32   67.23 
   0  -3  -2 1750.70   68.24 
   0  -3  -2 1643.40   74.95 
   0  -3  -2 1719.79   88.65 
   0   3   2 1872.26  131.53 
   0   3   2 1526.74  109.91 
   0   3   2 1585.17   97.73 
   0   3   2 1729.84  120.12 
   0   3   2 1461.80   66.15 
   0   3   2 1694.60   78.48 
   0  -3  -2 1932.02  123.80 
   0  -3  -2 1745.73  106.20 
   0   3   2 1808.91  155.03 
  -1  -3  -2  920.98   40.47 
  -1  -3  -2  917.52   35.04 
  -1  -3  -2  905.07   43.56 
  -1  -3  -2  840.57   61.24 
  -1  -3  -2  851.14   31.99 
   1   3   2  955.62   65.50 
   1   3   2  864.64   57.06 
   1   3   2  936.49   56.22 
   1   3   2  931.99   61.36 
   1   3   2  892.53   57.71 
  -1  -3  -2 1022.40   61.76 
  -1  -3  -2  940.67   52.93 
   1   3   2  993.23   73.54 
   1   3   2  916.84   66.43 
  -2  -3  -2  183.77    6.87 
  -2  -3  -2  178.26    8.88 
  -2  -3  -2  172.56    6.99 
  -2  -3  -2  184.65   10.49 
  -2  -3  -2  182.60    8.72 
   2   3   2  185.02   12.42 
   2   3   2  173.84   11.41 
   2   3   2  192.37   13.02 
   2   3   2  180.96    9.85 
   2   3   2  178.99   10.25 
  -2  -3  -2  185.22   12.74 
  -2  -3  -2  176.73   15.16 
   2   3   2  168.53   15.05 
   2   3   2  185.50   13.98 
  -3  -3  -2  303.36   11.77 
  -3  -3  -2  330.53   15.31 
  -3  -3  -2  296.65   15.83 
   3   3   2  308.95   18.65 
   3   3   2  291.35   23.95 
   3   3   2  304.73   15.43 
  -4  -3  -2  45.249   2.572 
  -4  -3  -2  41.191   1.768 
  -4  -3  -2  40.789   2.773 
  -4  -3  -2  41.833   2.974 
   4   3   2  40.548   3.175 
   4   3   2  33.836   3.134 
   4   3   2  37.614   3.938 
  -5  -3  -2  232.80   10.65 
  -5  -3  -2  261.53   13.18 
  -5  -3  -2  251.36   11.85 
   5   3   2  238.06   13.06 
   5   3   2  245.13   15.19 
  -6  -3  -2  57.345   4.179 
  -6  -3  -2  55.296   3.818 
  -6  -3  -2  55.014   4.019 
   6   3   2  53.929   5.827 
   6   3   2  48.786   4.621 
  -7  -3  -2  30.260   4.782 
  -7  -3  -2  31.707   4.059 
  -7  -3  -2  28.452   3.978 
   7   3   2  34.721   6.671 
   7   3   2  22.464   4.581 
   8  -4  -2  42.878   6.590 
  -8   4   2  41.271   4.581 
   7  -4  -2  56.622   6.068 
  -7   4   2  44.807   4.139 
   6  -4  -2  207.96   11.90 
   6  -4  -2  197.92   11.81 
  -6   4   2  208.44   10.17 
  -6   4   2  198.96    9.85 
  -6   4   2  230.06    9.60 
   5  -4  -2  117.54    6.39 
   5  -4  -2  116.90    6.23 
   5  -4  -2  116.50    6.91 
  -5   4   2  125.06    5.67 
  -5   4   2  129.20    6.91 
  -5   4   2  117.38    5.30 
   4  -4  -2  300.07   12.70 
   4  -4  -2  275.51   12.50 
   4  -4  -2  292.63   13.22 
   4  -4  -2  272.38   16.28 
   4  -4  -2  316.74   14.35 
  -4   4   2  275.55   12.42 
  -4   4   2  300.71   14.51 
  -4   4   2  282.43   12.30 
   3  -4  -2  139.28    6.31 
   3  -4  -2  139.28    7.96 
   3  -4  -2  133.98    5.26 
   3  -4  -2  146.24    6.07 
   3  -4  -2  146.24    7.07 
   3  -4  -2  130.76    6.15 
  -3   4   2  136.99    8.84 
  -3   4   2  125.86    6.59 
  -3   4   2  130.08    6.19 
  -3   4   2  133.18    5.47 
   2  -4  -2 1916.30   92.43 
   2  -4  -2 1898.86   65.86 
   2  -4  -2 2084.16  102.72 
   2  -4  -2 2133.63  110.71 
   2  -4  -2 1983.94  102.51 
   2  -4  -2 2283.40   97.09 
   2  -4  -2 1968.14   70.85 
   2  -4  -2 1920.32   76.15 
  -2   4   2 1913.49  145.27 
  -2   4   2 1944.55  104.68 
  -2   4   2 1944.15   94.16 
   2  -4  -2 1985.57   98.19 
   2  -4  -2 1984.73   99.83 
  -2   4   2 1990.01  115.35 
  -2   4   2 1912.67  105.14 
   1  -4  -2  309.47   15.67 
   1  -4  -2  309.71   12.70 
   1  -4  -2  350.10   14.95 
   1  -4  -2  366.21   16.88 
   1  -4  -2  366.05   18.77 
   1  -4  -2  354.72   15.75 
  -1   4   2  334.51   20.45 
  -1   4   2  316.74   12.98 
  -1   4   2  318.27   14.51 
  -1   4   2  293.96   15.51 
  -1   4   2  344.92   21.94 
   1  -4  -2  323.30   19.54 
   1  -4  -2  381.01   21.48 
  -1   4   2  341.57   23.52 
  -1   4   2  346.06   24.45 
   0  -4  -2 1176.96   65.95 
   0  -4  -2 1250.74   95.16 
   0  -4  -2 1174.19   51.48 
   0  -4  -2 1263.60   52.80 
   0  -4  -2 1211.20   43.72 
   0   4   2 1117.73   46.41 
   0   4   2 1203.16   83.22 
   0   4   2 1148.11   45.37 
   0   4   2 1185.00   85.19 
   0   4   2 1202.12   79.97 
   0   4   2 1199.87   73.46 
   0  -4  -2 1368.88   90.07 
   0  -4  -2 1302.57   68.38 
   0   4   2 1293.36  100.06 
   0   4   2 1276.02   89.70 
  -1  -4  -2  154.11    6.43 
  -1  -4  -2  159.74    8.60 
  -1  -4  -2  154.31    7.92 
  -1  -4  -2  160.78    6.83 
  -1  -4  -2  150.38    6.19 
   1   4   2  147.52    8.12 
   1   4   2  136.51    7.23 
   1   4   2  160.58   11.01 
   1   4   2  150.25    9.68 
   1   4   2  153.27   10.57 
   1   4   2  150.82   10.05 
  -1  -4  -2  177.40   12.52 
  -1  -4  -2  150.36   11.82 
   1   4   2  145.83   12.91 
   1   4   2  148.95   12.20 
  -2  -4  -2 1925.47   89.01 
  -2  -4  -2 1795.06   95.84 
  -2  -4  -2 1727.23   89.33 
  -2  -4  -2 1884.68  111.92 
  -2  -4  -2 1904.41  126.38 
   2   4   2 1889.90  116.14 
   2   4   2 1958.70  130.76 
   2   4   2 1937.60  123.93 
   2   4   2 1958.82  124.17 
   2   4   2 1965.53  116.90 
  -3  -4  -2  33.555   2.009 
  -3  -4  -2  37.092   2.049 
  -3  -4  -2  33.354   2.492 
  -3  -4  -2  33.997   2.612 
   3   4   2  36.047   2.130 
   3   4   2  31.184   2.813 
   3   4   2  39.864   3.134 
  -4  -4  -2  469.21   24.96 
  -4  -4  -2  467.92   17.72 
  -4  -4  -2  469.29   24.47 
  -4  -4  -2  497.42   23.91 
   4   4   2  488.26   29.05 
   4   4   2  470.74   26.96 
  -5  -4  -2  14.025   2.331 
  -5  -4  -2  16.838   2.572 
  -5  -4  -2  14.708   2.331 
   5   4   2  7.5148  3.2551 
   5   4   2  14.829   3.215 
  -6  -4  -2  4.9429  2.7728 
  -6  -4  -2  9.4437  3.5364 
  -6  -4  -2  6.7914  3.0943 
   6   4   2  -2.532   3.416 
   6   4   2  0.9645  4.0990 
  -7  -4  -2 -0.8037  3.8578 
  -7  -4  -2  5.5858  3.6569 
  -7  -4  -2  5.1438  3.5765 
   7   4   2  4.2195  4.5812 
   7   4   2 -0.2411  5.3447 
   8  -5  -2  36.529   6.390 
  -8   5   2  43.923   4.702 
   7  -5  -2  0.3215  4.5410 
  -7   5   2  8.2381  2.4112 
  -7   5   2  1.4869  1.9691 
   6  -5  -2  178.59   11.13 
   6  -5  -2  167.25   11.13 
  -6   5   2  187.75    8.60 
  -6   5   2  199.84   11.69 
  -6   5   2  178.75    8.44 
   5  -5  -2  13.101   1.969 
   5  -5  -2  18.084   2.331 
   5  -5  -2  16.557   1.889 
   5  -5  -2  16.637   1.447 
   5  -5  -2  16.838   3.014 
  -5   5   2  18.285   1.929 
  -5   5   2  16.798   1.808 
  -5   5   2  19.128   2.090 
   4  -5  -2  464.03   23.79 
   4  -5  -2  470.09   20.66 
   4  -5  -2  464.07   28.77 
   4  -5  -2  467.68   23.55 
   4  -5  -2  442.97   22.02 
   4  -5  -2  451.65   22.46 
  -4   5   2  477.61   22.06 
  -4   5   2  430.39   19.61 
  -4   5   2  417.37   22.26 
   3  -5  -2  567.83   29.30 
   3  -5  -2  535.84   23.63 
   3  -5  -2  558.54   34.72 
   3  -5  -2  597.32   32.71 
   3  -5  -2  563.49   23.23 
   3  -5  -2  596.20   32.39 
   3  -5  -2  565.25   20.98 
  -3   5   2  537.00   25.68 
  -3   5   2  574.70   45.33 
  -3   5   2  521.73   27.21 
   2  -5  -2  793.47   45.17 
   2  -5  -2  744.68   25.56 
   2  -5  -2  733.79   27.41 
   2  -5  -2  731.91   35.85 
   2  -5  -2  712.66   32.43 
   2  -5  -2  714.71   26.36 
   2  -5  -2  739.46   42.60 
   2  -5  -2  791.46   43.12 
  -2   5   2  696.98   54.09 
  -2   5   2  690.07   37.73 
  -2   5   2  703.49   39.30 
  -2   5   2  721.74   28.09 
   1  -5  -2  568.79   27.29 
   1  -5  -2  492.52   24.96 
   1  -5  -2  491.11   19.81 
   1  -5  -2  505.14   26.40 
   1  -5  -2  556.25   28.61 
   1  -5  -2  566.10   36.17 
  -1   5   2  479.46   22.14 
  -1   5   2  516.63   25.96 
  -1   5   2  512.21   35.56 
  -1   5   2  511.73   32.67 
  -1   5   2  481.11   20.94 
  -1   5   2  484.96   28.13 
   1  -5  -2  617.12   41.02 
   1  -5  -2  572.38   30.36 
  -1   5   2  531.13   37.94 
  -1   5   2  535.94   36.60 
   0  -5  -2  266.83   12.38 
   0  -5  -2  253.65   11.25 
   0  -5  -2  241.92   10.41 
   0  -5  -2  266.83   16.48 
   0  -5  -2  259.92   10.25 
   0   5   2  247.22    9.81 
   0   5   2  238.66   15.75 
   0   5   2  240.99   15.91 
   0   5   2  243.73   11.09 
   0   5   2  234.16    9.16 
   0   5   2  239.79   15.55 
   0  -5  -2  303.68   22.21 
   0  -5  -2  246.60   16.01 
   0   5   2  247.54   19.61 
   0   5   2  267.89   20.89 
  -1  -5  -2  201.45    9.48 
  -1  -5  -2  197.71   12.06 
  -1  -5  -2  202.82    9.85 
  -1  -5  -2  192.61    9.77 
  -1  -5  -2  208.16   11.77 
   1   5   2  196.95   11.69 
   1   5   2  194.10    8.80 
   1   5   2  194.66    8.88 
   1   5   2  199.32   11.37 
   1   5   2  200.97   12.58 
   1   5   2  190.72   12.30 
  -2  -5  -2  264.10   16.72 
  -2  -5  -2  266.83   14.07 
  -2  -5  -2  275.92   16.80 
  -2  -5  -2  258.72   14.59 
   2   5   2  252.13   13.70 
   2   5   2  263.62   14.31 
   2   5   2  266.59   17.64 
   2   5   2  283.99   15.95 
   2   5   2  271.38   12.38 
   2   5   2  265.63   13.34 
  -3  -5  -2  202.46   10.17 
  -3  -5  -2  196.43    9.85 
  -3  -5  -2  201.05    9.12 
  -3  -5  -2  195.26    9.64 
   3   5   2  187.51   11.98 
   3   5   2  185.26    9.24 
   3   5   2  200.37   12.70 
   3   5   2  192.25   14.95 
  -4  -5  -2  43.481   2.652 
  -4  -5  -2  53.769   3.737 
  -4  -5  -2  55.778   3.255 
  -4  -5  -2  43.923   3.617 
   4   5   2  48.946   4.300 
   4   5   2  42.959   4.260 
  -5  -5  -2  63.413   4.662 
  -5  -5  -2  70.647   4.420 
  -5  -5  -2  66.025   4.059 
   5   5   2  70.928   6.108 
   5   5   2  64.780   5.867 
  -6  -5  -2  42.034   4.420 
  -6  -5  -2  39.463   4.019 
  -6  -5  -2  39.985   4.059 
   6   5   2  37.252   5.988 
   6   5   2  41.271   5.907 
   6   5   2  39.503   5.666 
  -7  -5  -2  31.707   5.385 
  -7  -5  -2  31.707   4.662 
  -7  -5  -2  27.889   6.229 
   7   5   2  25.598   6.028 
   7   5   2  31.265   6.590 
   7   5   2  39.864   7.997 
   8  -6  -2  5.5456  5.9073 
  -8   6   2  1.8485  3.4962 
   7  -6  -2  114.49    8.24 
  -7   6   2  116.34    7.60 
  -7   6   2  113.77    6.51 
   6  -6  -2  1.7280  1.6476 
   6  -6  -2  -3.054   3.215 
  -6   6   2  1.0850  1.7682 
  -6   6   2  0.0402  1.2056 
  -6   6   2  5.0634  1.9691 
   5  -6  -2 1718.59  105.57 
   5  -6  -2 1552.86   77.00 
  -5   6   2 1642.64   84.11 
  -5   6   2 1643.36   83.31 
  -5   6   2 1661.77   65.90 
   4  -6  -2  6.7512  1.2458 
   4  -6  -2  10.247   1.447 
   4  -6  -2  5.0232  2.2102 
   4  -6  -2  11.654   1.969 
  -4   6   2  9.2829  1.6074 
  -4   6   2  7.9568  1.8084 
   3  -6  -2  513.90   19.97 
   3  -6  -2  480.54   24.79 
   3  -6  -2  586.27   31.91 
   3  -6  -2  525.03   26.48 
   3  -6  -2  505.30   19.85 
  -3   6   2  469.89   24.92 
  -3   6   2  476.97   36.85 
  -3   6   2  458.84   21.78 
   2  -6  -2  7.0727  1.4467 
   2  -6  -2  9.5240  1.5271 
   2  -6  -2  8.1577  1.3663 
   2  -6  -2  6.6307  1.5271 
   2  -6  -2  5.6662  0.9645 
  -2   6   2  4.3401  1.4869 
  -2   6   2  6.2690  1.4467 
  -2   6   2  7.9166  0.8037 
  -2   6   2  6.3494  1.2859 
   1  -6  -2  123.61    6.75 
   1  -6  -2  140.17    7.03 
   1  -6  -2  115.13    5.47 
   1  -6  -2  130.28    7.11 
   1  -6  -2  128.96    7.47 
   1  -6  -2  122.49    5.91 
  -1   6   2  114.93    7.07 
  -1   6   2  121.44    4.90 
  -1   6   2  109.43    7.76 
  -1   6   2  118.19    5.30 
  -1   6   2  116.50    5.67 
  -1   6   2  124.50    6.23 
   0  -6  -2  72.696   3.818 
   0  -6  -2  73.460   5.626 
   0  -6  -2  72.415   4.139 
   0  -6  -2  72.174   4.420 
   0   6   2  72.495   4.340 
   0   6   2  70.607   3.617 
   0   6   2  71.852   3.536 
   0   6   2  72.696   3.737 
  -1  -6  -2  764.01   46.25 
  -1  -6  -2  739.82   48.02 
  -1  -6  -2  722.94   34.64 
  -1  -6  -2  761.00   53.41 
   1   6   2  717.48   33.35 
   1   6   2  720.73   41.75 
   1   6   2  702.97   26.84 
   1   6   2  667.21   41.91 
   1   6   2  748.10   41.67 
  -2  -6  -2  6.6307  1.7280 
  -2  -6  -2  2.2906  1.5271 
  -2  -6  -2  0.6430  1.3261 
  -2  -6  -2 -0.5626  1.5271 
   2   6   2  2.2906  1.6074 
   2   6   2  4.3401  1.5271 
   2   6   2  1.9289  1.6074 
   2   6   2  3.2952  1.4467 
   2   6   2  -1.246   1.808 
  -3  -6  -2  138.16    7.84 
  -3  -6  -2  143.06    7.72 
  -3  -6  -2  131.81    8.56 
  -3  -6  -2  128.03    7.64 
   3   6   2  152.83    8.72 
   3   6   2  132.81    9.64 
   3   6   2  148.37    9.28 
   3   6   2  131.49    8.68 
   3   6   2  139.08    6.75 
  -4  -6  -2  59.716   4.099 
  -4  -6  -2  67.432   4.260 
  -4  -6  -2  54.090   4.059 
   4   6   2  63.333   6.189 
   4   6   2  65.543   5.023 
   4   6   2  66.266   5.385 
  -5  -6  -2  34.399   3.697 
  -5  -6  -2  38.498   4.099 
  -5  -6  -2  39.422   3.978 
   5   6   2  34.721   5.385 
   5   6   2  36.087   5.104 
   5   6   2  32.711   4.983 
  -6  -6  -2  1.9289  3.3756 
  -6  -6  -2  4.0186  3.7373 
  -6  -6  -2  3.7373  3.4962 
   6   6   2  17.280   4.903 
   6   6   2  4.4204  4.1793 
   8  -7  -2  15.431   6.631 
  -8   7   2  14.226   3.697 
   7  -7  -2  27.005   5.144 
  -7   7   2  31.867   3.295 
  -7   7   2  29.818   3.938 
   6  -7  -2  212.66   12.34 
   6  -7  -2  230.47   15.71 
   6  -7  -2  221.75   13.66 
  -6   7   2  239.47   12.26 
  -6   7   2  226.97   10.73 
   5  -7  -2  33.354   3.818 
   5  -7  -2  31.345   4.461 
   5  -7  -2  38.538   3.376 
   5  -7  -2  36.047   2.974 
  -5   7   2  36.770   3.014 
  -5   7   2  37.614   3.175 
   4  -7  -2  32.350   2.250 
   4  -7  -2  31.104   2.733 
   4  -7  -2  33.917   2.612 
   4  -7  -2  26.643   2.934 
  -4   7   2  33.756   2.572 
  -4   7   2  33.314   2.974 
   3  -7  -2  119.03    8.04 
   3  -7  -2  116.86    5.47 
   3  -7  -2  119.67    7.19 
   3  -7  -2  110.31    5.59 
   3  -7  -2  115.05    5.34 
  -3   7   2  119.63    8.48 
  -3   7   2  117.46    6.59 
  -3   7   2  126.22    4.94 
  -3   7   2  121.56    6.59 
   2  -7  -2  258.19   10.49 
   2  -7  -2  266.59   11.45 
   2  -7  -2  274.87   14.27 
  -2   7   2  254.22   17.84 
  -2   7   2  252.89   11.05 
  -2   7   2  258.76   11.37 
  -2   7   2  252.41   13.82 
  -2   7   2  247.06   14.55 
   1  -7  -2  32.149   2.733 
   1  -7  -2  27.608   1.849 
   1  -7  -2  28.090   1.889 
  -1   7   2  26.764   2.331 
  -1   7   2  28.572   2.291 
  -1   7   2  28.773   1.607 
  -1   7   2  27.728   2.411 
  -1   7   2  30.139   1.768 
   0  -7  -2  270.69   17.20 
   0  -7  -2  262.65   12.70 
   0   7   2  258.92   11.37 
   0   7   2  225.72   11.01 
   0   7   2  255.90   15.63 
   0   7   2  269.41   14.11 
  -1  -7  -2  29.979   2.813 
  -1  -7  -2  35.886   2.451 
   1   7   2  30.099   2.451 
   1   7   2  35.082   2.250 
   1   7   2  39.342   2.893 
   1   7   2  32.832   2.009 
  -2  -7  -2  173.72    8.04 
  -2  -7  -2  176.26   12.58 
   2   7   2  187.07   12.74 
   2   7   2  184.17    7.31 
   2   7   2  167.17   12.22 
   2   7   2  173.28    9.89 
   2   7   2  199.32   10.25 
  -3  -7  -2 -0.4822  2.0897 
  -3  -7  -2  0.9645  1.9691 
   3   7   2  -1.607   2.049 
   3   7   2  0.4822  2.6925 
   3   7   2  1.6878  2.7326 
   3   7   2 -0.0804  1.6878 
  -4  -7  -2  84.350   5.505 
  -4  -7  -2  91.664   5.747 
  -4  -7  -2  78.322   5.184 
   4   7   2  101.03    7.23 
   4   7   2  94.276   8.479 
   4   7   2  85.234   7.033 
  -5  -7  -2  0.1206  3.3756 
  -5  -7  -2  4.7821  2.7728 
  -5  -7  -2  2.9336  3.2149 
   5   7   2  -3.536   4.943 
   5   7   2 -0.1607  3.8177 
  -6  -7  -2  14.989   5.144 
  -6  -7  -2  19.812   5.224 
  -6  -7  -2  12.096   4.983 
   6   7   2  16.356   6.309 
   6   7   2  18.928   6.309 
   8  -8  -2  53.086   9.002 
   8  -8  -2  57.024   6.068 
  -8   8   2  60.882   6.430 
   7  -8  -2  20.897   4.139 
   7  -8  -2  13.703   5.104 
  -7   8   2  19.450   3.416 
  -7   8   2  23.911   4.059 
   6  -8  -2  51.599   4.782 
   6  -8  -2  52.603   5.546 
   6  -8  -2  49.710   4.019 
  -6   8   2  49.348   3.978 
   5  -8  -2  53.487   4.782 
   5  -8  -2  57.667   4.742 
   5  -8  -2  54.171   4.179 
  -5   8   2  60.801   4.099 
   4  -8  -2  359.42   19.77 
   4  -8  -2  377.71   23.59 
   4  -8  -2  361.47   21.70 
   4  -8  -2  358.38   15.59 
  -4   8   2  334.87   17.92 
  -4   8   2  346.64   19.41 
   3  -8  -2  79.849   4.260 
   3  -8  -2  66.668   4.099 
   3  -8  -2  75.067   5.063 
  -3   8   2  72.897   3.978 
  -3   8   2  66.387   3.134 
  -3   8   2  73.178   5.063 
   2  -8  -2  408.17   24.51 
   2  -8  -2  388.48   16.92 
   2  -8  -2  385.95   16.15 
  -2   8   2  388.68   17.48 
  -2   8   2  390.08   14.83 
  -2   8   2  401.18   21.58 
  -2   8   2  386.19   17.48 
   1  -8  -2  2.4112  0.7635 
   1  -8  -2 -0.1607  1.4467 
   1  -8  -2  3.0943  1.9289 
  -1   8   2  2.2102  1.8485 
  -1   8   2  1.4065  1.0448 
  -1   8   2  2.2906  1.1252 
  -1   8   2  2.6523  1.4467 
   0  -8  -2  74.585   4.300 
   0  -8  -2  77.840   4.862 
   0   8   2  79.447   4.019 
   0   8   2  83.305   3.777 
   0   8   2  77.277   3.978 
  -1  -8  -2  175.01   12.18 
  -1  -8  -2  160.30    9.56 
   1   8   2  169.06    8.40 
   1   8   2  166.29    7.51 
  -2  -8  -2  24.071   2.974 
  -2  -8  -2  26.563   2.572 
   2   8   2  25.719   2.090 
   2   8   2  23.991   2.652 
   2   8   2  26.201   3.134 
  -3  -8  -2  41.351   4.099 
  -3  -8  -2  41.592   3.858 
   3   8   2  35.725   3.014 
   3   8   2  41.391   4.621 
   3   8   2  39.221   4.260 
  -4  -8  -2  1.2056  2.7728 
  -4  -8  -2 -0.8841  2.8934 
  -4  -8  -2  5.3849  3.3756 
   4   8   2  3.2149  3.5364 
   4   8   2  1.3261  4.1793 
  -5  -8  -2  20.374   3.818 
  -5  -8  -2  22.183   4.179 
   5   8   2  27.326   6.068 
   5   8   2  24.272   5.787 
   8  -9  -2  6.3896  4.5812 
   8  -9  -2  1.6074  7.5951 
   7  -9  -2  35.564   7.434 
   7  -9  -2  40.548   5.023 
  -7   9   2  34.881   4.461 
   6  -9  -2  4.5008  4.0588 
   6  -9  -2  5.1840  2.4112 
   6  -9  -2  9.0418  3.2952 
  -6   9   2  7.3540  3.4158 
   5  -9  -2  35.966   3.737 
   5  -9  -2  35.444   3.938 
   5  -9  -2  40.025   3.737 
   4  -9  -2  3.2952  2.3710 
   4  -9  -2  -2.692   2.090 
  -4   9   2  -1.206   0.964 
  -4   9   2  0.9645  2.3308 
  -4   9   2  0.1206  1.6074 
   3  -9  -2  114.49    7.55 
   3  -9  -2  115.01    5.43 
  -3   9   2  102.76    6.39 
  -3   9   2  114.25    4.34 
   2  -9  -2  3.5364  1.4869 
   2  -9  -2  1.7280  1.7682 
  -2   9   2  0.4822  1.1654 
  -2   9   2  2.9738  2.0093 
  -2   9   2  1.9289  1.2056 
  -2   9   2  1.1654  1.5672 
   1  -9  -2  91.865   6.349 
  -1   9   2  90.820   5.144 
  -1   9   2  89.333   5.023 
  -1   9   2  101.35    4.74 
   0  -9  -2  1.2458  2.0495 
   0  -9  -2 -0.5224  1.9691 
   0   9   2  5.3045  1.7682 
   0   9   2  3.8980  1.6476 
   0   9   2  3.8980  1.8084 
  -1  -9  -2  88.489   5.345 
  -1  -9  -2  94.557   6.229 
   1   9   2  87.364   6.751 
   1   9   2  91.021   4.862 
  -2  -9  -2  22.263   3.215 
  -2  -9  -2  23.308   3.014 
   2   9   2  14.025   2.492 
   2   9   2  18.365   3.335 
  -3  -9  -2  17.481   2.893 
  -3  -9  -2  25.397   3.536 
   3   9   2  20.615   4.099 
   3   9   2  21.178   3.175 
  -4  -9  -2  2.4915  3.1747 
  -4  -9  -2  4.2597  2.7728 
  -4  -9  -2  6.1484  3.6167 
   4   9   2  10.649   4.461 
   7 -10  -2  7.5148  5.6260 
   7 -10  -2  2.2102  3.3756 
  -7  10   2  2.7728  3.8980 
   6 -10  -2  43.923   4.702 
   6 -10  -2  43.883   5.184 
  -6  10   2  39.503   4.501 
   5 -10  -2  16.677   3.777 
   5 -10  -2  26.442   3.295 
   5 -10  -2  20.173   3.335 
  -5  10   2  26.241   3.697 
   4 -10  -2  20.816   3.054 
   4 -10  -2  29.818   3.697 
  -4  10   2  21.741   2.090 
  -4  10   2  30.059   3.175 
   3 -10  -2  0.7635  2.6523 
  -3  10   2  -3.255   2.652 
  -3  10   2 -0.9645  1.4869 
   2 -10  -2  86.601   6.068 
  -2  10   2  99.179   5.948 
  -2  10   2  93.231   4.581 
  -2  10   2  89.333   4.461 
   1 -10  -2  2.4915  2.2102 
   1 -10  -2  4.9429  2.7326 
  -1  10   2  2.7728  1.7682 
  -1  10   2  1.8485  1.4065 
  -1  10   2  0.0000  1.6878 
   0 -10  -2  58.430   4.581 
   0 -10  -2  55.738   4.862 
   0  10   2  75.951   4.541 
   0  10   2  69.200   4.420 
   0  10   2  61.163   4.983 
  -1 -10  -2  17.601   2.692 
  -1 -10  -2  20.254   3.215 
   1  10   2  26.482   3.175 
   1  10   2  20.937   3.054 
  -2 -10  -2  53.086   5.104 
  -2 -10  -2  46.415   4.340 
   2  10   2  45.932   5.063 
   2  10   2  38.056   4.139 
  -3 -10  -2  8.5596  3.6167 
  -3 -10  -2  12.498   3.697 
   3  10   2  0.7233  4.0588 
  -4 -10  -2  14.145   4.059 
  -4 -10  -2  26.040   5.104 
  -4 -10  -2  20.615   4.742 
   4  10   2  14.467   6.470 
   7 -11  -2  -2.210   4.822 
  -7  11   2  -2.291   4.581 
   6 -11  -2  19.370   4.059 
  -6  11   2  23.870   4.380 
   5 -11  -2  12.699   3.938 
  -5  11   2  10.207   3.215 
   4 -11  -2  25.397   3.456 
  -4  11   2  24.996   3.737 
   3 -11  -2  21.218   4.099 
  -3  11   2  24.996   3.175 
   2 -11  -2  21.540   4.059 
  -2  11   2  19.048   3.335 
   1 -11  -2  18.365   3.496 
   1 -11  -2  20.294   3.014 
  -1  11   2  13.623   2.974 
  -1  11   2  22.745   2.974 
  -1  11   2  19.289   3.577 
   0 -11  -2  5.8270  3.6569 
   0 -11  -2  6.7110  2.7326 
   0  11   2  7.2736  2.6925 
   0  11   2  6.3896  3.0943 
   0  11   2  10.649   2.331 
  -1 -11  -2  19.852   4.260 
  -1 -11  -2  23.790   3.376 
   1  11   2  19.329   3.094 
   1  11   2  23.911   3.456 
   1  11   2  18.767   3.697 
  -2 -11  -2  8.5998  3.3354 
  -2 -11  -2  4.3803  3.3756 
   2  11   2  7.3138  4.1793 
   2  11   2  7.7961  2.7326 
  -3 -11  -2  32.591   5.465 
  -3 -11  -2  22.223   4.621 
   6 -12  -2  18.124   4.943 
  -6  12   2  19.530   5.104 
   5 -12  -2  28.331   4.461 
  -5  12   2  31.666   5.104 
   4 -12  -2  -1.005   4.059 
  -4  12   2  4.8625  3.6971 
   3 -12  -2  32.109   5.104 
  -3  12   2  37.333   4.059 
   2 -12  -2  29.054   4.541 
  -2  12   2  34.520   4.260 
   1 -12  -2  6.9522  3.3354 
   1 -12  -2  3.2149  3.5765 
  -1  12   2  7.1129  2.8934 
   0 -12  -2  18.043   4.139 
   0 -12  -2  19.088   4.099 
   0  12   2  9.7250  3.8578 
  -1 -12  -2  16.758   3.697 
  -1 -12  -2  17.682   4.501 
   1  12   2  15.552   4.099 
  -2 -12  -2  8.7203  4.3401 
  -2 -12  -2  13.784   4.782 
   2  12   2 -0.2009  4.4606 
   5 -13  -2  -1.688   4.862 
   4 -13  -2  1.2458  4.8625 
  -4  13   2  2.1299  3.7775 
   3 -13  -2  -3.456   3.577 
  -3  13   2 -0.5224  3.3354 
   2 -13  -2  1.4869  3.4560 
   2 -13  -2  8.3185  4.2597 
  -2  13   2  2.0495  4.0990 
   1 -13  -2  6.0279  4.0588 
   1 -13  -2 -0.8439  3.4158 
  -1  13   2  -7.113   3.496 
   0 -13  -2  5.3045  4.5008 
   0 -13  -2  17.240   4.702 
   0  13   2  4.8223  4.0588 
   1  13  -3  40.105   6.430 
   1  13  -3  42.878   5.385 
  -1 -13   3  39.101   5.666 
   0  13  -3  22.544   5.184 
   0  13  -3  24.353   4.782 
   0 -13   3  21.941   4.099 
  -1  13  -3  6.1484  3.3756 
  -1  13  -3  7.0727  4.3803 
   1 -13   3  7.2335  4.3401 
  -2  13  -3  31.626   4.059 
  -2  13  -3  34.359   5.104 
   2 -13   3  41.914   4.983 
  -3  13  -3  11.091   3.777 
  -3  13  -3  14.266   3.577 
   3 -13   3  14.387   4.260 
  -4  13  -3  3.6569  3.2952 
  -4  13  -3  2.0093  2.8532 
   4 -13   3  -3.737   4.220 
   4 -13   3  0.1206  3.7775 
   5 -13   3  6.2690  4.7017 
   2  12  -3  77.599   6.550 
   2  12  -3  87.123   8.198 
  -2 -12   3  74.746   7.595 
   1  12  -3  63.695   6.390 
   1  12  -3  57.385   4.903 
  -1 -12   3  49.509   5.867 
   0  12  -3  25.598   3.978 
   0  12  -3  24.312   4.019 
   0 -12   3  16.476   3.777 
  -1  12  -3  18.285   3.536 
  -1  12  -3  11.051   3.014 
   1 -12   3  12.819   3.496 
  -2  12  -3  35.364   4.139 
  -2  12  -3  26.724   3.617 
   2 -12   3  38.659   3.978 
  -3  12  -3  -1.366   3.376 
  -3  12  -3  1.7280  3.0139 
   3 -12   3  -1.366   2.451 
  -4  12  -3  34.078   4.179 
   4 -12   3  36.207   4.742 
   4 -12   3  31.546   4.822 
  -5  12  -3  3.7775  3.0943 
   5 -12   3  6.4699  4.0990 
   5 -12   3  8.2381  3.9382 
  -6  12  -3  7.0325  4.0990 
   6 -12   3  11.413   5.023 
   6 -12   3  7.9568  4.5812 
  -3 -11   3  33.033   4.461 
   2  11  -3  8.1979  3.7775 
   2  11  -3  -1.487   3.898 
  -2 -11   3 -0.4420  3.6971 
   1  11  -3  254.82   13.34 
   1  11  -3  246.22   15.43 
  -1 -11   3  245.58   15.51 
   0  11  -3  3.6167  2.4915 
   0  11  -3  6.3494  2.9336 
   0 -11   3  5.8270  2.4513 
  -1  11  -3  6.6307  2.8532 
  -1  11  -3  6.3494  2.7326 
   1 -11   3  14.025   3.054 
  -2  11  -3  5.7466  2.3308 
  -2  11  -3  1.9289  3.0541 
   2 -11   3  5.4251  2.8532 
  -3  11  -3  30.702   3.577 
  -3  11  -3  31.385   3.456 
   3 -11   3  38.177   4.019 
  -4  11  -3  4.0990  2.4915 
  -4  11  -3  3.6167  1.9289 
   4 -11   3  3.5765  3.8177 
   4 -11   3  -3.416   2.934 
  -5  11  -3  69.120   5.345 
   5 -11   3  76.835   7.113 
   5 -11   3  60.841   5.706 
  -6  11  -3  0.4822  3.8177 
   6 -11   3  0.5224  4.2195 
   6 -11   3  5.5858  3.5364 
   4  10  -3  10.046   5.345 
  -4 -10   3  15.793   4.179 
   3  10  -3  19.611   4.702 
  -3 -10   3  9.1624  3.7373 
   2  10  -3  102.15    7.51 
  -2 -10   3  89.574   6.349 
  -2 -10   3  86.239   8.118 
   1  10  -3  61.484   4.581 
   1  10  -3  66.709   4.983 
  -1 -10   3  47.098   4.581 
  -1 -10   3  60.962   4.019 
   0  10  -3  61.002   4.983 
   0  10  -3  63.092   4.702 
   0 -10   3  68.758   4.501 
   0 -10   3  61.645   3.496 
  -1  10  -3  5.9073  2.0093 
  -1  10  -3  10.046   2.492 
   1 -10   3  7.7961  2.4513 
   1 -10   3  2.2906  1.6878 
  -2  10  -3  23.589   2.813 
  -2  10  -3  20.374   2.652 
   2 -10   3  14.748   2.652 
  -3  10  -3  13.181   3.014 
   3 -10   3  11.332   2.451 
   3 -10   3  6.4297  4.1793 
   3 -10   3  12.900   2.532 
  -4  10  -3  255.14   13.10 
   4 -10   3  219.82   15.03 
   4 -10   3  267.68   16.48 
   4 -10   3  260.12   14.67 
  -5  10  -3  2.8532  2.6523 
   5 -10   3  -2.934   3.054 
   5 -10   3  2.8934  2.8130 
   5 -10   3  1.8887  3.0139 
  -6  10  -3  40.266   4.420 
   6 -10   3  38.940   4.943 
   6 -10   3  33.917   4.380 
   6 -10   3  25.317   5.465 
   7 -10   3  1.4467  4.7419 
   7 -10   3  7.1531  4.8625 
   5   9  -3  3.1345  5.7064 
  -5  -9   3  -2.974   3.416 
  -5  -9   3  0.6430  4.0990 
   4   9  -3  78.041   6.952 
  -4  -9   3  58.912   4.782 
  -4  -9   3  66.066   5.867 
  -4  -9   3  63.976   5.184 
   3   9  -3  1.0850  3.2149 
  -3  -9   3  4.1391  2.1700 
  -3  -9   3 -0.4019  2.3308 
  -3  -9   3  3.6569  2.5317 
   2   9  -3  61.846   4.862 
  -2  -9   3  46.254   3.657 
  -2  -9   3  46.455   3.335 
  -2  -9   3  51.518   4.621 
   1   9  -3  22.142   2.612 
   1   9  -3  19.289   3.295 
  -1  -9   3  22.584   2.130 
  -1  -9   3  21.821   2.813 
   0   9  -3  407.20   20.21 
   0   9  -3  395.79   19.57 
   0  -9   3  401.54   20.49 
   0  -9   3  392.46   15.99 
  -1   9  -3  83.024   4.742 
  -1   9  -3  80.412   5.425 
   1  -9   3  73.138   4.300 
   1  -9   3  89.373   4.179 
   1  -9   3  97.853   4.943 
  -2   9  -3  148.41    8.16 
  -2   9  -3  156.16    9.24 
   2  -9   3  141.45    8.64 
   2  -9   3  163.07    9.04 
  -3   9  -3  27.487   2.733 
  -3   9  -3  29.898   2.773 
   3  -9   3  28.050   3.295 
   3  -9   3  20.414   2.532 
   3  -9   3  31.466   2.893 
  -4   9  -3 -0.3215  1.7280 
   4  -9   3  2.5719  2.2102 
   4  -9   3  0.4019  1.8887 
   4  -9   3  0.9243  2.1299 
  -5   9  -3  132.77    8.08 
   5  -9   3  144.07    9.24 
   5  -9   3  142.14    7.76 
   5  -9   3  124.34    9.12 
  -6   9  -3  8.1175  3.2149 
  -6   9  -3  8.5596  2.9738 
   6  -9   3  7.1933  3.5364 
   6  -9   3  11.734   3.617 
   6  -9   3  8.9614  2.7326 
  -7   9  -3  41.552   4.501 
   7  -9   3  41.833   6.751 
   7  -9   3  44.968   5.144 
   5   8  -3  110.35    9.89 
  -5  -8   3  97.290   7.193 
  -5  -8   3  108.46    7.27 
  -5  -8   3  103.72    8.00 
   4   8  -3  -2.451   3.456 
  -4  -8   3  0.4019  2.4112 
  -4  -8   3  0.4420  2.0495 
  -4  -8   3  4.3401  3.4158 
   3   8  -3  36.047   4.380 
   3   8  -3  33.997   4.220 
  -3  -8   3  30.702   2.773 
  -3  -8   3  31.666   2.652 
  -3  -8   3  36.891   3.697 
   2   8  -3  19.289   2.692 
   2   8  -3  14.226   1.849 
  -2  -8   3  15.190   1.688 
  -2  -8   3  16.476   2.612 
  -2  -8   3  15.833   1.969 
   1   8  -3  402.50   15.71 
   1   8  -3  367.74   19.65 
  -1  -8   3  368.79   21.10 
  -1  -8   3  361.63   18.04 
   0   8  -3  12.056   1.929 
   0   8  -3  12.458   2.009 
   0  -8   3  7.4746  1.7682 
   0  -8   3  10.006   1.326 
  -1   8  -3  152.30    7.64 
  -1   8  -3  144.15    6.91 
   1  -8   3  146.12    5.63 
   1  -8   3  137.64    6.35 
   1  -8   3  137.64    7.64 
   1  -8   3  155.12    8.24 
  -2   8  -3  14.387   1.808 
  -2   8  -3  21.580   2.170 
   2  -8   3  18.566   1.607 
   2  -8   3  14.387   1.567 
   2  -8   3  16.516   2.331 
   2  -8   3  22.102   2.371 
  -3   8  -3  208.08    9.40 
  -3   8  -3  210.57    8.96 
   3  -8   3  210.25    9.93 
   3  -8   3  184.53   13.74 
   3  -8   3  184.13    9.89 
   3  -8   3  204.95   10.65 
   3  -8   3  203.14   10.41 
  -4   8  -3  26.884   2.371 
   4  -8   3  19.651   2.853 
   4  -8   3  21.700   2.652 
   4  -8   3  23.107   2.451 
  -5   8  -3  205.67   10.69 
  -5   8  -3  202.98   10.37 
   5  -8   3  188.19   12.78 
   5  -8   3  180.19   12.70 
   5  -8   3  192.85   11.98 
  -6   8  -3  34.479   3.617 
   6  -8   3  38.177   4.581 
   6  -8   3  33.836   4.461 
   6  -8   3  32.792   3.376 
  -7   8  -3  53.327   4.501 
   7  -8   3  46.093   6.992 
   7  -8   3  44.204   5.023 
  -8   8  -3  5.0634  4.3803 
   8  -8   3  2.0897  6.1484 
   6   7  -3  37.775   6.832 
  -6  -7   3  22.343   5.747 
  -6  -7   3  30.180   3.978 
  -6  -7   3  24.232   4.541 
   5   7  -3  4.4204  4.8223 
  -5  -7   3  4.5008  2.8130 
  -5  -7   3  3.6569  3.6569 
  -5  -7   3  1.4467  2.3710 
   4   7  -3  63.534   5.224 
   4   7  -3  56.702   4.822 
  -4  -7   3  59.555   5.264 
  -4  -7   3  57.225   4.179 
  -4  -7   3  54.613   4.059 
   3   7  -3  46.455   3.818 
   3   7  -3  40.226   3.175 
  -3  -7   3  39.503   2.813 
  -3  -7   3  39.543   3.456 
  -3  -7   3  36.489   2.934 
   2   7  -3  258.72   13.78 
   2   7  -3  242.80   11.73 
  -2  -7   3  246.62   11.85 
  -2  -7   3  237.34   12.66 
  -2  -7   3  241.44   12.38 
   1   7  -3  329.36   14.19 
   1   7  -3  296.89   15.51 
  -1  -7   3  303.52   19.57 
  -1  -7   3  313.53   15.71 
  -1  -7   3  303.48   15.07 
   0   7  -3  319.16   16.60 
   0   7  -3  332.10   15.27 
   0  -7   3  325.59   12.54 
   0  -7   3  314.37   19.17 
   0  -7   3  318.63   12.94 
  -1   7  -3  55.497   3.054 
  -1   7  -3  62.288   3.536 
   1  -7   3  60.882   2.733 
   1  -7   3  55.095   3.255 
   1  -7   3  59.073   3.657 
  -2   7  -3  476.04   22.87 
  -2   7  -3  458.96   25.60 
   2  -7   3  497.70   29.74 
   2  -7   3  494.45   26.48 
   2  -7   3  509.68   20.53 
   2  -7   3  512.01   19.65 
  -3   7  -3 -0.1607  1.3663 
  -3   7  -3  2.9738  1.2458 
   3  -7   3  1.1654  1.0046 
   3  -7   3 -0.9645  1.1252 
   3  -7   3  0.3617  1.7682 
   3  -7   3  2.7728  1.5672 
  -4   7  -3  374.13   17.80 
  -4   7  -3  413.63   22.46 
   4  -7   3  371.72   22.91 
   4  -7   3  389.52   19.29 
   4  -7   3  403.59   20.53 
   4  -7   3  371.88   19.73 
   4  -7   3  409.21   21.18 
  -5   7  -3  6.0681  1.9289 
  -5   7  -3  7.7157  1.8485 
   5  -7   3  -1.969   2.692 
   5  -7   3  2.4513  2.0495 
   5  -7   3  2.7728  1.9691 
  -6   7  -3  70.084   4.621 
   6  -7   3  50.875   5.224 
   6  -7   3  59.756   5.385 
   6  -7   3  56.140   4.139 
  -7   7  -3  3.2149  3.0943 
   7  -7   3  12.096   3.335 
   7  -7   3  9.6044  5.4653 
  -8   7  -3  27.166   3.657 
   8  -7   3  25.840   7.756 
   6   6  -3  14.145   4.662 
   6   6  -3  -1.929   5.666 
  -6  -6   3  1.3663  2.9336 
  -6  -6   3  2.1700  2.6523 
  -6  -6   3  5.1840  3.8177 
   5   6  -3  11.935   4.099 
   5   6  -3  17.240   4.420 
  -5  -6   3  12.176   3.134 
  -5  -6   3  13.543   2.692 
  -5  -6   3  16.677   2.773 
   4   6  -3  113.08    7.51 
   4   6  -3  99.540   6.992 
  -4  -6   3  108.66    5.55 
  -4  -6   3  103.84    5.99 
  -4  -6   3  110.07    7.03 
   3   6  -3  39.463   3.054 
   3   6  -3  29.938   3.255 
  -3  -6   3  41.191   2.692 
  -3  -6   3  37.694   3.536 
  -3  -6   3  37.694   2.572 
   2   6  -3  923.83   40.71 
   2   6  -3  902.45   47.62 
   2   6  -3  897.71   36.61 
  -2  -6   3  891.40   51.52 
  -2  -6   3  896.83   64.62 
  -2  -6   3  926.40   47.26 
  -2  -6   3  921.90   46.78 
   1   6  -3  146.12    6.63 
   1   6  -3  131.17    8.36 
  -1  -6   3  132.17    7.96 
  -1  -6   3  126.55    6.79 
  -1  -6   3  136.31    6.91 
   0   6  -3  371.48   19.37 
   0   6  -3  391.21   17.00 
   0   6  -3  369.95   23.67 
   0  -6   3  388.88   23.67 
   0  -6   3  388.32   18.20 
   0  -6   3  395.07   20.01 
   0  -6   3  381.77   16.64 
  -1   6  -3  198.32    8.00 
  -1   6  -3  183.13   11.09 
  -1   6  -3  184.61   10.73 
   1  -6   3  176.30   10.69 
   1  -6   3  192.09    7.03 
   1  -6   3  199.32   11.98 
   1  -6   3  199.20   10.97 
  -2   6  -3  212.90    8.88 
  -2   6  -3  197.47   12.78 
  -2   6  -3  203.90   11.49 
   2  -6   3  210.45   14.07 
   2  -6   3  219.62    8.68 
   2  -6   3  232.92   11.85 
   2  -6   3  208.97   10.05 
   2  -6   3  216.56   12.18 
   2  -6   3  218.25    8.52 
   2  -6   3  215.80   11.37 
  -3   6  -3  515.26   26.80 
  -3   6  -3  506.70   25.76 
  -3   6  -3  525.15   24.67 
   3  -6   3  493.00   25.96 
   3  -6   3  564.57   25.44 
   3  -6   3  527.36   25.80 
   3  -6   3  557.46   23.51 
  -4   6  -3  129.32    6.43 
  -4   6  -3  135.75    6.03 
   4  -6   3  140.21    6.99 
   4  -6   3  141.25    7.15 
   4  -6   3  135.95    7.03 
   4  -6   3  125.50    6.27 
  -5   6  -3  102.88    5.30 
  -5   6  -3  107.86    5.67 
   5  -6   3  91.101   5.706 
   5  -6   3  101.43    7.72 
   5  -6   3  108.66    6.27 
  -6   6  -3  7.1531  2.4513 
   6  -6   3  7.7559  2.0093 
   6  -6   3  8.8007  2.4112 
   6  -6   3  14.909   4.059 
  -7   6  -3  25.156   3.134 
  -7   6  -3  40.748   3.938 
   7  -6   3  36.047   4.099 
   7  -6   3  30.782   5.425 
  -8   6  -3  12.779   3.416 
  -8   6  -3 -0.3617  2.4112 
   8  -6   3  6.6307  5.5055 
   7   5  -3  34.319   7.233 
   7   5  -3  41.954   7.354 
  -7  -5   3  38.779   5.546 
  -7  -5   3  22.464   4.742 
  -7  -5   3  29.818   5.063 
   6   5  -3  84.189   8.519 
   6   5  -3  90.057   8.278 
  -6  -5   3  88.891   6.068 
  -6  -5   3  89.614   6.470 
  -6  -5   3  91.021   6.470 
   5   5  -3  138.88   10.93 
   5   5  -3  129.72    9.93 
  -5  -5   3  132.53    8.96 
  -5  -5   3  141.86    7.68 
  -5  -5   3  137.68    8.40 
   4   5  -3  53.608   4.340 
   4   5  -3  56.501   4.742 
  -4  -5   3  53.206   3.777 
  -4  -5   3  49.710   3.376 
  -4  -5   3  48.344   3.737 
  -4  -5   3  60.279   3.858 
   3   5  -3  306.66   16.32 
   3   5  -3  314.90   14.67 
   3   5  -3  289.98   17.28 
  -3  -5   3  301.15   17.80 
  -3  -5   3  307.26   17.72 
  -3  -5   3  317.95   17.20 
  -3  -5   3  289.90   22.95 
  -3  -5   3  300.03   16.03 
   2   5  -3  321.21   13.10 
   2   5  -3  344.11   14.11 
   2   5  -3  306.14   17.08 
  -2  -5   3  335.51   19.21 
  -2  -5   3  345.44   19.45 
  -2  -5   3  322.89   21.90 
  -2  -5   3  358.62   18.00 
  -2  -5   3  355.89   18.28 
  -2  -5   3  338.41   16.48 
   1   5  -3  780.61   35.16 
   1   5  -3  764.86   46.25 
   1   5  -3  814.81   45.09 
   1   5  -3  746.89   51.00 
  -1  -5   3  794.96   38.58 
  -1  -5   3  822.97   34.84 
  -1  -5   3  803.72   49.47 
  -1  -5   3  803.40   47.98 
  -1  -5   3  846.72   32.11 
  -1  -5   3  780.01   38.06 
   0   5  -3  152.38    6.87 
   0   5  -3  146.76    6.71 
   0   5  -3  152.34    9.40 
   0   5  -3  154.96    8.08 
   0  -5   3  156.48    8.08 
   0  -5   3  151.30    8.00 
   0  -5   3  162.67    8.92 
   0  -5   3  160.34    8.60 
   0  -5   3  154.19    6.11 
   0   5  -3  157.44   12.97 
   0  -5   3  168.33   11.05 
   0  -5   3  156.70   11.11 
  -1   5  -3 1128.90   59.35 
  -1   5  -3 1134.49   61.73 
  -1   5  -3 1104.91   73.70 
   1  -5   3 1179.70   40.75 
   1  -5   3 1213.41   73.70 
   1  -5   3 1114.84   39.58 
   1  -5   3 1165.31   77.92 
   1  -5   3 1177.04   75.71 
   1  -5   3 1115.60   65.18 
   1  -5   3 1219.80   67.59 
  -1   5  -3 1208.72   85.70 
  -1   5  -3 1183.33   63.04 
   1  -5   3 1257.98   59.80 
   1  -5   3 1248.79   62.33 
  -2   5  -3  80.452   4.501 
  -2   5  -3  82.220   4.943 
  -2   5  -3  82.502   3.818 
  -2   5  -3  82.703   3.737 
   2  -5   3  80.975   4.099 
   2  -5   3  84.591   5.023 
   2  -5   3  79.889   4.179 
   2  -5   3  89.172   4.702 
   2  -5   3  92.066   4.621 
   2  -5   3  89.172   4.220 
   2  -5   3  82.019   3.376 
  -3   5  -3  227.61    9.40 
  -3   5  -3  217.81   11.65 
   3  -5   3  225.64   10.37 
   3  -5   3  250.72   11.77 
   3  -5   3  245.74   10.93 
   3  -5   3  225.84   12.46 
   3  -5   3  227.09   14.79 
   3  -5   3  225.36   13.46 
   3  -5   3  236.09   14.63 
  -4   5  -3  341.26   16.44 
  -4   5  -3  325.18   16.76 
  -4   5  -3  356.29   16.52 
   4  -5   3  330.89   15.03 
   4  -5   3  307.62   13.74 
   4  -5   3  362.03   19.45 
   4  -5   3  342.71   15.35 
   4  -5   3  358.82   17.28 
   4  -5   3  346.88   16.03 
  -5   5  -3  174.25    7.51 
  -5   5  -3  176.94    8.40 
   5  -5   3  168.34   10.89 
   5  -5   3  152.95   10.57 
   5  -5   3  134.26    7.60 
   5  -5   3  153.79    8.64 
   5  -5   3  134.46    7.23 
  -6   5  -3  67.030   4.380 
  -6   5  -3  62.891   4.139 
   6  -5   3  53.327   4.019 
   6  -5   3  66.186   6.108 
   6  -5   3  56.019   5.345 
  -7   5  -3  37.534   4.019 
  -7   5  -3  44.164   3.777 
   7  -5   3  36.127   5.586 
   7  -5   3  32.028   3.657 
  -8   5  -3  4.5812  3.9382 
  -8   5  -3  0.2411  2.8532 
   8  -5   3  4.6616  5.6260 
   7   4  -3  34.761   5.827 
   7   4  -3  22.544   7.113 
  -7  -4   3  23.147   3.536 
  -7  -4   3  27.326   4.621 
  -7  -4   3  31.104   3.376 
   6   4  -3  67.392   6.992 
   6   4  -3  77.961   6.791 
  -6  -4   3  71.410   5.425 
  -6  -4   3  72.696   5.747 
  -6  -4   3  82.381   6.068 
   5   4  -3  45.289   4.300 
   5   4  -3  44.446   5.184 
  -5  -4   3  42.999   3.295 
  -5  -4   3  44.084   2.974 
  -5  -4   3  44.124   2.572 
  -5  -4   3  46.013   3.697 
   4   4  -3  171.79   11.41 
   4   4  -3  178.47    9.64 
  -4  -4   3  164.16    8.24 
  -4  -4   3  170.15   10.69 
  -4  -4   3  168.06    9.16 
  -4  -4   3  168.02    8.04 
  -4  -4   3  166.25    9.93 
   3   4  -3  77.358   4.300 
   3   4  -3  67.472   4.380 
   3   4  -3  69.120   3.938 
  -3  -4   3  62.931   4.300 
  -3  -4   3  68.115   3.737 
  -3  -4   3  68.838   4.019 
  -3  -4   3  69.722   3.978 
  -3  -4   3  63.092   4.139 
  -3  -4   3  68.035   5.666 
   2   4  -3  648.12   24.31 
   2   4  -3  595.72   32.19 
   2   4  -3  593.22   25.80 
   2   4  -3  577.91   40.39 
  -2  -4   3  591.54   33.68 
  -2  -4   3  615.85   35.32 
  -2  -4   3  611.47   28.53 
  -2  -4   3  609.54   33.19 
  -2  -4   3  639.24   31.26 
  -2  -4   3  675.44   33.60 
  -2  -4   3  655.75   27.85 
   1   4  -3  193.78    9.89 
   1   4  -3  206.11    9.16 
   1   4  -3  192.69    8.92 
   1   4  -3  191.77   11.37 
  -1  -4   3  211.94   10.21 
  -1  -4   3  207.84    9.20 
  -1  -4   3  207.12    8.64 
  -1  -4   3  200.41    8.52 
  -1  -4   3  205.99   12.94 
  -1  -4   3  198.88    8.48 
   1   4  -3  179.19   13.49 
   1   4  -3  179.40   15.89 
  -1  -4   3  216.59   14.10 
  -1  -4   3  193.25   13.26 
   0   4  -3 1509.78   94.60 
   0   4  -3 1449.87   70.08 
   0   4  -3 1541.61   84.07 
   0   4  -3 1464.21   65.50 
   0  -4   3 1466.10   86.60 
   0  -4   3 1509.30   79.53 
   0  -4   3 1504.68   71.45 
   0  -4   3 1577.86   57.79 
   0  -4   3 1622.62  102.07 
   0   4  -3 1472.52   94.28 
   0  -4   3 1563.76   80.74 
   0  -4   3 1487.34   76.91 
  -1   4  -3 -0.2009  0.8841 
  -1   4  -3  0.0804  0.8439 
  -1   4  -3 -0.7635  0.7635 
   1  -4   3 -0.5224  0.2813 
   1  -4   3  1.6476  1.0850 
   1  -4   3 -0.3617  0.2411 
   1  -4   3  -1.326   0.804 
   1  -4   3  -2.572   0.924 
   1  -4   3  -1.527   1.005 
   1  -4   3 -0.1607  0.8841 
  -1   4  -3  1.8295  2.0797 
  -1   4  -3  1.1048  2.7146 
   1  -4   3  1.0718  2.0018 
  -2   4  -3  333.62   21.86 
  -2   4  -3  327.55   14.47 
  -2   4  -3  355.08   19.21 
  -2   4  -3  339.69   17.24 
   2  -4   3  364.24   22.79 
   2  -4   3  328.00   16.44 
   2  -4   3  320.60   20.66 
   2  -4   3  358.54   15.19 
   2  -4   3  330.21   14.27 
   2  -4   3  350.38   17.44 
   2  -4   3  370.11   19.33 
  -2   4  -3  349.30   19.73 
  -2   4  -3  323.26   19.36 
   2  -4   3  336.58   17.73 
   2  -4   3  315.95   17.05 
  -3   4  -3  22.584   1.487 
  -3   4  -3  23.268   1.487 
  -3   4  -3  23.549   1.648 
   3  -4   3  27.447   2.090 
   3  -4   3  22.986   1.929 
   3  -4   3  20.294   1.728 
   3  -4   3  22.705   1.969 
   3  -4   3  24.192   1.728 
   3  -4   3  23.589   1.808 
   3  -4   3  22.705   1.447 
  -4   4  -3  580.28   32.23 
  -4   4  -3  582.74   30.82 
  -4   4  -3  574.22   30.98 
   4  -4   3  577.55   31.95 
   4  -4   3  600.82   32.75 
   4  -4   3  551.07   29.17 
   4  -4   3  614.88   24.31 
   4  -4   3  609.58   37.17 
   4  -4   3  623.93   23.59 
  -5   4  -3  1.1654  1.5271 
  -5   4  -3  1.5672  1.2458 
   5  -4   3  4.2999  3.2551 
   5  -4   3  0.7233  1.5672 
   5  -4   3  0.4420  1.4065 
   5  -4   3  1.7280  1.4467 
   5  -4   3  1.4467  1.0850 
   5  -4   3  0.7233  1.6476 
  -6   4  -3  70.968   4.862 
  -6   4  -3  70.888   4.541 
   6  -4   3  67.311   5.345 
   6  -4   3  68.919   5.706 
  -7   4  -3  4.9429  3.1345 
  -7   4  -3  3.4158  2.6121 
   7  -4   3  10.649   4.541 
   7  -4   3  0.1206  2.5317 
  -8   4  -3  71.330   5.948 
  -8   4  -3  68.718   5.425 
   8  -4   3  54.693   7.917 
   8  -4   3  59.636   8.118 
  -8  -3   3  40.668   5.747 
  -8  -3   3  38.016   5.184 
   7   3  -3  -1.366   4.943 
   7   3  -3 -0.6832  4.4204 
  -7  -3   3  2.4513  2.5719 
  -7  -3   3  2.1700  2.6121 
  -7  -3   3  -3.255   3.737 
   6   3  -3  58.511   5.264 
   6   3  -3  66.909   6.631 
  -6  -3   3  62.730   4.380 
  -6  -3   3  72.214   4.581 
  -6  -3   3  71.290   4.943 
   5   3  -3  70.044   5.184 
   5   3  -3  77.277   6.148 
  -5  -3   3  78.523   4.621 
  -5  -3   3  68.959   4.461 
  -5  -3   3  75.469   4.983 
  -5  -3   3  68.517   3.858 
  -5  -3   3  72.656   3.175 
   4   3  -3  332.62   16.11 
   4   3  -3  320.00   19.89 
  -4  -3   3  343.83   14.35 
  -4  -3   3  317.71   15.31 
  -4  -3   3  309.35   13.22 
  -4  -3   3  307.42   16.64 
  -4  -3   3  309.15   16.07 
  -4  -3   3  322.69   16.24 
   3   3  -3  325.51   14.27 
   3   3  -3  302.68   17.60 
   3   3  -3  301.27   17.08 
  -3  -3   3  335.15   22.26 
  -3  -3   3  322.85   13.06 
  -3  -3   3  298.14   15.35 
  -3  -3   3  310.80   13.54 
  -3  -3   3  288.37   17.48 
   2   3  -3  879.91   43.60 
   2   3  -3  931.55   36.73 
   2   3  -3  857.77   39.82 
   2   3  -3  883.33   46.37 
  -2  -3   3  890.44   40.59 
  -2  -3   3  852.18   32.31 
  -2  -3   3  829.40   33.92 
  -2  -3   3  805.16   49.79 
  -2  -3   3  903.78   34.64 
  -2  -3   3  867.57   38.94 
   2   3  -3  924.77   54.61 
   2   3  -3  935.50   91.28 
  -2  -3   3  910.55   53.18 
  -2  -3   3  934.20   51.27 
   1   3  -3 2127.44  100.87 
   1   3  -3 2306.23  102.19 
   1   3  -3 2263.47  122.49 
   1   3  -3 2348.34   90.70 
  -1  -3   3 2460.98  100.59 
  -1  -3   3 2115.79   82.86 
  -1  -3   3 2239.12   81.18 
  -1  -3   3 2468.94  100.99 
  -1  -3   3 2298.51  132.09 
   1   3  -3 2278.20  180.22 
   1   3  -3 2442.92  174.36 
  -1  -3   3 2470.72  120.54 
  -1  -3   3 2271.11  125.00 
   0   3  -3  59.998   3.054 
   0   3  -3  56.341   3.215 
   0   3  -3  62.610   2.692 
   0   3  -3  59.314   3.577 
   0  -3   3  63.132   3.978 
   0  -3   3  60.560   3.577 
   0  -3   3  66.266   3.335 
   0   3  -3  54.595   5.240 
   0  -3   3  60.806   5.717 
   0  -3   3  52.090   4.607 
  -1   3  -3 1607.68   76.03 
  -1   3  -3 1955.85  102.47 
  -1   3  -3 1823.35   80.89 
  -1   3  -3 1728.15   95.00 
  -1   3  -3 1901.96   88.65 
   1  -3   3 2101.00  115.78 
   1  -3   3 1961.99  100.83 
   1  -3   3 1903.24   73.74 
   1  -3   3 1994.91  115.13 
   1  -3   3 2049.12  107.01 
   1  -3   3 1835.33  119.51 
   1  -3   3 1969.39   75.91 
  -1   3  -3 1994.55  120.94 
  -1   3  -3 1860.85  117.40 
   1  -3   3 1855.18  106.09 
   1  -3   3 1893.17  101.80 
  -2   3  -3  147.60    6.59 
  -2   3  -3  149.73    8.48 
  -2   3  -3  133.98    8.32 
  -2   3  -3  139.28    6.71 
  -2   3  -3  141.25    6.67 
   2  -3   3  141.09    7.19 
   2  -3   3  146.48    5.83 
   2  -3   3  149.33    8.48 
   2  -3   3  144.43    7.60 
   2  -3   3  147.52    7.72 
   2  -3   3  146.68    8.28 
   2  -3   3  152.63    6.31 
  -2   3  -3  136.52    8.99 
  -2   3  -3  137.29    9.43 
   2  -3   3  136.62    8.45 
   2  -3   3  141.97    8.37 
  -3   3  -3 1653.05   86.40 
  -3   3  -3 1615.11   80.65 
  -3   3  -3 1625.96   78.84 
  -3   3  -3 1487.28   97.65 
   3  -3   3 1764.04   91.22 
   3  -3   3 1413.10   69.04 
   3  -3   3 1720.72   76.92 
   3  -3   3 1740.41   96.69 
   3  -3   3 1606.27   89.86 
   3  -3   3 1766.89   82.70 
   3  -3   3 1793.66  100.10 
  -4   3  -3  267.40   13.70 
  -4   3  -3  282.99   13.74 
   4  -3   3  281.82   15.03 
   4  -3   3  255.78   11.65 
   4  -3   3  290.14   11.13 
   4  -3   3  306.38   18.12 
   4  -3   3  283.31   14.99 
  -5   3  -3  75.991   4.541 
  -5   3  -3  81.015   4.581 
   5  -3   3  65.624   3.094 
   5  -3   3  74.625   4.541 
   5  -3   3  74.143   4.300 
   5  -3   3  65.543   3.376 
  -6   3  -3  21.379   2.331 
  -6   3  -3  21.459   2.652 
   6  -3   3  28.090   3.255 
   6  -3   3  26.040   4.380 
  -7   3  -3  20.897   2.974 
  -7   3  -3  20.254   3.577 
   7  -3   3  24.232   3.898 
   7  -3   3  26.482   5.827 
  -8   3  -3 -0.5626  3.8578 
  -8   3  -3  6.3494  3.1345 
   8  -3   3  10.167   6.952 
   8   2  -3  27.809   7.997 
   8   2  -3  30.863   6.390 
  -8  -2   3  19.008   4.179 
  -8  -2   3  29.295   5.144 
   7   2  -3  97.491   7.274 
   7   2  -3  77.840   8.037 
  -7  -2   3  97.853   6.470 
  -7  -2   3  86.641   5.867 
   6   2  -3  0.3215  3.0943 
   6   2  -3  1.2859  3.8177 
  -6  -2   3  0.5224  1.7682 
  -6  -2   3  1.6074  1.9691 
  -6  -2   3  -1.648   2.130 
   5   2  -3  404.75   26.40 
   5   2  -3  379.07   21.54 
  -5  -2   3  365.81   13.74 
  -5  -2   3  378.51   22.34 
  -5  -2   3  401.78   15.23 
  -5  -2   3  372.68   18.65 
  -5  -2   3  373.85   21.10 
  -5  -2   3  357.29   22.54 
   4   2  -3  22.866   2.692 
   4   2  -3  25.277   2.411 
  -4  -2   3  29.215   1.969 
  -4  -2   3  23.750   1.447 
  -4  -2   3  21.660   2.090 
  -4  -2   3  23.991   1.849 
  -4  -2   3  22.866   2.009 
   3   2  -3  826.66   45.41 
   3   2  -3  819.95   46.78 
   3   2  -3  812.48   41.87 
   3   2  -3  847.88   52.56 
   3   2  -3  833.25   36.29 
  -3  -2   3  779.85   37.29 
  -3  -2   3  808.90   31.39 
  -3  -2   3  775.63   32.87 
  -3  -2   3  890.76   43.68 
  -3  -2   3  751.32   38.90 
  -3  -2   3  783.62   35.77 
   2   2  -3  38.900   2.130 
   2   2  -3  38.739   2.451 
   2   2  -3  40.708   2.170 
   2   2  -3  36.931   2.009 
   2   2  -3  39.020   2.250 
  -2  -2   3  37.453   1.808 
  -2  -2   3  38.458   1.969 
  -2  -2   3  40.990   2.250 
  -2  -2   3  38.458   2.130 
  -2  -2   3  38.056   2.250 
  -2  -2   3  40.869   2.492 
   2   2  -3  37.528   6.335 
   2   2  -3  32.238   6.435 
  -2  -2   3  35.691   4.782 
  -2  -2   3  39.006   5.826 
   1   2  -3 1902.84   89.13 
   1   2  -3 1932.06   84.39 
   1   2  -3 1882.99   88.89 
   1   2  -3 1921.29  100.10 
   1   2  -3 1898.38   89.21 
  -1  -2   3 2075.84   83.95 
  -1  -2   3 1856.51   76.51 
  -1  -2   3 1752.67   78.28 
  -1  -2   3 2030.11   87.73 
  -1  -2   3 1850.16   95.76 
   1   2  -3 1851.92  124.47 
   1   2  -3 1848.52  106.96 
  -1  -2   3 1875.71  108.54 
  -1  -2   3 1896.52  111.19 
   0   2  -3  533.03   22.10 
   0   2  -3  559.07   26.00 
   0   2  -3  492.08   18.24 
   0   2  -3  486.85   18.12 
   0   2  -3  520.65   24.11 
   0   2  -3  536.00   31.26 
   0  -2   3  510.48   27.45 
   0  -2   3  543.27   25.28 
   0  -2   3  557.26   28.17 
   0  -2   3  506.14   34.24 
   0  -2   3  528.28   31.26 
   0   2  -3  469.44   31.66 
   0   2  -3  492.19   32.23 
   0  -2   3  422.24   25.74 
   0  -2   3  512.59   29.08 
  -1   2  -3  561.24   27.33 
  -1   2  -3  631.92   31.67 
  -1   2  -3  531.22   28.81 
  -1   2  -3  618.82   31.75 
  -1   2  -3  592.70   36.73 
  -1   2  -3  535.92   28.65 
   1  -2   3  618.14   36.53 
   1  -2   3  631.88   33.19 
   1  -2   3  504.25   31.30 
   1  -2   3  633.89   38.46 
   1  -2   3  659.61   27.49 
   1  -2   3  650.97   29.90 
  -1   2  -3  609.41   40.03 
  -1   2  -3  586.05   35.46 
   1  -2   3  588.92   36.15 
   1  -2   3  576.60   34.03 
  -2   2  -3  98.415   4.822 
  -2   2  -3  94.437   5.988 
  -2   2  -3  110.39    5.75 
  -2   2  -3  100.14    5.06 
   2  -2   3  101.71    5.67 
   2  -2   3  110.99    4.82 
   2  -2   3  108.10    5.22 
   2  -2   3  98.455   6.711 
   2  -2   3  101.15    4.98 
  -2   2  -3  94.979   7.361 
  -2   2  -3  102.98    6.98 
   2  -2   3  104.54    6.44 
   2  -2   3  93.531   6.815 
  -3   2  -3  235.33   12.58 
  -3   2  -3  217.97   12.26 
  -3   2  -3  233.00    9.93 
  -3   2  -3  242.48   12.06 
   3  -2   3  245.58   11.21 
   3  -2   3  249.15   11.94 
   3  -2   3  253.01   12.70 
   3  -2   3  236.98   10.97 
   3  -2   3  238.95   12.94 
   3  -2   3  237.70   11.45 
  -4   2  -3  80.171   4.420 
  -4   2  -3  77.237   6.108 
  -4   2  -3  80.975   4.179 
   4  -2   3  78.001   4.300 
   4  -2   3  76.916   4.541 
   4  -2   3  79.930   3.536 
   4  -2   3  85.475   4.099 
  -5   2  -3  307.98   15.11 
  -5   2  -3  291.83   14.83 
   5  -2   3  313.97   16.11 
   5  -2   3  304.89   13.02 
   5  -2   3  284.72   10.17 
   5  -2   3  285.84   10.77 
   5  -2   3  318.31   18.08 
  -6   2  -3  20.856   2.733 
  -6   2  -3  13.302   2.170 
   6  -2   3  13.502   2.692 
   6  -2   3  12.618   4.220 
  -7   2  -3  158.49   10.09 
  -7   2  -3  168.62    9.36 
   7  -2   3  125.66   10.57 
   7  -2   3  160.86   11.94 
  -8   2  -3  33.274   4.541 
  -8   2  -3  39.824   3.898 
   8  -2   3  19.651   7.394 
   8  -2   3  32.671   5.948 
   8   1  -3  139.57   10.49 
   8   1  -3  135.71   11.81 
  -8  -1   3  141.70    9.12 
  -8  -1   3  119.59    8.44 
   7   1  -3  88.650   6.872 
   7   1  -3  89.454   8.198 
  -7  -1   3  83.185   5.586 
  -7  -1   3  77.197   5.224 
   6   1  -3  198.52   10.85 
   6   1  -3  185.26   13.74 
  -6  -1   3  213.19   11.21 
  -6  -1   3  215.68    9.89 
  -6  -1   3  197.39    9.16 
  -6  -1   3  205.63    9.00 
   5   1  -3  65.945   4.220 
   5   1  -3  55.456   5.104 
  -5  -1   3  64.338   4.260 
  -5  -1   3  59.596   3.858 
  -5  -1   3  58.551   2.733 
  -5  -1   3  64.780   4.179 
  -5  -1   3  56.702   4.179 
   4   1  -3 1057.17   66.83 
   4   1  -3 1054.36   48.62 
  -4  -1   3  975.27   44.85 
  -4  -1   3  949.75   36.93 
  -4  -1   3  976.76   51.08 
  -4  -1   3  985.36   42.28 
  -4  -1   3  980.82   46.82 
   3   1  -3  57.024   3.456 
   3   1  -3  53.528   2.652 
   3   1  -3  55.215   3.054 
   3   1  -3  58.752   3.617 
   3   1  -3  56.461   3.094 
  -3  -1   3  53.809   2.451 
  -3  -1   3  55.336   3.536 
  -3  -1   3  53.849   2.451 
  -3  -1   3  48.504   2.411 
  -3  -1   3  47.982   2.612 
  -3  -1   3  51.840   2.130 
   3   1  -3  57.109   7.436 
   3   1  -3  47.079   6.651 
  -3  -1   3  56.835   6.974 
  -3  -1   3  43.299   6.287 
   2   1  -3 2165.98   95.84 
   2   1  -3 2240.20  100.18 
   2   1  -3 2195.72   84.47 
   2   1  -3 2315.15  115.29 
   2   1  -3 2209.42  107.22 
  -2  -1   3 2331.30  112.24 
  -2  -1   3 2121.77   92.39 
  -2  -1   3 2134.51   87.44 
  -2  -1   3 2054.94   85.84 
  -2  -1   3 2163.12   86.08 
  -2  -1   3 2148.26   93.87 
   2   1  -3 2245.44  121.98 
   2   1  -3 2128.06  139.38 
  -2  -1   3 2210.66  112.01 
  -2  -1   3 2317.47  131.22 
   1   1  -3  79.407   3.978 
   1   1  -3  80.090   4.099 
   1   1  -3  79.648   3.536 
   1   1  -3  78.403   4.340 
   1   1  -3  80.171   4.420 
  -1  -1   3  80.291   3.777 
  -1  -1   3  75.951   3.697 
  -1  -1   3  77.197   3.737 
  -1  -1   3  80.171   4.139 
  -1  -1   3  83.064   4.380 
   1   1  -3  76.372   6.233 
   1   1  -3  82.012   6.435 
  -1  -1   3  80.201   6.091 
  -1  -1   3  73.173   5.801 
   0   1  -3 2741.56  115.90 
   0   1  -3 2651.50  128.23 
   0   1  -3 2831.66  141.05 
   0   1  -3 2649.09  171.71 
   0   1  -3 2630.33  126.87 
   0  -1   3 2244.66  162.87 
   0  -1   3 2763.74  129.64 
   0  -1   3 2628.08  126.30 
   0  -1   3 2819.12  126.55 
   0  -1   3 2645.92  133.50 
   0   1  -3 2589.50  187.10 
   0   1  -3 2793.29  146.03 
   0  -1   3 2834.22  184.80 
   0  -1   3 2586.81  144.63 
  -1   1  -3 1216.99   60.88 
  -1   1  -3 1216.51   63.86 
  -1   1  -3 1129.62   42.52 
  -1   1  -3 1240.26   68.12 
  -1   1  -3 1205.29   51.68 
   1  -1   3 1300.78   81.62 
   1  -1   3 1198.78   61.28 
   1  -1   3 1041.62   75.23 
   1  -1   3 1297.32   56.10 
   1  -1   3 1142.04   41.91 
   1  -1   3 1203.04   66.07 
  -1   1  -3 1308.70   83.06 
   1  -1   3 1263.88   80.62 
   1  -1   3 1167.00   70.74 
  -2   1  -3  276.12   11.41 
  -2   1  -3  286.28   15.75 
  -2   1  -3  244.41   15.47 
  -2   1  -3  279.45   15.03 
   2  -1   3  298.46   15.07 
   2  -1   3  298.06   15.99 
   2  -1   3  262.17   10.53 
   2  -1   3  307.58   15.47 
   2  -1   3  299.42   16.24 
  -2   1  -3  284.42   19.50 
  -2   1  -3  304.15   18.02 
   2  -1   3  293.07   18.88 
   2  -1   3  280.51   18.71 
  -3   1  -3  100.59    5.02 
  -3   1  -3  102.39    5.30 
  -3   1  -3  96.245   5.345 
   3  -1   3  96.084   4.782 
   3  -1   3  96.366   3.978 
   3  -1   3  102.11    4.82 
   3  -1   3  86.560   3.898 
   3  -1   3  103.04    5.59 
  -3   1  -3  108.57    8.26 
  -3   1  -3  98.889   8.237 
   3  -1   3  89.930   7.943 
   3  -1   3  88.670   8.436 
  -4   1  -3 1145.02   62.05 
  -4   1  -3 1166.84   61.97 
  -4   1  -3  966.71   72.98 
   4  -1   3 1147.51   56.10 
   4  -1   3 1128.62   50.67 
   4  -1   3 1133.68   40.07 
   4  -1   3 1116.32   58.19 
  -5   1  -3  11.011   1.768 
  -5   1  -3  12.498   1.969 
   5  -1   3  13.784   2.090 
   5  -1   3  9.4437  1.5672 
  -6   1  -3  101.15    6.59 
  -6   1  -3  108.94    6.55 
   6  -1   3  106.81    7.84 
   6  -1   3  108.26    6.99 
  -7   1  -3  1.1654  2.4915 
  -7   1  -3  -5.907   3.295 
   7  -1   3  -5.063   2.532 
   7  -1   3  -4.179   4.621 
  -8   1  -3  13.864   4.662 
  -8   1  -3  20.736   4.340 
   8  -1   3  12.176   7.233 
   8   0  -3  29.657   5.586 
   8   0  -3  38.659   7.676 
  -8   0   3  27.286   4.139 
  -8   0   3  24.393   4.300 
   7   0  -3  14.226   5.505 
  -7   0   3  8.8811  3.0139 
  -7   0   3  18.606   2.652 
   6   0  -3  213.79   16.11 
   6   0  -3  221.06   10.49 
  -6   0   3  235.25   12.50 
  -6   0   3  221.46    8.56 
  -6   0   3  238.90    8.68 
  -6   0   3  226.25   12.74 
   5   0  -3  145.96    9.85 
   5   0  -3  137.96    7.31 
  -5   0   3  145.11    7.35 
  -5   0   3  153.59    5.91 
  -5   0   3  142.82    7.43 
  -5   0   3  136.03    8.44 
  -5   0   3  148.49    5.67 
   4   0  -3  289.54   16.48 
  -4   0   3  291.67   12.46 
  -4   0   3  292.63   14.67 
  -4   0   3  291.23   10.41 
  -4   0   3  287.53   14.63 
   3   0  -3  368.54   15.87 
   3   0  -3  382.13   17.12 
   3   0  -3  363.84   18.69 
   3   0  -3  370.59   16.80 
   3   0  -3  352.23   16.15 
  -3   0   3  322.09   12.90 
  -3   0   3  379.19   17.48 
  -3   0   3  340.82   14.19 
  -3   0   3  344.67   13.82 
  -3   0   3  343.63   13.86 
   3   0  -3  369.88   23.12 
   3   0  -3  351.63   22.11 
  -3   0   3  387.44   20.62 
  -3   0   3  362.26   22.60 
   2   0  -3  798.09   39.58 
   2   0  -3  802.91   35.56 
   2   0  -3  858.29   43.96 
   2   0  -3  817.26   34.20 
   2   0  -3  781.86   30.22 
   2   0  -3  833.78   35.36 
  -2   0   3  755.05   30.06 
  -2   0   3  848.60   37.81 
  -2   0   3  759.19   35.44 
  -2   0   3  798.57   30.50 
  -2   0   3  768.64   28.65 
   2   0  -3  822.74   42.64 
   2   0  -3  801.21   45.59 
  -2   0   3  841.28   44.28 
  -2   0   3  800.97   42.84 
   1   0  -3  651.57   34.84 
   1   0  -3  731.54   35.32 
   1   0  -3  689.91   36.69 
   1   0  -3  725.52   29.30 
   1   0  -3  656.96   33.47 
   1   0  -3  672.19   28.49 
  -1   0   3  663.87   28.13 
  -1   0   3  690.19   36.09 
  -1   0   3  678.06   27.57 
  -1   0   3  652.18   30.54 
   1   0  -3  679.73   34.25 
   1   0  -3  650.63   37.32 
  -1   0   3  690.64   37.90 
  -1   0   3  674.73   39.49 
   0   0  -3  231.23   14.07 
   0   0  -3  249.76   11.81 
   0   0  -3  258.31   11.57 
   0   0  -3  238.54   13.74 
   0   0  -3  261.37   13.30 
   0   0  -3  265.11   11.05 
   0   0   3  255.94   11.29 
   0   0   3  254.22   11.77 
   0   0   3  249.43    9.72 
   0   0   3  236.25    9.97 
   0   0   3  264.10   15.35 
   0   0  -3  252.51   16.10 
   0   0  -3  265.50   15.15 
   0   0   3  248.83   14.19 
   0   0   3  245.64   16.26 
  -1   0  -3  73.540   2.974 
  -1   0  -3  68.517   3.657 
  -1   0  -3  70.486   3.898 
  -1   0  -3  69.120   2.692 
   1   0   3  70.004   3.456 
   1   0   3  65.583   4.461 
   1   0   3  83.305   4.702 
   1   0   3  68.838   3.858 
   1   0   3  71.049   3.577 
   1   0   3  77.398   3.818 
  -1   0  -3  84.786   5.851 
  -1   0  -3  75.566   5.766 
   1   0   3  68.581   5.831 
   1   0   3  74.872   5.844 
  -2   0  -3  947.54   51.76 
  -2   0  -3  928.25   45.49 
  -2   0  -3  887.71   41.27 
   2   0   3  973.74   43.76 
   2   0   3 1018.07   44.57 
   2   0   3  926.73   40.91 
   2   0   3 1014.33   53.53 
   2   0   3  936.37   58.43 
  -2   0  -3 1014.66   61.32 
  -2   0  -3 1032.90   55.83 
   2   0   3 1013.53   63.32 
   2   0   3 1096.09   63.92 
  -3   0  -3  375.78   19.85 
  -3   0  -3  389.56   19.77 
  -3   0  -3  366.70   17.56 
  -3   0  -3  382.17   19.25 
   3   0   3  400.85   19.77 
   3   0   3  395.79   19.41 
   3   0   3  421.83   20.33 
   3   0   3  417.77   16.24 
   3   0   3  379.35   13.90 
  -4   0  -3  25.036   1.929 
  -4   0  -3  25.478   1.849 
   4   0   3  24.112   1.125 
   4   0   3  25.478   2.250 
   4   0   3  23.710   1.085 
   4   0   3  23.911   1.125 
   4   0   3  25.799   1.808 
  -5   0  -3  109.79    5.75 
  -5   0  -3  107.30    5.91 
   5   0   3  88.891   5.505 
   5   0   3  91.704   5.546 
  -6   0  -3  1.0448  1.8084 
  -6   0  -3  -2.170   1.688 
   6   0   3  -1.969   2.049 
   6   0   3  8.4792  4.1793 
  -7   0  -3  31.747   3.657 
  -7   0  -3  45.651   4.420 
   7   0   3  33.756   3.777 
   7   0   3  33.997   5.264 
  -8   0  -3  89.333   6.510 
  -8   0  -3  90.860   6.832 
   8   0   3  75.951  10.167 
   8  -1  -3  -10.61    6.31 
  -8   1   3  0.0402  3.0139 
  -8   1   3  5.8671  3.3354 
   7  -1  -3  294.68   17.84 
  -7   1   3  322.25   13.94 
  -7   1   3  288.49   15.63 
   6  -1  -3  4.5812  2.0897 
   6  -1  -3  14.748   3.737 
  -6   1   3  7.6755  1.2458 
  -6   1   3  8.4390  1.4065 
  -6   1   3  6.9923  1.7682 
  -6   1   3  10.971   2.049 
  -6   1   3  8.7605  1.2056 
   5  -1  -3  348.65   23.43 
   5  -1  -3  349.74   15.35 
  -5   1   3  347.41   14.43 
  -5   1   3  330.41   15.95 
  -5   1   3  354.92   17.80 
  -5   1   3  349.82   13.30 
  -5   1   3  343.47   17.40 
   4  -1  -3  42.276   3.175 
   4  -1  -3  38.458   1.849 
   4  -1  -3  43.963   2.291 
  -4   1   3  42.517   2.451 
  -4   1   3  44.004   2.009 
  -4   1   3  44.446   2.532 
  -4   1   3  43.521   1.929 
   3  -1  -3 1671.61  175.85 
  -3   1   3 2282.60  114.37 
   3  -1  -3 4696.64  259.40 
   3  -1  -3 4725.98  264.54 
  -3   1   3 4675.87  254.44 
  -3   1   3 4745.41  252.48 
   2  -1  -3  111.88    5.10 
   2  -1  -3  117.95    5.43 
   2  -1  -3  116.90    4.78 
   2  -1  -3  113.08    5.14 
   2  -1  -3  107.30    4.14 
  -2   1   3  114.57    4.66 
  -2   1   3  107.98    4.70 
  -2   1   3  113.65    5.79 
   2  -1  -3  115.04    7.85 
   2  -1  -3  105.54    7.69 
  -2   1   3  103.53    6.70 
   1  -1  -3  87.806   3.777 
   1  -1  -3  76.112   2.974 
   1  -1  -3  84.792   4.501 
   1  -1  -3  78.041   3.777 
   1  -1  -3  80.372   3.617 
  -1   1   3  75.549   3.737 
  -1   1   3  73.580   3.335 
  -1   1   3  79.648   3.456 
  -1   1   3  76.152   4.059 
   1  -1  -3  77.452   5.220 
   1  -1  -3  68.387   5.078 
  -1   1   3  70.550   5.514 
  -1   1   3  69.127   5.391 
   0  -1  -3  182.32    7.35 
   0  -1  -3  178.39    8.28 
   0  -1  -3  180.92    8.12 
   0  -1  -3  186.14    8.12 
   0  -1  -3  196.43   10.41 
   0   1   3  180.72    8.36 
   0   1   3  164.48   12.38 
   0   1   3  178.22   10.49 
   0   1   3  177.82    7.15 
   0   1   3  174.09    9.40 
   0  -1  -3  194.01   11.65 
   0  -1  -3  202.90   11.14 
   0   1   3  182.98   12.10 
   0   1   3  177.08   11.79 
  -1  -1  -3  198.76   11.21 
  -1  -1  -3  208.36    8.68 
  -1  -1  -3  215.60   11.29 
  -1  -1  -3  213.91   10.45 
   1   1   3  204.71    9.89 
   1   1   3  215.07   13.22 
   1   1   3  212.14   10.49 
   1   1   3  210.98   13.38 
   1   1   3  233.24   14.79 
   1   1   3  229.30   12.30 
  -1  -1  -3  240.69   13.96 
  -1  -1  -3  218.19   12.87 
   1   1   3  228.03   13.64 
   1   1   3  228.69   16.54 
  -2  -1  -3  1.2458  0.8439 
  -2  -1  -3  3.5765  1.0850 
  -2  -1  -3  3.5364  0.6028 
  -2  -1  -3  3.1747  0.5224 
   2   1   3  1.9691  1.0850 
   2   1   3  2.7326  0.6430 
   2   1   3  4.1391  0.8037 
   2   1   3  4.4204  0.7233 
  -2  -1  -3  4.6538  3.7076 
  -2  -1  -3  3.4996  3.8260 
   2   1   3  -1.287   3.715 
   2   1   3  -3.909   4.029 
  -3  -1  -3  140.17    8.68 
  -3  -1  -3  148.33    6.55 
  -3  -1  -3  140.93    6.55 
  -3  -1  -3  142.74    6.59 
   3   1   3  150.66    8.68 
   3   1   3  141.33    6.11 
   3   1   3  150.82    6.43 
   3   1   3  159.66    7.51 
   3   1   3  149.21    7.27 
   3   1   3  146.12    8.08 
  -4  -1  -3  110.63    5.10 
  -4  -1  -3  115.45    5.87 
  -4  -1  -3  108.06    5.71 
   4   1   3  107.34    5.75 
   4   1   3  106.57    3.98 
   4   1   3  108.38    3.78 
   4   1   3  120.28    6.39 
  -5  -1  -3  17.481   1.808 
  -5  -1  -3  15.271   2.090 
  -5  -1  -3  13.181   1.527 
   5   1   3  14.266   2.331 
   5   1   3  11.332   3.255 
   5   1   3  10.489   2.049 
  -6  -1  -3  23.951   2.934 
  -6  -1  -3  18.767   3.094 
   6   1   3  17.441   4.742 
   6   1   3  21.379   3.376 
  -7  -1  -3  24.112   3.938 
  -7  -1  -3  16.677   3.255 
   7   1   3  19.892   3.777 
   7   1   3  15.070   5.666 
  -8  -1  -3  5.8270  4.0186 
  -8  -1  -3  10.890   3.737 
   8   1   3  9.2427  8.5998 
   8  -2  -3  55.858   7.997 
  -8   2   3  43.843   5.224 
   7  -2  -3  9.9259  4.3401 
  -7   2   3  17.441   2.934 
  -7   2   3  8.4792  2.6121 
   6  -2  -3  145.63    9.97 
  -6   2   3  169.34    7.92 
  -6   2   3  154.23    9.52 
  -6   2   3  155.84    6.51 
  -6   2   3  150.46    6.79 
   5  -2  -3  12.176   2.652 
   5  -2  -3  10.006   1.487 
   5  -2  -3  10.689   0.924 
  -5   2   3  13.101   1.206 
  -5   2   3  12.016   1.326 
  -5   2   3  12.337   1.447 
   4  -2  -3  202.66    8.08 
   4  -2  -3  192.77   11.53 
   4  -2  -3  196.63    7.68 
  -4   2   3  205.39    8.08 
  -4   2   3  204.51    8.56 
  -4   2   3  187.71    8.60 
   3  -2  -3  17.561   2.170 
   3  -2  -3  12.618   0.643 
   3  -2  -3  13.101   1.366 
   3  -2  -3  13.824   1.165 
   3  -2  -3  15.190   1.246 
   3  -2  -3  13.020   0.643 
  -3   2   3  14.909   1.206 
  -3   2   3  9.5642  1.7682 
  -3   2   3  11.815   1.005 
  -3   2   3  14.346   1.085 
   3  -2  -3  14.139   3.984 
   3  -2  -3  7.3465  3.2752 
  -3   2   3  6.4200  3.3694 
  -3   2   3  3.3741  3.6637 
   2  -2  -3  587.36   25.24 
   2  -2  -3  575.66   26.76 
   2  -2  -3  606.93   24.19 
   2  -2  -3  601.58   21.54 
  -2   2   3  612.27   27.17 
  -2   2   3  558.06   23.87 
  -2   2   3  570.44   29.54 
  -2   2   3  568.71   23.47 
   2  -2  -3  576.76   28.93 
   2  -2  -3  590.29   29.74 
  -2   2   3  588.30   31.08 
  -2   2   3  570.93   31.90 
   1  -2  -3  371.40   18.41 
   1  -2  -3  374.09   11.73 
   1  -2  -3  366.25   13.02 
   1  -2  -3  386.47   17.16 
   1  -2  -3  395.63   15.35 
  -1   2   3  367.26   16.76 
  -1   2   3  382.81   16.60 
  -1   2   3  365.37   20.13 
  -1   2   3  370.55   21.06 
   1  -2  -3  377.09   19.84 
   1  -2  -3  364.63   19.48 
  -1   2   3  361.36   23.14 
  -1   2   3  373.78   23.49 
   0  -2  -3  554.77   27.57 
   0  -2  -3  484.68   22.22 
   0  -2  -3  510.88   24.19 
   0  -2  -3  550.91   20.13 
   0   2   3  498.26   31.87 
   0   2   3  506.86   20.66 
   0   2   3  471.38   29.74 
   0   2   3  533.11   31.55 
   0   2   3  504.57   31.34 
   0   2   3  523.86   24.47 
   0  -2  -3  563.46   29.98 
   0  -2  -3  536.60   30.08 
   0   2   3  519.84   35.73 
   0   2   3  515.42   32.54 
  -1  -2  -3  370.51   22.83 
  -1  -2  -3  441.44   28.37 
  -1  -2  -3  461.86   16.84 
  -1  -2  -3  464.07   19.81 
   1   2   3  454.70   25.24 
   1   2   3  452.53   25.20 
   1   2   3  466.96   33.31 
   1   2   3  473.79   26.92 
   1   2   3  410.74   25.24 
   1   2   3  407.36   27.00 
  -1  -2  -3  502.78   29.90 
  -1  -2  -3  481.62   26.73 
   1   2   3  467.16   32.37 
   1   2   3  463.00   34.19 
  -2  -2  -3  201.77    9.60 
  -2  -2  -3  190.88   10.57 
  -2  -2  -3  181.64    7.31 
  -2  -2  -3  204.14   10.29 
   2   2   3  208.00    9.93 
   2   2   3  199.24   10.89 
   2   2   3  185.22    9.04 
   2   2   3  193.33    9.68 
   2   2   3  197.84   12.62 
  -2  -2  -3  227.98   15.23 
  -2  -2  -3  211.73   13.07 
   2   2   3  193.70   13.51 
   2   2   3  211.38   15.07 
  -3  -2  -3  107.90    5.67 
  -3  -2  -3  113.77    4.50 
  -3  -2  -3  113.69    5.14 
   3   2   3  112.12    5.51 
   3   2   3  115.33    5.06 
   3   2   3  114.65    6.47 
   3   2   3  111.48    6.83 
  -4  -2  -3  193.66   10.29 
  -4  -2  -3  201.05    8.88 
  -4  -2  -3  201.13   10.73 
   4   2   3  185.74   10.97 
   4   2   3  181.80    7.07 
   4   2   3  195.18   12.26 
  -5  -2  -3  -1.527   1.768 
  -5  -2  -3  1.0448  1.4869 
  -5  -2  -3  0.2009  1.6476 
   5   2   3  0.3617  3.4560 
   5   2   3 -0.3617  1.9691 
  -6  -2  -3  22.263   2.974 
  -6  -2  -3  17.280   2.532 
  -6  -2  -3  21.700   2.773 
   6   2   3  19.209   3.536 
   6   2   3  23.227   4.501 
  -7  -2  -3  2.4513  3.7373 
  -7  -2  -3 -0.1206  2.9336 
   7   2   3  5.9073  5.3045 
   7   2   3  2.1700  3.8177 
   8  -3  -3  73.982   8.318 
  -8   3   3  72.294   5.425 
   7  -3  -3  50.554   6.912 
  -7   3   3  57.546   4.059 
   6  -3  -3  110.91    9.16 
  -6   3   3  119.47    5.83 
  -6   3   3  121.44    5.67 
  -6   3   3  114.21    6.19 
   5  -3  -3  9.6446  2.8130 
   5  -3  -3  13.020   1.567 
   5  -3  -3  10.850   1.005 
  -5   3   3  8.0774  1.7682 
  -5   3   3  12.538   1.527 
  -5   3   3  11.734   1.407 
   4  -3  -3  0.6832  0.9243 
   4  -3  -3  1.7682  1.6878 
  -4   3   3  3.5765  1.0850 
  -4   3   3  1.8485  0.8439 
  -4   3   3  0.1206  0.9645 
   3  -3  -3  585.19   22.83 
   3  -3  -3  551.71   25.80 
   3  -3  -3  558.58   20.21 
   3  -3  -3  572.05   30.30 
   3  -3  -3  520.13   24.55 
  -3   3   3  564.05   34.64 
  -3   3   3  547.53   22.99 
  -3   3   3  527.16   21.98 
  -3   3   3  530.94   22.87 
   3  -3  -3  517.48   28.40 
   3  -3  -3  560.19   31.72 
  -3   3   3  581.61   27.83 
  -3   3   3  517.77   35.31 
   2  -3  -3 1454.41   44.65 
   2  -3  -3 1372.83   62.49 
   2  -3  -3 1495.52   56.10 
   2  -3  -3 1396.74   62.81 
   2  -3  -3 1372.19   50.15 
  -2   3   3 1348.92   60.16 
  -2   3   3 1347.47   59.23 
  -2   3   3 1370.26   77.92 
   2  -3  -3 1375.35   75.11 
   2  -3  -3 1422.10   68.69 
  -2   3   3 1413.47   83.75 
  -2   3   3 1334.85   82.56 
   1  -3  -3  273.26   11.90 
   1  -3  -3  289.90   10.49 
   1  -3  -3  278.33   12.82 
   1  -3  -3  261.21   11.65 
   1  -3  -3  248.35   12.94 
  -1   3   3  260.93   14.23 
  -1   3   3  271.50   10.65 
  -1   3   3  267.92   16.44 
  -1   3   3  263.54   13.74 
   1  -3  -3  286.64   15.59 
   1  -3  -3  278.88   14.67 
  -1   3   3  263.16   17.23 
   0  -3  -3  160.70    9.52 
   0  -3  -3  144.15    7.92 
   0  -3  -3  144.63    5.51 
   0  -3  -3  147.52    6.15 
   0  -3  -3  150.98    6.11 
   0   3   3  142.02    9.48 
   0   3   3  131.17    9.00 
   0   3   3  130.08    6.75 
   0   3   3  143.54    6.99 
   0   3   3  147.96    8.12 
   0   3   3  132.49    8.24 
   0  -3  -3  162.90   10.96 
   0  -3  -3  147.14    9.62 
   0   3   3  147.38   10.66 
   0   3   3  157.98   11.78 
  -1  -3  -3  147.28    8.16 
  -1  -3  -3  151.26    8.12 
  -1  -3  -3  150.46    5.14 
  -1  -3  -3  158.05    7.51 
   1   3   3  154.43    9.00 
   1   3   3  153.95   10.93 
   1   3   3  136.39    8.52 
   1   3   3  152.22    8.12 
   1   3   3  143.54    8.80 
  -1  -3  -3  166.65   12.26 
  -1  -3  -3  148.27   10.78 
   1   3   3  146.42   12.31 
   1   3   3  151.53   12.76 
  -2  -3  -3  865.60   49.51 
  -2  -3  -3  816.46   49.23 
  -2  -3  -3  878.50   31.06 
  -2  -3  -3  843.26   53.09 
   2   3   3  973.30   49.71 
   2   3   3  836.39   45.77 
   2   3   3  853.39   55.01 
   2   3   3  884.53   49.87 
   2   3   3  889.96   50.59 
   2   3   3  840.69   52.04 
  -3  -3  -3  257.23   13.26 
  -3  -3  -3  243.37   13.62 
  -3  -3  -3  247.30    9.24 
   3   3   3  251.28   15.35 
   3   3   3  249.15   11.94 
   3   3   3  229.90   12.94 
   3   3   3  253.05   11.05 
  -4  -3  -3  3.0139  1.4467 
  -4  -3  -3  3.3756  0.8841 
  -4  -3  -3  2.3308  1.4869 
  -4  -3  -3  2.3308  1.8084 
   4   3   3  3.8980  2.0495 
   4   3   3  3.1345  1.8084 
   4   3   3  2.1299  0.8439 
  -5  -3  -3  53.447   3.777 
  -5  -3  -3  51.478   3.818 
  -5  -3  -3  51.880   3.134 
   5   3   3  45.330   4.862 
   5   3   3  50.594   4.581 
  -6  -3  -3  34.279   3.657 
  -6  -3  -3  40.306   3.577 
  -6  -3  -3  34.640   3.737 
   6   3   3  31.666   4.340 
   6   3   3  38.538   5.907 
  -7  -3  -3  44.486   5.104 
  -7  -3  -3  50.514   5.104 
   7   3   3  33.394   7.153 
   7   3   3  46.133   5.948 
   8  -4  -3 -0.5626  5.2242 
  -8   4   3  2.2906  3.5364 
   7  -4  -3  74.103   7.394 
  -7   4   3  78.282   4.782 
  -7   4   3  73.540   4.662 
  -7   4   3  79.367   4.340 
   6  -4  -3 -0.8439  3.3354 
  -6   4   3  0.5224  1.6074 
  -6   4   3  3.9784  1.6074 
  -6   4   3  1.3663  1.5271 
   5  -4  -3  137.11    9.97 
   5  -4  -3  145.07    7.72 
   5  -4  -3  160.98    7.76 
   5  -4  -3  151.50    9.48 
  -5   4   3  160.98    6.71 
  -5   4   3  164.68    7.23 
  -5   4   3  153.27    7.43 
   4  -4  -3  7.5549  0.9645 
   4  -4  -3  6.2690  2.2504 
   4  -4  -3  5.4653  1.0448 
   4  -4  -3  7.6755  1.0448 
   4  -4  -3  8.4792  1.3663 
  -4   4   3  9.5240  1.3261 
  -4   4   3  8.9614  1.3261 
   3  -4  -3  179.51    6.87 
   3  -4  -3  186.02    7.60 
   3  -4  -3  182.52    8.28 
   3  -4  -3  182.93    9.97 
   3  -4  -3  185.18    8.32 
   3  -4  -3  167.29    8.72 
  -3   4   3  170.11    8.64 
  -3   4   3  172.68   11.41 
  -3   4   3  171.03    7.35 
   2  -4  -3  92.789   3.617 
   2  -4  -3  94.477   4.581 
   2  -4  -3  99.540   4.340 
   2  -4  -3  88.369   4.702 
   2  -4  -3  86.641   2.893 
   2  -4  -3  87.645   3.094 
   2  -4  -3  101.47    4.54 
  -2   4   3  82.542   5.706 
  -2   4   3  86.721   4.621 
  -2   4   3  88.730   4.461 
   2  -4  -3  90.532   6.842 
   2  -4  -3  74.821   6.460 
  -2   4   3  86.561   7.163 
  -2   4   3  87.159   7.052 
   1  -4  -3  456.27   25.96 
   1  -4  -3  456.51   20.53 
   1  -4  -3  443.37   23.79 
   1  -4  -3  455.75   20.05 
   1  -4  -3  487.05   17.96 
  -1   4   3  426.05   26.24 
  -1   4   3  450.24   27.85 
  -1   4   3  430.95   21.50 
  -1   4   3  423.32   17.28 
   1  -4  -3  510.27   26.21 
   1  -4  -3  453.89   26.84 
  -1   4   3  409.41   27.89 
  -1   4   3  452.82   29.36 
   0  -4  -3  405.80   23.47 
   0  -4  -3  420.18   30.58 
   0  -4  -3  350.98   19.61 
   0  -4  -3  413.83   14.67 
   0  -4  -3  437.30   15.95 
   0   4   3  397.68   19.53 
   0   4   3  391.33   23.75 
   0   4   3  392.29   24.92 
   0   4   3  387.31   23.59 
   0   4   3  331.85   14.35 
   0   4   3  381.56   18.57 
   0  -4  -3  441.03   28.37 
   0  -4  -3  382.04   23.11 
   0   4   3  419.75   27.20 
  -1  -4  -3  386.75   14.91 
  -1  -4  -3  349.22   17.20 
  -1  -4  -3  435.25   15.95 
  -1  -4  -3  416.29   23.31 
  -1  -4  -3  392.41   20.74 
   1   4   3  398.16   22.26 
   1   4   3  393.06   26.48 
   1   4   3  355.73   22.87 
   1   4   3  406.80   26.68 
   1   4   3  380.12   21.78 
  -2  -4  -3  415.68   24.96 
  -2  -4  -3  424.04   21.26 
  -2  -4  -3  418.58   17.88 
   2   4   3  433.04   26.44 
   2   4   3  438.83   27.45 
   2   4   3  426.73   20.25 
   2   4   3  429.75   23.47 
   2   4   3  457.32   22.71 
  -3  -4  -3  25.799   1.648 
  -3  -4  -3  24.112   2.130 
  -3  -4  -3  22.544   1.969 
   3   4   3  20.053   2.492 
   3   4   3  26.764   1.808 
   3   4   3  27.929   1.929 
   3   4   3  27.326   2.532 
  -4  -4  -3  72.656   4.220 
  -4  -4  -3  67.472   4.099 
  -4  -4  -3  70.044   3.577 
  -4  -4  -3  68.879   4.420 
   4   4   3  64.619   3.456 
   4   4   3  72.656   5.586 
   4   4   3  75.389   5.747 
  -5  -4  -3  26.362   2.813 
  -5  -4  -3  35.283   2.853 
  -5  -4  -3  38.458   3.215 
   5   4   3  28.251   3.657 
   5   4   3  30.340   5.023 
  -6  -4  -3  78.162   5.345 
  -6  -4  -3  71.089   5.586 
  -6  -4  -3  78.121   5.747 
   6   4   3  70.607   7.876 
   6   4   3  81.336   6.992 
  -7  -4  -3  29.818   4.501 
  -7  -4  -3  28.693   4.581 
   7   4   3  20.254   5.546 
   7   4   3  17.883   7.394 
   8  -5  -3  11.091   6.028 
  -8   5   3  12.980   3.617 
   7  -5  -3  -4.903   4.541 
  -7   5   3  -1.246   2.291 
  -7   5   3  1.1654  2.0093 
  -7   5   3  4.4606  2.7326 
   6  -5  -3  62.931   5.787 
  -6   5   3  57.426   3.858 
  -6   5   3  57.908   3.617 
  -6   5   3  56.220   3.697 
   5  -5  -3  5.5055  1.6878 
   5  -5  -3  6.3896  2.6523 
   5  -5  -3  5.7064  1.1654 
  -5   5   3  4.3401  1.5271 
  -5   5   3  3.7373  1.5672 
  -5   5   3  6.1083  1.4869 
   4  -5  -3  311.36   12.98 
   4  -5  -3  302.40   14.07 
   4  -5  -3  288.53   17.28 
   4  -5  -3  310.80   18.65 
  -4   5   3  289.50   13.86 
  -4   5   3  291.83   15.27 
   3  -5  -3  28.251   2.210 
   3  -5  -3  29.938   2.692 
   3  -5  -3  29.697   1.407 
   3  -5  -3  29.215   1.607 
   3  -5  -3  29.938   2.331 
   3  -5  -3  28.934   2.210 
  -3   5   3  28.853   2.130 
  -3   5   3  26.523   3.215 
  -3   5   3  31.104   1.969 
   2  -5  -3  184.98    6.59 
   2  -5  -3  195.46    7.31 
   2  -5  -3  199.72   11.17 
   2  -5  -3  195.42    8.92 
   2  -5  -3  202.66   10.85 
   2  -5  -3  191.69    7.96 
   2  -5  -3  193.86    9.81 
  -2   5   3  185.82    9.24 
  -2   5   3  202.26   12.42 
  -2   5   3  188.91   10.73 
   1  -5  -3  296.57   14.15 
   1  -5  -3  306.90   12.26 
   1  -5  -3  325.51   14.55 
   1  -5  -3  291.67   17.04 
   1  -5  -3  293.44   13.82 
  -1   5   3  291.71   18.41 
  -1   5   3  291.99   16.11 
  -1   5   3  276.80   11.33 
  -1   5   3  289.14   13.70 
  -1   5   3  278.45   10.41 
   0  -5  -3  225.12   15.71 
   0  -5  -3  228.01   10.97 
   0  -5  -3  221.10   12.14 
   0  -5  -3  221.71    9.08 
   0  -5  -3  194.02    8.92 
   0   5   3  220.58   13.18 
   0   5   3  205.27    7.76 
   0   5   3  217.41   14.07 
   0   5   3  198.32   10.81 
   0   5   3  217.24    8.72 
   0   5   3  201.33   14.67 
  -1  -5  -3  151.14   11.13 
  -1  -5  -3  153.63    7.35 
  -1  -5  -3  145.63    8.20 
  -1  -5  -3  150.13    7.55 
   1   5   3  146.96    7.39 
   1   5   3  150.30    8.88 
   1   5   3  142.14    6.95 
   1   5   3  154.31    8.92 
   1   5   3  144.15    9.40 
   1   5   3  143.66    9.56 
  -2  -5  -3  160.90    8.24 
  -2  -5  -3  150.82    9.44 
  -2  -5  -3  156.28    9.72 
  -2  -5  -3  149.45    8.20 
   2   5   3  155.96    9.60 
   2   5   3  160.74    8.76 
   2   5   3  154.84   10.33 
   2   5   3  143.91    9.08 
   2   5   3  159.58    7.11 
  -3  -5  -3  110.59    6.99 
  -3  -5  -3  119.95    5.63 
  -3  -5  -3  121.08    6.07 
   3   5   3  106.77    7.84 
   3   5   3  109.95    6.55 
   3   5   3  122.04    7.27 
   3   5   3  113.73    5.63 
  -4  -5  -3  74.947   4.501 
  -4  -5  -3  77.036   4.420 
  -4  -5  -3  79.930   4.581 
   4   5   3  79.970   6.349 
   4   5   3  80.171   5.988 
   4   5   3  65.503   3.657 
  -5  -5  -3  5.2242  2.4915 
  -5  -5  -3  7.4746  2.3710 
  -5  -5  -3  3.7373  2.8532 
   5   5   3  9.2427  3.2952 
   5   5   3  13.261   3.938 
  -6  -5  -3  40.467   4.179 
  -6  -5  -3  39.221   4.179 
  -6  -5  -3  48.504   5.305 
   6   5   3  35.564   7.073 
   6   5   3  36.449   5.425 
   8  -6  -3  5.8671  6.5503 
  -8   6   3  8.7605  3.8177 
   7  -6  -3  3.1345  4.7821 
  -7   6   3  6.9923  3.2952 
  -7   6   3  1.8084  1.6074 
  -7   6   3  5.6662  2.5719 
   6  -6  -3  65.141   6.550 
  -6   6   3  79.206   4.099 
  -6   6   3  67.954   4.742 
  -6   6   3  70.285   5.063 
   5  -6  -3  41.633   3.255 
   5  -6  -3  40.588   3.054 
   5  -6  -3  45.089   4.541 
   5  -6  -3  42.316   3.014 
  -5   6   3  48.625   3.255 
  -5   6   3  52.764   3.255 
  -5   6   3  43.160   3.376 
   4  -6  -3  36.891   2.371 
   4  -6  -3  41.633   2.853 
   4  -6  -3  33.113   3.134 
   4  -6  -3  36.971   2.250 
   4  -6  -3  34.841   3.335 
  -4   6   3  41.954   3.054 
  -4   6   3  38.418   2.532 
   3  -6  -3  488.50   22.30 
   3  -6  -3  440.68   23.95 
   3  -6  -3  467.56   26.44 
   3  -6  -3  487.09   17.20 
   3  -6  -3  473.55   18.08 
  -3   6   3  441.20   22.42 
  -3   6   3  433.44   22.30 
  -3   6   3  460.25   35.97 
   2  -6  -3  72.817   4.581 
   2  -6  -3  76.634   4.943 
   2  -6  -3  68.798   2.692 
   2  -6  -3  77.880   3.777 
  -2   6   3  72.535   2.532 
  -2   6   3  71.611   3.978 
  -2   6   3  67.231   5.063 
  -2   6   3  68.879   3.777 
   1  -6  -3  7.3138  1.6074 
   1  -6  -3  3.7373  1.5271 
  -1   6   3  4.8223  0.6430 
  -1   6   3  5.8671  1.4467 
  -1   6   3  3.7373  0.6430 
  -1   6   3  5.4653  1.1654 
   0  -6  -3  1.1654  0.7635 
   0  -6  -3  1.6878  1.5271 
   0  -6  -3  0.6832  1.4869 
   0   6   3  0.5224  1.5672 
   0   6   3 -0.9645  1.2056 
   0   6   3  1.2056  1.2458 
   0   6   3 -0.4822  1.0448 
   0   6   3  0.7635  1.0448 
  -1  -6  -3  30.099   2.492 
  -1  -6  -3  29.617   2.853 
   1   6   3  28.411   2.652 
   1   6   3  33.394   2.250 
   1   6   3  33.153   2.291 
   1   6   3  33.917   2.572 
   1   6   3  32.631   2.934 
  -2  -6  -3  89.775   5.867 
  -2  -6  -3  83.988   6.349 
  -2  -6  -3  96.888   7.555 
  -2  -6  -3  89.132   5.425 
   2   6   3  92.427   5.988 
   2   6   3  83.627   5.586 
   2   6   3  94.115   4.340 
   2   6   3  86.681   4.983 
   2   6   3  91.543   6.832 
  -3  -6  -3  33.274   2.773 
  -3  -6  -3  33.354   2.893 
   3   6   3  31.425   3.456 
   3   6   3  30.059   3.215 
   3   6   3  33.836   4.380 
   3   6   3  36.650   3.697 
   3   6   3  31.184   2.492 
  -4  -6  -3  9.2829  2.9336 
  -4  -6  -3  7.4746  2.6121 
   4   6   3  4.9027  3.1345 
   4   6   3  7.3942  2.7728 
   4   6   3  6.6307  3.0943 
  -5  -6  -3  28.532   3.416 
  -5  -6  -3  24.554   3.938 
  -5  -6  -3  39.181   3.697 
   5   6   3  33.113   4.782 
   5   6   3  33.676   5.345 
   5   6   3  28.653   4.662 
  -6  -6  -3  3.9784  3.6167 
  -6  -6  -3  -1.567   3.577 
  -6  -6  -3  -1.326   3.295 
   6   6   3  1.9289  4.8625 
   6   6   3  4.2999  4.7821 
   8  -7  -3  6.7914  6.9120 
  -8   7   3  4.9429  3.8177 
   7  -7  -3  40.306   5.787 
  -7   7   3  45.812   4.702 
  -7   7   3  38.458   3.938 
   6  -7  -3  2.6121  3.7775 
  -6   7   3  4.2597  2.7326 
  -6   7   3  4.9027  2.4513 
   5  -7  -3  3.8578  2.3308 
   5  -7  -3  1.1654  2.3308 
  -5   7   3  -1.165   1.969 
  -5   7   3  0.4019  1.8485 
   4  -7  -3  468.53   20.33 
   4  -7  -3  445.66   21.82 
   4  -7  -3  456.27   28.69 
   4  -7  -3  477.97   27.45 
   4  -7  -3  453.94   25.00 
  -4   7   3  440.52   20.45 
  -4   7   3  442.00   22.14 
   3  -7  -3  215.36   10.21 
   3  -7  -3  219.62    8.80 
   3  -7  -3  232.48   14.39 
   3  -7  -3  233.68   13.90 
   3  -7  -3  227.65   10.61 
  -3   7   3  192.37   16.52 
  -3   7   3  217.41   10.25 
  -3   7   3  225.24   11.05 
   2  -7  -3  16.918   2.009 
   2  -7  -3  17.039   1.929 
   2  -7  -3  14.949   1.206 
  -2   7   3  20.053   2.210 
  -2   7   3  20.495   2.411 
  -2   7   3  16.195   1.889 
  -2   7   3  18.405   0.924 
   1  -7  -3  2.3308  1.3663 
   1  -7  -3  1.1654  1.8084 
  -1   7   3  1.2859  1.6878 
  -1   7   3  0.4019  0.7233 
  -1   7   3  0.7635  1.2458 
  -1   7   3  3.6569  1.2859 
  -1   7   3  0.8439  0.7635 
   0  -7  -3  4.0588  1.8084 
   0  -7  -3  3.9784  1.8485 
   0   7   3  -1.206   1.206 
   0   7   3  1.2458  1.0448 
   0   7   3  1.8887  1.4869 
   0   7   3  -1.005   1.487 
   0   7   3 -0.3617  1.4467 
  -1  -7  -3  107.18    7.31 
  -1  -7  -3  115.41    7.43 
   1   7   3  98.777   4.983 
   1   7   3  104.32    5.75 
   1   7   3  104.48    5.14 
   1   7   3  107.42    6.31 
   1   7   3  105.13    7.39 
  -2  -7  -3  39.141   3.536 
  -2  -7  -3  32.591   3.617 
   2   7   3  40.909   3.295 
   2   7   3  47.902   3.938 
   2   7   3  37.815   2.853 
   2   7   3  39.663   3.496 
  -3  -7  -3  35.404   3.014 
  -3  -7  -3  40.548   3.456 
   3   7   3  36.931   4.541 
   3   7   3  36.408   3.577 
   3   7   3  38.659   3.617 
   3   7   3  31.988   3.134 
  -4  -7  -3  38.940   3.777 
  -4  -7  -3  34.962   3.737 
   4   7   3  40.306   4.260 
   4   7   3  40.949   5.063 
  -5  -7  -3  9.7250  3.2952 
  -5  -7  -3  13.904   3.536 
  -5  -7  -3  18.646   4.260 
   5   7   3  14.748   4.621 
   5   7   3  10.569   4.983 
   8  -8  -3  9.6848  3.6167 
   8  -8  -3  19.410   6.229 
  -8   8   3  14.145   3.577 
   7  -8  -3  -6.510   4.179 
   7  -8  -3  5.9475  2.9738 
  -7   8   3  4.4606  3.5364 
   6  -8  -3  56.300   5.706 
   6  -8  -3  66.909   6.189 
  -6   8   3  65.342   4.983 
  -6   8   3  64.257   5.023 
   5  -8  -3  24.112   3.376 
   5  -8  -3  24.795   3.335 
   5  -8  -3  20.213   2.652 
  -5   8   3  21.419   2.974 
  -5   8   3  25.116   3.014 
   4  -8  -3  183.05    9.64 
   4  -8  -3  184.73   12.02 
  -4   8   3  174.41   11.01 
  -4   8   3  180.51    8.72 
   3  -8  -3  32.109   2.733 
   3  -8  -3  31.787   3.577 
   3  -8  -3  32.993   2.170 
  -3   8   3  34.118   2.492 
  -3   8   3  35.966   2.773 
  -3   8   3  36.810   4.300 
   2  -8  -3  67.794   4.581 
   2  -8  -3  63.735   3.456 
   2  -8  -3  56.984   2.773 
  -2   8   3  62.248   2.572 
  -2   8   3  64.900   4.340 
  -2   8   3  66.869   3.938 
  -2   8   3  55.376   5.023 
   1  -8  -3  4.9830  1.7280 
   1  -8  -3  4.7419  1.2056 
  -1   8   3  6.5101  1.6878 
  -1   8   3  6.5503  0.9645 
  -1   8   3  5.1840  1.4869 
  -1   8   3  4.8625  2.0093 
  -1   8   3  5.4251  0.9645 
   0  -8  -3  406.60   22.46 
   0  -8  -3  414.28   18.77 
   0   8   3  390.16   18.32 
   0   8   3  383.13   15.95 
   0   8   3  384.66   21.10 
   0   8   3  364.04   17.28 
  -1  -8  -3  -1.527   2.009 
  -1  -8  -3  0.1607  2.2504 
   1   8   3  0.1206  1.3261 
   1   8   3  3.5364  1.8887 
   1   8   3  1.0448  1.8084 
   1   8   3  0.0000  1.8887 
   1   8   3 -0.5626  1.6878 
  -2  -8  -3  49.228   4.059 
  -2  -8  -3  42.034   3.737 
   2   8   3  45.089   3.456 
   2   8   3  43.119   3.335 
   2   8   3  50.232   4.943 
   2   8   3  44.124   3.376 
  -3  -8  -3  17.119   3.215 
  -3  -8  -3  13.342   2.893 
   3   8   3  20.173   3.536 
   3   8   3  18.204   3.978 
   3   8   3  17.400   2.652 
  -4  -8  -3  74.746   5.345 
  -4  -8  -3  68.758   5.586 
   4   8   3  69.120   7.515 
   4   8   3  72.897   7.957 
  -5  -8  -3  13.583   3.697 
  -5  -8  -3  14.427   4.541 
  -5  -8  -3  1.8887  4.2195 
   5   8   3  15.431   6.108 
   5   8   3  7.8764  5.2242 
   7  -9  -3  40.226   6.711 
   7  -9  -3  31.586   5.224 
  -7   9   3  32.149   4.621 
   6  -9  -3  7.3138  4.3803 
   6  -9  -3  7.2335  3.4158 
  -6   9   3  7.9970  3.2149 
   5  -9  -3  3.7775  3.0541 
   5  -9  -3  4.2597  2.5719 
  -5   9   3  2.4112  2.7326 
  -5   9   3  0.6028  3.0541 
   4  -9  -3  2.3710  2.7326 
   4  -9  -3  0.4822  2.5719 
  -4   9   3 -0.0804  1.9691 
  -4   9   3  1.6476  2.2504 
   3  -9  -3  102.88    5.83 
   3  -9  -3  115.78    8.56 
  -3   9   3  111.36    5.83 
  -3   9   3  104.60    6.15 
  -3   9   3  108.86    4.14 
   2  -9  -3  6.4297  2.2504 
   2  -9  -3  5.1036  1.8485 
  -2   9   3  3.4560  2.2504 
  -2   9   3  2.8934  1.1252 
  -2   9   3  6.5905  1.0850 
  -2   9   3  8.2381  2.5317 
   1  -9  -3  114.85    7.11 
  -1   9   3  110.55    5.83 
  -1   9   3  113.89    6.31 
  -1   9   3  109.23    5.99 
  -1   9   3  106.93    5.06 
   0  -9  -3  4.5410  1.9691 
   0  -9  -3  6.5101  2.3308 
   0   9   3  2.4112  1.8887 
   0   9   3  3.4158  1.6476 
   0   9   3  4.7821  1.4467 
   0   9   3  4.4606  2.0897 
  -1  -9  -3  69.200   5.425 
  -1  -9  -3  71.049   4.300 
   1   9   3  58.591   4.179 
   1   9   3  66.467   5.425 
  -2  -9  -3  2.6925  2.4915 
  -2  -9  -3  3.4158  2.5719 
   2   9   3  0.2411  3.0943 
   2   9   3  0.6430  2.0495 
  -3  -9  -3  60.922   5.023 
  -3  -9  -3  69.722   5.224 
   3   9   3  54.492   4.822 
   3   9   3  65.382   5.626 
  -4  -9  -3  1.9289  3.6167 
  -4  -9  -3  -2.130   2.974 
   4   9   3  1.4065  3.8177 
   4   9   3  1.9289  4.4204 
   7 -10  -3  3.2149  5.7466 
   7 -10  -3  4.6616  4.4606 
  -7  10   3  1.4065  4.1793 
   6 -10  -3  3.6167  3.6971 
   6 -10  -3  2.3710  4.1793 
  -6  10   3  8.1979  3.1345 
   5 -10  -3  10.850   3.094 
   5 -10  -3  13.663   3.737 
  -5  10   3  10.850   3.496 
   4 -10  -3  4.9830  2.8934 
  -4  10   3  4.0990  2.8130 
  -4  10   3  5.2242  2.9336 
   3 -10  -3  6.9923  3.0541 
  -3  10   3  5.7466  3.0943 
  -3  10   3  4.5008  2.1299 
   2 -10  -3  14.105   2.733 
  -2  10   3  16.597   2.532 
  -2  10   3  16.155   2.572 
  -2  10   3  15.672   2.130 
  -2  10   3  15.190   3.094 
   1 -10  -3  32.470   3.898 
   1 -10  -3  27.286   3.456 
  -1  10   3  25.840   3.255 
  -1  10   3  27.246   2.009 
  -1  10   3  25.156   2.250 
   0 -10  -3  91.101   7.555 
   0 -10  -3  83.506   5.747 
   0  10   3  95.562   5.184 
   0  10   3  91.423   4.822 
   0  10   3  87.645   6.028 
  -1 -10  -3  197.96   15.47 
  -1 -10  -3  190.08   11.41 
   1  10   3  218.69   13.98 
   1  10   3  185.74    8.92 
  -2 -10  -3  47.620   4.621 
  -2 -10  -3  52.844   4.943 
   2  10   3  49.147   5.706 
   2  10   3  50.875   4.260 
  -3 -10  -3  35.966   5.063 
  -3 -10  -3  27.929   4.019 
   3  10   3  43.160   5.706 
   6 -11  -3  2.7728  4.2195 
  -6  11   3  -1.326   4.139 
   5 -11  -3  0.6430  3.1345 
  -5  11   3  -2.652   2.492 
   4 -11  -3  51.759   5.385 
  -4  11   3  67.231   5.425 
   3 -11  -3  2.5719  3.2149 
  -3  11   3  -2.652   2.974 
   2 -11  -3  53.849   4.943 
  -2  11   3  51.920   5.184 
   1 -11  -3  3.3354  3.2149 
   1 -11  -3  6.1886  3.0139 
  -1  11   3  6.3092  2.8130 
   0 -11  -3  56.582   4.782 
   0 -11  -3  53.889   5.144 
   0  11   3  63.574   4.662 
  -1 -11  -3  2.0093  3.4962 
  -1 -11  -3  9.3231  3.4158 
   1  11   3  7.1933  3.0943 
  -2 -11  -3  43.200   5.505 
  -2 -11  -3  45.370   4.983 
   2  11   3  38.257   4.420 
   6 -12  -3  32.390   5.144 
  -6  12   3  48.786   5.747 
   5 -12  -3  0.8841  4.6616 
  -5  12   3  4.6616  4.3401 
   4 -12  -3  13.302   4.782 
  -4  12   3  3.2551  3.8980 
   3 -12  -3  51.558   6.108 
  -3  12   3  58.109   5.224 
   2 -12  -3  31.144   4.621 
  -2  12   3  24.232   3.697 
   1 -12  -3  40.387   4.581 
   1 -12  -3  45.089   4.862 
  -1  12   3  50.393   5.224 
   0 -12  -3  6.9923  3.9784 
   0 -12  -3  10.328   3.255 
   0  12   3  8.7605  3.3756 
  -1 -12  -3  27.125   4.541 
  -1 -12  -3  27.326   4.702 
   1  12   3  17.561   4.340 
   4 -13  -3  -6.108   5.104 
  -4  13   3  0.0804  4.6214 
   3 -13  -3  12.257   5.264 
  -3  13   3  20.736   4.943 
   2 -13  -3  16.677   3.938 
   2 -13  -3  16.436   4.420 
  -2  13   3  20.776   4.983 
   1 -13  -3  11.614   3.657 
   1 -13  -3  8.9213  3.8177 
  -1  13   3  5.4653  4.5008 
   0 -13  -3  10.931   4.501 
   0 -13  -3  12.016   4.340 
   0  13  -4  1.4467  3.9784 
   0  13  -4  -4.862   4.903 
   0 -13   4  0.1206  4.2195 
  -1  13  -4  79.729   6.430 
  -1  13  -4  81.979   7.756 
   1 -13   4  91.503   8.158 
  -2  13  -4  18.084   4.139 
  -2  13  -4  18.807   5.063 
   2 -13   4  15.552   3.898 
  -3  13  -4  10.569   4.380 
  -3  13  -4  19.892   4.983 
   3 -13   4  10.649   4.019 
   3 -13   4  9.7652  4.1793 
  -4  13  -4  7.1129  4.1793 
  -4  13  -4  9.0820  4.5410 
   4 -13   4  15.592   4.581 
   4 -13   4  5.6662  5.2242 
   2  12  -4  45.932   5.706 
   2  12  -4  31.064   7.314 
  -2 -12   4  37.654   5.666 
   1  12  -4  2.0495  3.7775 
   1  12  -4  3.3756  4.2597 
  -1 -12   4  -2.893   3.335 
   0  12  -4  121.28    9.12 
   0  12  -4  115.41    8.64 
   0 -12   4  115.70    9.24 
  -1  12  -4  6.5101  4.5812 
  -1  12  -4  11.051   3.134 
   1 -12   4  2.6121  2.6523 
  -2  12  -4  15.391   4.179 
  -2  12  -4  21.781   3.697 
   2 -12   4  24.594   3.818 
  -3  12  -4  6.4699  3.3354 
  -3  12  -4  6.6307  3.0943 
   3 -12   4  3.5364  3.2149 
   3 -12   4  10.489   4.220 
  -4  12  -4  52.684   4.702 
  -4  12  -4  40.226   4.702 
   4 -12   4  49.228   6.550 
   4 -12   4  48.786   5.626 
  -5  12  -4  0.8439  3.7775 
   5 -12   4  3.3354  4.3401 
   5 -12   4  5.2643  3.4560 
   3  11  -4  10.569   4.862 
   3  11  -4  7.1129  4.5410 
  -3 -11   4  5.7466  4.4204 
   2  11  -4  66.909   5.586 
   2  11  -4  61.967   6.148 
  -2 -11   4  65.463   5.747 
   1  11  -4  26.201   3.577 
   1  11  -4  26.724   3.978 
  -1 -11   4  18.928   4.099 
   0  11  -4  40.990   4.300 
   0  11  -4  42.597   4.501 
   0 -11   4  44.124   4.340 
  -1  11  -4  71.491   6.269 
  -1  11  -4  74.304   5.305 
   1 -11   4  76.956   5.224 
  -2  11  -4  25.759   3.335 
  -2  11  -4  17.601   3.657 
   2 -11   4  28.653   3.416 
  -3  11  -4  27.125   4.019 
  -3  11  -4  17.802   3.014 
   3 -11   4  21.861   3.737 
   3 -11   4  20.374   3.496 
  -4  11  -4  17.521   3.175 
  -4  11  -4  12.458   2.853 
   4 -11   4  11.373   3.777 
   4 -11   4  12.176   3.456 
  -5  11  -4  40.105   4.059 
   5 -11   4  44.084   5.586 
   5 -11   4  29.738   4.099 
  -6  11  -4  -3.335   3.295 
   6 -11   4  8.7605  5.2643 
   4  10  -4  15.030   5.345 
  -4 -10   4  13.583   4.461 
   3  10  -4  79.889   7.796 
  -3 -10   4  81.577   7.033 
   2  10  -4  4.7821  3.0139 
   2  10  -4  5.5858  3.6569 
  -2 -10   4  9.4035  2.7326 
   1  10  -4  53.648   3.858 
   1  10  -4  57.225   5.104 
  -1 -10   4  55.939   4.541 
   0  10  -4  703.45   38.78 
   0  10  -4  690.67   35.56 
   0 -10   4  681.91   33.11 
  -1  10  -4  148.21   10.01 
  -1  10  -4  142.46    8.64 
   1 -10   4  149.17    8.36 
  -2  10  -4  4.4606  2.6925 
  -2  10  -4  1.4869  2.4112 
   2 -10   4  -1.768   2.170 
  -3  10  -4  115.13    7.27 
  -3  10  -4  115.01    8.04 
   3 -10   4  117.50    7.15 
   3 -10   4  112.36    8.04 
   3 -10   4  106.49    9.44 
  -4  10  -4  10.087   2.813 
   4 -10   4  10.730   3.376 
   4 -10   4  13.824   2.934 
  -5  10  -4  25.759   3.255 
   5 -10   4  27.809   4.019 
   5 -10   4  22.986   3.978 
   5 -10   4  36.891   4.581 
  -6  10  -4  38.136   4.340 
   6 -10   4  29.697   5.305 
   6 -10   4  45.490   5.787 
   7 -10   4  15.672   5.747 
   7 -10   4  10.207   5.626 
   5   9  -4  6.5905  6.9120 
  -5  -9   4  14.186   5.305 
   4   9  -4  103.08    8.52 
  -4  -9   4  93.513   7.073 
   3   9  -4  -4.903   3.134 
  -3  -9   4  5.5456  3.2952 
   2   9  -4  191.57   11.13 
  -2  -9   4  180.19   10.77 
  -2  -9   4  183.77   11.65 
  -2  -9   4  178.51   10.05 
   1   9  -4  0.8037  2.2504 
   1   9  -4  -5.666   2.331 
  -1  -9   4  -2.813   1.407 
  -1  -9   4 -0.8841  1.2056 
  -1  -9   4  -3.295   2.250 
   0   9  -4  23.509   2.572 
   0   9  -4  25.518   2.893 
   0  -9   4  22.142   1.688 
   0  -9   4  22.544   2.733 
  -1   9  -4  7.3540  2.4112 
  -1   9  -4  7.6755  2.0495 
   1  -9   4  8.9614  1.3261 
   1  -9   4  5.8671  1.8887 
  -2   9  -4  225.92   10.81 
  -2   9  -4  212.30   12.50 
   2  -9   4  230.63   11.90 
  -3   9  -4  -1.889   2.652 
  -3   9  -4  0.3617  2.0093 
   3  -9   4  -1.407   2.049 
   3  -9   4  -1.567   1.808 
  -4   9  -4  285.84   12.66 
   4  -9   4  300.63   17.36 
   4  -9   4  274.35   16.40 
   4  -9   4  257.15   19.25 
  -5   9  -4  -1.648   2.451 
   5  -9   4  -2.170   2.893 
   5  -9   4 -0.2411  2.3710 
   5  -9   4  2.0093  2.7728 
  -6   9  -4  28.010   3.456 
  -6   9  -4  31.265   3.617 
   6  -9   4  17.119   5.224 
   6  -9   4  34.279   4.541 
  -7   9  -4  4.4606  4.0588 
   7  -9   4  1.1654  5.1840 
   7  -9   4  2.0495  4.0990 
   5   8  -4  50.755   6.992 
  -5  -8   4  40.708   4.662 
  -5  -8   4  41.954   4.541 
  -5  -8   4  50.072   5.787 
   4   8  -4  37.051   4.903 
  -4  -8   4  38.619   4.501 
  -4  -8   4  29.215   3.134 
  -4  -8   4  37.694   3.295 
   3   8  -4  125.14    8.04 
   3   8  -4  133.42    8.04 
  -3  -8   4  122.41    6.79 
  -3  -8   4  130.64    7.39 
  -3  -8   4  131.89    6.71 
   2   8  -4  121.72    7.03 
   2   8  -4  119.11    7.11 
  -2  -8   4  113.04    7.47 
  -2  -8   4  131.61    7.80 
  -2  -8   4  119.47    6.35 
   1   8  -4  102.55    6.27 
   1   8  -4  138.20    6.79 
   1   8  -4  126.06    7.03 
  -1  -8   4  129.60    6.03 
  -1  -8   4  126.79    7.43 
  -1  -8   4  124.90    6.19 
   0   8  -4  128.03    7.23 
   0   8  -4  120.52    6.47 
   0  -8   4  116.66    5.71 
   0  -8   4  122.21    5.26 
   0  -8   4  123.45    6.83 
  -1   8  -4  576.99   30.18 
  -1   8  -4  572.65   30.58 
   1  -8   4  612.71   22.66 
   1  -8   4  623.48   32.63 
   1  -8   4  567.63   26.12 
   1  -8   4  586.39   33.60 
  -2   8  -4  87.605   4.903 
  -2   8  -4  82.542   5.505 
   2  -8   4  83.948   4.179 
   2  -8   4  87.927   5.345 
   2  -8   4  81.979   3.737 
   2  -8   4  70.124   5.626 
   2  -8   4  88.891   5.144 
  -3   8  -4  401.26   20.62 
  -3   8  -4  405.27   22.58 
   3  -8   4  381.04   19.09 
   3  -8   4  397.52   19.25 
   3  -8   4  398.80   19.97 
   3  -8   4  389.44   21.54 
   3  -8   4  407.65   20.90 
  -4   8  -4  118.95    6.47 
   4  -8   4  113.81    6.95 
   4  -8   4  109.14    6.19 
  -5   8  -4  0.8439  1.8887 
  -5   8  -4  3.5765  1.8887 
   5  -8   4  1.0448  1.8887 
   5  -8   4  -2.934   2.492 
   5  -8   4  5.7868  3.4560 
  -6   8  -4  9.8054  3.0139 
  -6   8  -4  5.3045  2.6523 
   6  -8   4  5.2242  3.1345 
   6  -8   4  5.5055  4.0990 
  -7   8  -4  17.722   3.898 
   7  -8   4  20.856   4.862 
   7  -8   4  18.566   6.028 
   6   7  -4  5.1840  6.7512 
  -6  -7   4  3.9382  4.1391 
  -6  -7   4  0.5224  3.8980 
  -6  -7   4  -1.487   3.737 
   5   7  -4  135.91   10.69 
  -5  -7   4  128.59    8.00 
  -5  -7   4  134.46    8.92 
  -5  -7   4  130.68    7.51 
   4   7  -4  11.694   4.019 
   4   7  -4  9.0016  3.2551 
  -4  -7   4  10.368   1.929 
  -4  -7   4  9.2026  2.9738 
  -4  -7   4  5.4653  2.1700 
   3   7  -4  206.23   10.05 
   3   7  -4  193.37   10.33 
  -3  -7   4  183.29   11.49 
  -3  -7   4  198.40   12.66 
  -3  -7   4  181.40   11.09 
   2   7  -4  7.6353  2.2102 
   2   7  -4  10.931   2.049 
  -2  -7   4  10.689   1.969 
  -2  -7   4  6.3092  2.0093 
  -2  -7   4  10.368   1.286 
   1   7  -4  273.67   11.57 
   1   7  -4  252.25   13.46 
   1   7  -4  261.77   14.51 
  -1  -7   4  237.22   12.30 
  -1  -7   4  256.79   12.58 
  -1  -7   4  258.03   14.39 
  -1  -7   4  253.33   12.38 
   0   7  -4  32.952   2.572 
   0   7  -4  32.028   2.612 
   0  -7   4  33.153   1.607 
   0  -7   4  31.144   2.371 
   0  -7   4  33.033   2.532 
  -1   7  -4  311.28   18.61 
  -1   7  -4  313.97   14.47 
   1  -7   4  304.25   11.77 
   1  -7   4  315.14   19.01 
   1  -7   4  333.46   17.68 
   1  -7   4  326.79   11.98 
   1  -7   4  312.89   11.65 
  -2   7  -4  5.7868  1.6074 
  -2   7  -4  1.0046  1.8887 
  -2   7  -4  5.9073  1.6878 
   2  -7   4  4.9830  1.9289 
   2  -7   4  3.1747  0.7233 
   2  -7   4  3.0139  2.1700 
   2  -7   4  1.6476  1.2859 
   2  -7   4  5.2242  0.8439 
  -3   7  -4  138.96    7.55 
  -3   7  -4  129.68    6.95 
   3  -7   4  130.56   10.41 
   3  -7   4  133.86    6.39 
   3  -7   4  148.97    7.15 
   3  -7   4  135.23    6.75 
   3  -7   4  143.66    6.55 
  -4   7  -4  47.861   2.853 
  -4   7  -4  47.701   3.014 
   4  -7   4  52.322   3.657 
   4  -7   4  42.476   3.577 
   4  -7   4  45.048   3.376 
   4  -7   4  43.240   3.175 
  -5   7  -4  175.53    9.04 
  -5   7  -4  165.24    8.28 
   5  -7   4  166.25   11.01 
   5  -7   4  147.96    8.16 
   5  -7   4  166.97   11.25 
  -6   7  -4  5.9475  2.6121 
   6  -7   4  2.0495  2.7728 
   6  -7   4  4.5812  3.9784 
  -7   7  -4  37.895   3.978 
   7  -7   4  32.510   4.541 
   7  -7   4  28.452   5.907 
  -8   7  -4  3.0541  4.0990 
   8  -7   4  6.3896  5.3045 
   8  -7   4  -2.733   7.073 
   6   6  -4  466.32   28.77 
   6   6  -4  433.53   32.91 
  -6  -6   4  420.38   21.58 
  -6  -6   4  462.82   28.37 
  -6  -6   4  429.47   21.74 
   5   6  -4  29.175   4.862 
   5   6  -4  23.549   4.903 
  -5  -6   4  27.969   3.094 
  -5  -6   4  29.898   3.737 
  -5  -6   4  27.768   2.893 
   4   6  -4  120.72    7.84 
   4   6  -4  116.46    7.64 
  -4  -6   4  114.37    7.43 
  -4  -6   4  110.03    6.43 
  -4  -6   4  115.45    6.11 
   3   6  -4  89.655   5.184 
   3   6  -4  76.273   5.264 
   3   6  -4  100.55    5.59 
  -3  -6   4  96.245   6.510 
  -3  -6   4  84.350   7.394 
  -3  -6   4  89.976   4.983 
  -3  -6   4  94.839   5.305 
   2   6  -4  106.73    5.79 
   2   6  -4  129.64    5.87 
   2   6  -4  122.53    6.83 
  -2  -6   4  103.44    6.91 
  -2  -6   4  116.90    7.60 
  -2  -6   4  99.822   7.274 
  -2  -6   4  108.74    7.07 
   1   6  -4  7.9970  1.5672 
   1   6  -4  6.0279  1.8084 
   1   6  -4  7.9166  1.6476 
  -1  -6   4  7.1933  0.8439 
  -1  -6   4  10.046   1.487 
  -1  -6   4  7.8362  1.7280 
  -1  -6   4  7.1531  0.8037 
   0   6  -4  751.88   42.32 
   0   6  -4  787.40   31.51 
   0   6  -4  716.67   37.53 
   0   6  -4  710.93   45.45 
   0  -6   4  785.67   42.11 
   0  -6   4  774.42   31.22 
   0  -6   4  794.43   44.69 
  -1   6  -4  209.17   11.37 
  -1   6  -4  201.21   11.41 
  -1   6  -4  200.13   11.77 
   1  -6   4  208.77    7.27 
   1  -6   4  194.58    7.27 
   1  -6   4  199.56   11.13 
   1  -6   4  202.78    7.72 
   1  -6   4  209.97   10.61 
  -2   6  -4  205.47   13.22 
  -2   6  -4  212.14    7.84 
  -2   6  -4  209.73   11.49 
   2  -6   4  198.92   11.73 
   2  -6   4  193.94    8.60 
   2  -6   4  198.68   10.73 
   2  -6   4  207.96   11.81 
   2  -6   4  197.79   11.13 
  -3   6  -4  -1.045   1.366 
  -3   6  -4  -1.849   1.045 
  -3   6  -4  -1.447   1.206 
   3  -6   4 -0.0804  1.1654 
   3  -6   4 -0.6430  1.0046 
   3  -6   4  1.5672  0.9645 
   3  -6   4  1.8084  1.5672 
  -4   6  -4  219.74    9.60 
  -4   6  -4  228.66   10.41 
   4  -6   4  217.81   11.90 
   4  -6   4  212.18   10.97 
   4  -6   4  205.35    9.89 
   4  -6   4  224.92   11.01 
  -5   6  -4  1.8485  1.6878 
  -5   6  -4  0.6028  1.6074 
  -5   6  -4  1.6476  1.5271 
   5  -6   4  0.1206  2.0495 
   5  -6   4  -2.130   1.487 
  -6   6  -4  1.9691  2.2102 
  -6   6  -4  1.1654  1.9691 
   6  -6   4  2.5719  2.4915 
   6  -6   4  12.699   4.340 
  -7   6  -4  1.6878  2.2906 
  -7   6  -4  -1.407   2.853 
   7  -6   4  3.0943  5.0232 
   7  -6   4  2.4112  3.2149 
  -8   6  -4  11.453   4.621 
  -8   6  -4  15.150   3.657 
   8  -6   4  13.583   4.380 
   8  -6   4  4.7821  6.7110 
   7   5  -4  25.156   6.912 
   7   5  -4  22.504   7.796 
  -7  -5   4  19.048   4.621 
  -7  -5   4  29.938   5.063 
  -7  -5   4  27.929   4.662 
   6   5  -4  9.2829  4.7017 
   6   5  -4  -2.893   5.144 
  -6  -5   4  1.2859  2.3710 
  -6  -5   4  -1.165   3.657 
  -6  -5   4  5.7064  3.0541 
   5   5  -4  7.9166  3.5765 
   5   5  -4  14.829   3.416 
  -5  -5   4  12.980   2.130 
  -5  -5   4  11.855   2.210 
  -5  -5   4  11.614   1.849 
  -5  -5   4  9.7250  2.4112 
   4   5  -4  176.09    9.28 
   4   5  -4  179.31   10.65 
  -4  -5   4  183.49   11.45 
  -4  -5   4  183.45   11.01 
  -4  -5   4  184.09   10.61 
   3   5  -4  167.70    8.80 
   3   5  -4  170.95    9.89 
   3   5  -4  178.47    8.60 
  -3  -5   4  174.09    8.12 
  -3  -5   4  176.86    9.56 
  -3  -5   4  179.35    8.60 
  -3  -5   4  174.61   13.34 
  -3  -5   4  168.38   10.97 
   2   5  -4  797.13   42.28 
   2   5  -4  898.60   31.99 
   2   5  -4  883.49   35.44 
  -2  -5   4  835.06   43.64 
  -2  -5   4  926.40   45.09 
  -2  -5   4  805.53   54.21 
  -2  -5   4  794.47   50.88 
  -2  -5   4  794.55   45.97 
  -2  -5   4  905.91   40.91 
   1   5  -4  97.411   5.948 
   1   5  -4  100.79    4.74 
   1   5  -4  90.579   4.501 
   1   5  -4  86.560   5.626 
  -1  -5   4  97.290   5.023 
  -1  -5   4  93.914   5.948 
  -1  -5   4  97.933   6.068 
  -1  -5   4  86.922   4.019 
  -1  -5   4  88.329   4.501 
   0   5  -4  2.2906  1.2458 
   0   5  -4  1.5271  1.2859 
   0   5  -4  1.8485  1.3261 
   0   5  -4  1.4869  1.0850 
   0  -5   4  2.7326  1.4065 
   0  -5   4  1.2056  0.2411 
   0  -5   4  3.1747  0.9645 
   0  -5   4  1.2458  0.2411 
   0  -5   4  0.8439  0.9645 
   0  -5   4  0.7233  0.2009 
   0  -5   4  1.7682  1.8887 
  -1   5  -4  196.87   10.37 
  -1   5  -4  184.45   13.10 
  -1   5  -4  196.43    8.28 
   1  -5   4  189.52    9.89 
   1  -5   4  189.15    7.07 
   1  -5   4  201.45   10.69 
   1  -5   4  198.84    9.32 
   1  -5   4  206.15   11.90 
   1  -5   4  202.42    9.97 
   1  -5   4  208.69   10.37 
   1  -5   4  189.64    7.03 
  -2   5  -4  191.53    9.16 
  -2   5  -4  191.20   11.33 
  -2   5  -4  213.31   11.29 
  -2   5  -4  203.98    8.64 
   2  -5   4  196.95    8.96 
   2  -5   4  208.60   11.61 
   2  -5   4  197.47   10.57 
   2  -5   4  222.39   10.97 
   2  -5   4  215.76    9.24 
   2  -5   4  203.34    9.89 
   2  -5   4  210.09    8.92 
   2  -5   4  209.81   11.90 
  -3   5  -4  191.49    7.43 
  -3   5  -4  205.51    8.48 
  -3   5  -4  194.06    9.20 
   3  -5   4  192.97    9.16 
   3  -5   4  179.55    7.76 
   3  -5   4  178.34   11.17 
   3  -5   4  187.99    9.72 
   3  -5   4  200.85    8.76 
  -4   5  -4  131.77    6.67 
  -4   5  -4  130.08    6.79 
  -4   5  -4  126.95    6.43 
   4  -5   4  124.05    6.27 
   4  -5   4  129.32    6.83 
   4  -5   4  119.91    5.95 
   4  -5   4  137.15    7.31 
   4  -5   4  121.40    6.27 
  -5   5  -4  35.444   3.014 
  -5   5  -4  32.832   2.612 
  -5   5  -4  36.609   2.451 
   5  -5   4  27.688   2.090 
   5  -5   4  27.326   3.898 
   5  -5   4  31.546   2.974 
   5  -5   4  25.317   3.255 
  -6   5  -4  16.677   2.572 
  -6   5  -4  12.056   2.612 
   6  -5   4  12.900   2.934 
   6  -5   4  8.9614  3.1345 
   6  -5   4  15.833   3.416 
  -7   5  -4  26.241   3.496 
  -7   5  -4  32.309   3.858 
   7  -5   4  18.968   3.416 
   7  -5   4  28.653   5.224 
  -8   5  -4  4.6214  4.1793 
  -8   5  -4 -0.6028  3.3354 
   8  -5   4  5.1036  4.2597 
   8  -5   4  -5.345   5.827 
   7   4  -4  26.643   6.711 
   7   4  -4  27.849   5.988 
  -7  -4   4  19.329   4.139 
  -7  -4   4  21.379   4.461 
  -7  -4   4  25.277   3.496 
   6   4  -4  5.7466  3.6167 
   6   4  -4  5.0634  4.7419 
  -6  -4   4 -0.6430  2.4513 
  -6  -4   4  -1.246   1.889 
  -6  -4   4 -0.1607  3.0139 
   5   4  -4  408.53   21.06 
   5   4  -4  398.88   24.71 
  -5  -4   4  383.33   16.32 
  -5  -4   4  376.54   22.71 
  -5  -4   4  393.94   21.42 
  -5  -4   4  401.30   20.49 
   4   4  -4  10.087   2.652 
   4   4  -4  13.060   2.853 
  -4  -4   4  11.172   2.009 
  -4  -4   4  12.257   1.728 
  -4  -4   4  12.699   1.969 
  -4  -4   4  12.859   2.733 
   3   4  -4  695.38   39.50 
   3   4  -4  705.99   33.23 
   3   4  -4  754.61   32.51 
  -3  -4   4  711.85   34.20 
  -3  -4   4  703.53   39.82 
  -3  -4   4  689.31   31.75 
  -3  -4   4  675.93   39.06 
  -3  -4   4  802.35   44.16 
   2   4  -4  6.0681  0.9243 
   2   4  -4  9.2829  1.6878 
   2   4  -4  6.3896  1.6476 
  -2  -4   4  8.0774  0.8841 
  -2  -4   4  9.4437  1.8485 
  -2  -4   4  6.7110  0.7635 
  -2  -4   4  8.0372  1.3261 
  -2  -4   4  8.3988  1.7280 
   1   4  -4  13.623   1.768 
   1   4  -4  11.694   1.407 
   1   4  -4  14.668   0.964 
   1   4  -4  15.391   1.728 
  -1  -4   4  11.614   0.764 
  -1  -4   4  14.909   1.326 
  -1  -4   4  12.096   1.648 
  -1  -4   4  12.498   0.723 
  -1  -4   4  10.689   1.889 
   0   4  -4  292.35   15.19 
   0   4  -4  293.12   14.07 
   0   4  -4  306.30   13.10 
   0   4  -4  299.42   16.40 
   0  -4   4  311.08   20.49 
   0  -4   4  282.87   18.20 
   0  -4   4  313.21   15.39 
   0   4  -4  327.02   19.10 
   0  -4   4  292.20   15.95 
   0  -4   4  277.40   19.24 
  -1   4  -4  145.39    8.40 
  -1   4  -4  163.60    7.47 
  -1   4  -4  151.82    6.67 
   1  -4   4  162.07   10.13 
   1  -4   4  172.72    5.67 
   1  -4   4  174.85    8.88 
   1  -4   4  174.69    8.08 
   1  -4   4  157.85    8.36 
   1  -4   4  162.03   10.17 
  -1   4  -4  157.39   10.25 
  -1   4  -4  156.98   10.89 
   1  -4   4  165.02   10.59 
   1  -4   4  158.31   10.94 
  -2   4  -4  25.237   1.286 
  -2   4  -4  24.031   2.049 
  -2   4  -4  23.991   1.808 
  -2   4  -4  21.982   1.326 
  -2   4  -4  29.456   1.768 
   2  -4   4  25.397   1.929 
   2  -4   4  31.144   2.733 
   2  -4   4  28.934   2.210 
   2  -4   4  22.384   1.447 
   2  -4   4  24.112   2.009 
   2  -4   4  26.965   1.366 
   2  -4   4  23.027   1.768 
  -3   4  -4  106.37    5.75 
  -3   4  -4  103.48    4.82 
  -3   4  -4  105.85    5.75 
   3  -4   4  108.38    4.86 
   3  -4   4  104.44    5.06 
   3  -4   4  96.968   4.501 
   3  -4   4  111.84    5.83 
   3  -4   4  113.57    5.18 
  -4   4  -4  49.027   2.893 
  -4   4  -4  53.246   3.255 
  -4   4  -4  51.398   3.054 
   4  -4   4  48.705   3.094 
   4  -4   4  47.942   3.215 
   4  -4   4  46.575   2.612 
   4  -4   4  44.446   3.134 
   4  -4   4  44.807   2.853 
  -5   4  -4  35.765   2.532 
  -5   4  -4  40.909   2.773 
   5  -4   4  37.534   3.295 
   5  -4   4  36.529   2.411 
   5  -4   4  26.764   2.773 
   5  -4   4  36.931   2.692 
  -6   4  -4  16.396   2.733 
  -6   4  -4  20.897   3.014 
   6  -4   4  17.521   2.813 
   6  -4   4  19.370   3.335 
  -7   4  -4  15.914   2.652 
   7  -4   4  17.762   5.626 
   7  -4   4  14.989   3.134 
  -8   4  -4  32.149   4.179 
  -8   4  -4  23.308   4.461 
   8  -4   4  25.639   5.063 
   8  -4   4  22.785   6.952 
   7   3  -4  12.578   5.385 
   7   3  -4  11.533   4.662 
  -7  -3   4  11.654   3.617 
  -7  -3   4  7.7559  3.6569 
  -7  -3   4  4.8223  2.9336 
   6   3  -4  89.896   7.274 
   6   3  -4  85.475   6.992 
  -6  -3   4  82.703   5.063 
  -6  -3   4  82.461   6.390 
  -6  -3   4  84.149   5.505 
   5   3  -4  -1.165   2.773 
   5   3  -4  3.2149  2.6925 
  -5  -3   4  0.1607  1.5271 
  -5  -3   4 -0.7233  1.8084 
  -5  -3   4 -0.0804  2.2504 
  -5  -3   4  0.1607  1.7280 
  -5  -3   4  1.3261  1.6074 
  -5  -3   4  1.6074  1.2056 
   4   3  -4  175.53    9.60 
   4   3  -4  167.45    9.64 
  -4  -3   4  145.15    9.12 
  -4  -3   4  157.61    8.24 
  -4  -3   4  161.95    7.55 
  -4  -3   4  178.26    7.03 
  -4  -3   4  158.98    8.36 
   3   3  -4  5.6260  1.8084 
   3   3  -4  3.6569  1.7280 
   3   3  -4  6.3092  1.2056 
   3   3  -4  7.1933  1.3261 
  -3  -3   4  8.2783  1.1252 
  -3  -3   4  6.5503  1.0046 
  -3  -3   4  5.7064  1.1654 
  -3  -3   4  5.9877  1.9691 
  -3  -3   4  6.5905  1.4467 
   2   3  -4  673.11   24.63 
   2   3  -4  660.33   29.22 
   2   3  -4  681.59   28.61 
   2   3  -4  663.67   33.07 
   2   3  -4  643.54   29.13 
  -2  -3   4  710.97   29.62 
  -2  -3   4  640.72   35.81 
  -2  -3   4  667.49   30.46 
  -2  -3   4  653.62   28.17 
  -2  -3   4  751.23   27.89 
   1   3  -4  344.27   18.85 
   1   3  -4  320.24   14.11 
   1   3  -4  337.12   17.20 
   1   3  -4  339.29   16.15 
  -1  -3   4  348.41   17.68 
  -1  -3   4  368.50   16.40 
  -1  -3   4  336.24   13.18 
  -1  -3   4  381.52   15.87 
  -1  -3   4  320.88   12.06 
   1   3  -4  318.90   24.88 
   1   3  -4  354.67   25.42 
  -1  -3   4  361.07   21.90 
  -1  -3   4  357.62   20.06 
   0   3  -4  640.60   28.81 
   0   3  -4  628.23   38.42 
   0   3  -4  636.10   33.39 
   0   3  -4  633.25   28.77 
   0  -3   4  621.39   35.89 
   0  -3   4  653.14   29.70 
   0  -3   4  628.87   34.04 
   0  -3   4  676.21   35.60 
   0   3  -4  634.22   40.62 
   0   3  -4  614.78   37.51 
   0  -3   4  570.10   32.51 
   0  -3   4  645.51   33.41 
  -1   3  -4  169.26    8.28 
  -1   3  -4  158.53    7.07 
  -1   3  -4  167.45    8.12 
  -1   3  -4  142.94    6.83 
  -1   3  -4  145.27    6.83 
   1  -3   4  157.13    5.87 
   1  -3   4  141.41    8.64 
   1  -3   4  170.59    7.31 
   1  -3   4  164.52   10.13 
   1  -3   4  162.39    7.31 
   1  -3   4  151.14    9.48 
  -1   3  -4  153.77   11.42 
  -1   3  -4  152.59   10.17 
   1  -3   4  150.76    9.83 
   1  -3   4  152.34   10.04 
  -2   3  -4  168.02    8.64 
  -2   3  -4  159.10    8.84 
  -2   3  -4  165.45    8.08 
  -2   3  -4  159.78    7.96 
  -2   3  -4  158.57   10.37 
   2  -3   4  173.04    8.72 
   2  -3   4  182.36    7.39 
   2  -3   4  183.77    9.68 
   2  -3   4  197.84   10.37 
   2  -3   4  167.98    8.16 
   2  -3   4  182.44    9.00 
  -2   3  -4  160.23   11.83 
  -2   3  -4  169.37   12.78 
   2  -3   4  166.06   11.48 
   2  -3   4  193.84   10.69 
  -3   3  -4  6.1484  1.6074 
  -3   3  -4  6.9923  1.0046 
  -3   3  -4  8.3185  1.0850 
  -3   3  -4  8.1979  1.1252 
   3  -3   4  7.5148  0.8439 
   3  -3   4  7.7961  1.2056 
   3  -3   4  7.2736  1.1252 
   3  -3   4  8.5194  1.4065 
  -4   3  -4  146.88    6.43 
  -4   3  -4  141.45    6.83 
  -4   3  -4  153.71    7.60 
   4  -3   4  150.62    7.43 
   4  -3   4  153.35    7.76 
   4  -3   4  137.80    7.47 
   4  -3   4  145.59    9.00 
   4  -3   4  132.85    6.47 
  -5   3  -4  0.0804  1.2458 
  -5   3  -4 -0.4420  1.6074 
   5  -3   4  0.1206  1.4869 
   5  -3   4  0.9645  1.0850 
   5  -3   4  0.1607  1.8485 
   5  -3   4  -1.125   1.366 
  -6   3  -4  135.23    7.39 
  -6   3  -4  122.69    7.07 
   6  -3   4  117.54    8.36 
   6  -3   4  115.98    7.80 
  -7   3  -4  2.0495  2.5317 
  -7   3  -4  1.4065  2.8130 
   7  -3   4  2.8934  3.9382 
   7  -3   4  1.4467  2.6523 
  -8   3  -4  27.527   4.461 
  -8   3  -4  35.404   4.340 
   8  -3   4  24.393   4.702 
   8  -3   4  21.499   7.515 
   8   2  -4  5.1840  5.7466 
   8   2  -4  10.046   7.033 
  -8  -2   4  9.4437  3.6569 
  -8  -2   4  5.7466  4.7017 
   7   2  -4  21.982   4.420 
   7   2  -4  26.040   5.907 
  -7  -2   4  20.133   3.657 
  -7  -2   4  20.213   3.496 
   6   2  -4  135.99    8.76 
   6   2  -4  129.24    8.52 
  -6  -2   4  130.80    7.23 
  -6  -2   4  131.45    7.60 
  -6  -2   4  136.15    8.12 
   5   2  -4  69.200   5.586 
   5   2  -4  83.386   5.264 
  -5  -2   4  76.835   4.501 
  -5  -2   4  64.257   4.782 
  -5  -2   4  77.318   3.416 
  -5  -2   4  81.537   5.104 
  -5  -2   4  78.644   4.662 
   4   2  -4  132.41    7.11 
   4   2  -4  139.53    8.88 
  -4  -2   4  126.30    5.51 
  -4  -2   4  138.28    6.03 
  -4  -2   4  126.91    7.19 
  -4  -2   4  133.38    6.35 
  -4  -2   4  123.09    7.07 
   3   2  -4  153.91    7.96 
   3   2  -4  152.83    8.52 
   3   2  -4  160.26    7.11 
   3   2  -4  157.61    8.52 
  -3  -2   4  159.46    8.68 
  -3  -2   4  154.03    6.55 
  -3  -2   4  150.25    6.19 
  -3  -2   4  144.91    6.39 
  -3  -2   4  146.56    7.31 
  -3  -2   4  150.01    7.15 
   2   2  -4  163.23    7.43 
   2   2  -4  164.88    8.40 
   2   2  -4  173.56    7.55 
   2   2  -4  164.36    7.92 
   2   2  -4  177.22    6.95 
  -2  -2   4  180.47    7.35 
  -2  -2   4  159.06    7.76 
  -2  -2   4  177.38    6.59 
  -2  -2   4  165.04    6.83 
  -2  -2   4  158.21    6.95 
   2   2  -4  168.64   14.48 
   2   2  -4  168.57   12.50 
  -2  -2   4  156.19   12.23 
  -2  -2   4  175.68   12.19 
   1   2  -4  799.90   36.57 
   1   2  -4  794.03   40.35 
   1   2  -4  789.97   37.29 
   1   2  -4  818.63   39.10 
   1   2  -4  812.52   43.72 
  -1  -2   4  841.73   30.86 
  -1  -2   4  813.96   33.68 
  -1  -2   4  795.96   37.53 
  -1  -2   4  841.61   42.28 
  -1  -2   4  873.88   34.92 
   1   2  -4  856.32   52.36 
   1   2  -4  831.20   56.23 
  -1  -2   4  874.54   50.84 
  -1  -2   4  873.44   46.28 
   0   2  -4  79.930   4.420 
   0   2  -4  84.591   3.577 
   0   2  -4  84.551   4.461 
   0   2  -4  83.627   3.818 
   0   2  -4  92.026   3.978 
   0  -2   4  75.349   4.742 
   0  -2   4  84.270   5.224 
   0  -2   4  88.811   4.420 
   0  -2   4  90.619   4.742 
   0  -2   4  82.341   3.938 
   0   2  -4  81.410   6.739 
   0   2  -4  94.037   7.033 
   0  -2   4  84.481   6.829 
   0  -2   4  83.043   6.449 
  -1   2  -4  91.383   4.220 
  -1   2  -4  99.661   5.063 
  -1   2  -4  86.520   4.420 
  -1   2  -4  100.83    5.79 
  -1   2  -4  101.75    4.10 
   1  -2   4  92.468   5.827 
   1  -2   4  95.803   5.264 
   1  -2   4  97.009   6.309 
   1  -2   4  95.883   4.059 
   1  -2   4  98.254   5.505 
   1  -2   4  100.34    4.42 
  -1   2  -4  98.004   7.552 
  -1   2  -4  91.600   7.170 
   1  -2   4  92.978   8.087 
   1  -2   4  97.147   7.685 
  -2   2  -4  146.12    7.07 
  -2   2  -4  127.75    7.64 
  -2   2  -4  127.27    6.51 
  -2   2  -4  139.69    6.91 
   2  -2   4  141.86    6.47 
   2  -2   4  151.14    8.96 
   2  -2   4  131.69    4.94 
   2  -2   4  132.57    7.03 
   2  -2   4  118.27    6.43 
   2  -2   4  140.41    7.76 
  -2   2  -4  121.06    9.09 
  -2   2  -4  118.03    9.42 
   2  -2   4  118.52    8.89 
   2  -2   4  125.44    9.30 
  -3   2  -4  482.75   26.12 
  -3   2  -4  460.73   26.56 
  -3   2  -4  438.67   28.97 
  -3   2  -4  475.24   20.78 
   3  -2   4  502.89   23.75 
   3  -2   4  477.53   26.20 
   3  -2   4  492.16   20.29 
   3  -2   4  496.17   26.32 
   3  -2   4  466.84   20.25 
   3  -2   4  505.06   23.07 
  -4   2  -4  6.0681  1.0850 
  -4   2  -4  7.6755  1.3261 
   4  -2   4  6.4699  1.1654 
   4  -2   4  5.7868  1.6074 
  -5   2  -4  71.370   4.862 
  -5   2  -4  74.786   4.340 
   5  -2   4  69.240   4.461 
   5  -2   4  73.460   4.541 
   5  -2   4  60.922   3.175 
   5  -2   4  76.072   3.335 
  -6   2  -4  26.040   2.893 
  -6   2  -4  21.379   2.532 
   6  -2   4  19.088   2.773 
   6  -2   4  18.606   4.380 
  -7   2  -4  76.755   5.666 
  -7   2  -4  73.661   4.983 
   7  -2   4  64.981   6.148 
   7  -2   4  66.226   6.952 
  -8   2  -4  4.9027  3.5765 
  -8   2  -4  4.0990  3.7373 
   8  -2   4  -13.78    6.79 
   8  -2   4  0.0804  4.1793 
   8   1  -4  -1.607   5.827 
   8   1  -4  0.4019  6.6709 
  -8  -1   4  8.8007  4.0588 
  -8  -1   4  7.8362  3.4560 
   7   1  -4  84.471   6.229 
   7   1  -4  87.364   7.997 
  -7  -1   4  83.024   5.948 
  -7  -1   4  92.910   5.586 
   6   1  -4  4.0186  4.2597 
   6   1  -4  9.6848  3.3756 
  -6  -1   4  10.448   1.447 
  -6  -1   4  8.8409  2.0495 
  -6  -1   4  8.7605  2.5317 
  -6  -1   4  11.212   1.487 
   5   1  -4  134.02    9.68 
   5   1  -4  146.76    7.96 
  -5  -1   4  140.45    5.79 
  -5  -1   4  128.96    6.67 
  -5  -1   4  130.80    7.96 
  -5  -1   4  138.28    8.56 
   4   1  -4  12.498   1.929 
   4   1  -4  15.713   2.572 
  -4  -1   4  13.663   1.447 
  -4  -1   4  15.592   1.246 
  -4  -1   4  14.628   1.567 
  -4  -1   4  15.592   1.648 
  -4  -1   4  13.543   1.125 
   3   1  -4 1062.31   52.84 
   3   1  -4 1077.38   53.01 
   3   1  -4 1037.24   39.94 
   3   1  -4 1054.36   45.53 
   3   1  -4 1070.87   52.60 
  -3  -1   4 1135.05   52.00 
  -3  -1   4 1005.17   41.27 
  -3  -1   4  979.77   38.34 
  -3  -1   4  972.66   45.21 
  -3  -1   4 1003.88   44.61 
  -3  -1   4 1012.80   43.68 
   2   1  -4  8.3185  1.4467 
   2   1  -4  7.9166  1.3663 
   2   1  -4  8.0774  1.1252 
   2   1  -4  6.1886  0.8037 
   2   1  -4  7.3540  0.8037 
  -2  -1   4  8.3988  0.6832 
  -2  -1   4  4.8223  1.1654 
  -2  -1   4  7.7961  0.8037 
  -2  -1   4  6.9923  0.8439 
  -2  -1   4  7.1129  0.7635 
  -2  -1   4  8.7203  2.0093 
   2   1  -4  8.9366  4.4644 
   2   1  -4  2.2225  4.6800 
  -2  -1   4  7.0482  4.5056 
  -2  -1   4  0.8552  4.0424 
   1   1  -4  16.115   1.125 
   1   1  -4  12.940   1.125 
   1   1  -4  13.583   0.964 
   1   1  -4  14.105   1.085 
   1   1  -4  13.663   1.407 
  -1  -1   4  14.507   1.487 
  -1  -1   4  16.838   1.125 
  -1  -1   4  14.145   0.964 
  -1  -1   4  11.654   1.366 
  -1  -1   4  14.306   1.045 
   1   1  -4  16.229   4.296 
   1   1  -4  10.479   3.410 
  -1  -1   4  11.326   2.820 
  -1  -1   4  6.9992  3.7051 
   0   1  -4  71.370   4.662 
   0   1  -4  76.634   3.416 
   0   1  -4  78.965   3.978 
   0   1  -4  69.803   3.898 
   0   1  -4  82.783   3.737 
   0  -1   4  77.679   3.818 
   0  -1   4  80.492   4.139 
   0  -1   4  78.081   3.416 
   0  -1   4  78.684   3.858 
   0  -1   4  80.814   3.657 
   0  -1   4  74.063   4.300 
   0   1  -4  82.615   6.182 
   0   1  -4  67.235   5.833 
   0  -1   4  70.559   6.919 
   0  -1   4  70.478   6.123 
  -1   1  -4 1163.38   60.32 
  -1   1  -4 1164.06   59.07 
  -1   1  -4 1148.71   46.98 
  -1   1  -4 1161.93   60.32 
  -1   1  -4 1085.30   69.28 
   1  -1   4 1232.42   60.52 
   1  -1   4 1028.40   66.79 
   1  -1   4 1210.52   55.05 
   1  -1   4 1213.21   90.70 
   1  -1   4 1057.89   45.93 
   1  -1   4 1215.62   65.82 
  -1   1  -4 1262.51   66.45 
  -1   1  -4 1298.92   76.90 
   1  -1   4 1289.13   85.96 
   1  -1   4 1202.71   75.44 
  -2   1  -4  57.104   3.054 
  -2   1  -4  59.355   3.175 
  -2   1  -4  60.801   3.416 
  -2   1  -4  60.158   3.014 
   2  -1   4  58.551   3.617 
   2  -1   4  69.722   4.380 
   2  -1   4  55.055   2.572 
   2  -1   4  57.747   2.974 
   2  -1   4  58.993   3.054 
   2  -1   4  61.083   3.215 
  -2   1  -4  64.657   6.375 
  -2   1  -4  52.066   6.188 
   2  -1   4  57.704   5.431 
   2  -1   4  53.969   5.860 
  -3   1  -4  448.55   23.11 
  -3   1  -4  447.83   22.66 
  -3   1  -4  487.70   27.45 
   3  -1   4  385.78   23.95 
   3  -1   4  441.00   18.41 
   3  -1   4  462.30   18.85 
   3  -1   4  449.44   24.27 
   3  -1   4  458.88   18.77 
   3  -1   4  472.06   25.68 
  -4   1  -4  46.334   2.813 
  -4   1  -4  36.368   2.652 
   4  -1   4  45.450   1.929 
   4  -1   4  41.432   2.250 
   4  -1   4  42.517   2.893 
  -5   1  -4  27.849   2.492 
   5  -1   4  24.915   2.492 
   5  -1   4  23.107   1.326 
   5  -1   4  21.660   1.929 
  -6   1  -4  127.47    7.88 
  -6   1  -4  117.62    7.72 
   6  -1   4  130.08    9.36 
   6  -1   4  111.48    8.60 
  -7   1  -4  9.3231  2.7326 
  -7   1  -4  17.039   3.335 
   7  -1   4  10.609   3.295 
   7  -1   4  7.5951  5.4653 
  -8   1  -4  157.05   10.69 
  -8   1  -4  147.28    8.48 
   8  -1   4  133.10   10.85 
   8  -1   4  151.58   11.53 
   8   0  -4  30.059   7.997 
   8   0  -4  38.458   7.153 
  -8   0   4  32.390   3.657 
  -8   0   4  39.181   4.702 
   7   0  -4  25.598  24.714 
   7   0  -4  -4.501   5.586 
  -7   0   4 -0.2411  2.8130 
  -7   0   4  0.2813  2.4915 
   6   0  -4  73.902   5.706 
   6   0  -4  68.999   6.550 
  -6   0   4  72.777   3.577 
  -6   0   4  72.415   4.983 
  -6   0   4  79.407   3.456 
  -6   0   4  78.282   4.380 
   5   0  -4  5.9475  2.7326 
   5   0  -4  4.3803  2.0093 
  -5   0   4  3.7775  1.4065 
  -5   0   4  5.2643  1.0448 
  -5   0   4  4.7419  1.3261 
  -5   0   4  4.9429  0.7233 
  -5   0   4  4.7821  1.0448 
   4   0  -4  395.75   19.13 
   4   0  -4  406.44   18.36 
  -4   0   4  379.23   17.12 
  -4   0   4  373.33   19.69 
  -4   0   4  385.22   14.71 
   3   0  -4  71.330   3.536 
   3   0  -4  68.155   4.179 
   3   0  -4  66.990   2.974 
   3   0  -4  73.500   3.898 
   3   0  -4  71.089   3.777 
  -3   0   4  63.735   3.014 
  -3   0   4  67.994   2.813 
  -3   0   4  70.205   4.179 
   2   0  -4  325.95   15.15 
   2   0  -4  314.13   15.67 
   2   0  -4  309.91   11.81 
   2   0  -4  346.60   18.12 
   2   0  -4  339.93   15.47 
   2   0  -4  298.14   14.51 
  -2   0   4  330.65   13.46 
  -2   0   4  327.23   13.66 
  -2   0   4  321.33   12.74 
  -2   0   4  310.68   11.90 
  -2   0   4  315.54   14.95 
   2   0  -4  315.77   20.99 
   2   0  -4  313.54   17.86 
  -2   0   4  320.73   18.11 
  -2   0   4  315.13   17.47 
   1   0  -4  105.41    4.66 
   1   0  -4  102.63    4.38 
   1   0  -4  101.23    4.10 
   1   0  -4  104.20    5.79 
   1   0  -4  108.10    5.22 
   1   0  -4  99.179   5.023 
   1   0  -4  102.47    5.75 
  -1   0   4  96.245   4.300 
  -1   0   4  101.15    5.30 
  -1   0   4  97.250   4.702 
  -1   0   4  100.34    4.26 
   1   0  -4  99.139   7.768 
   1   0  -4  89.236   6.836 
  -1   0   4  93.503   7.195 
  -1   0   4  93.723   7.285 
   0   0  -4  240.95   14.07 
   0   0  -4  262.78   11.57 
   0   0  -4  274.91   12.98 
   0   0  -4  273.02   13.34 
   0   0  -4  296.45   17.40 
   0   0  -4  273.46   11.45 
   0   0   4  278.65   11.33 
   0   0   4  294.04   15.95 
   0   0   4  283.31   12.54 
   0   0   4  268.20   13.82 
   0   0   4  299.79   11.69 
   0   0  -4  291.95   17.99 
   0   0  -4  277.29   16.57 
   0   0   4  278.03   17.19 
   0   0   4  298.45   21.21 
  -1   0  -4  129.08    6.63 
  -1   0  -4  127.71    6.03 
  -1   0  -4  128.15    5.63 
  -1   0  -4  132.21    4.94 
   1   0   4  132.49    6.83 
   1   0   4  130.04    8.24 
   1   0   4  123.17    5.51 
   1   0   4  128.51    6.43 
   1   0   4  131.01    5.99 
   1   0   4  126.83    9.52 
  -1   0  -4  139.07    9.86 
  -1   0  -4  126.88    9.69 
   1   0   4  132.34    9.53 
   1   0   4  137.44    9.26 
  -2   0  -4  392.86   19.09 
  -2   0  -4  358.50   15.59 
  -2   0  -4  427.58   21.34 
  -2   0  -4  394.42   19.97 
   2   0   4  340.62   20.66 
   2   0   4  364.77   23.03 
   2   0   4  387.51   14.79 
   2   0   4  402.06   17.60 
   2   0   4  370.96   16.48 
   2   0   4  434.01   25.72 
   2   0   4  415.44   19.05 
  -2   0  -4  425.66   25.90 
  -2   0  -4  439.33   26.55 
   2   0   4  421.91   27.16 
   2   0   4  424.40   24.55 
  -3   0  -4  0.6028  0.4822 
  -3   0  -4  2.8532  1.1654 
  -3   0  -4  0.7635  0.8841 
  -3   0  -4  1.1654  1.2859 
   3   0   4  0.0402  0.5626 
   3   0   4  1.4065  0.6028 
   3   0   4  2.5719  1.3261 
   3   0   4  0.4019  1.1252 
   3   0   4  0.4822  1.0046 
  -4   0  -4  489.95   27.45 
  -4   0  -4  506.90   24.23 
   4   0   4  482.39   20.82 
   4   0   4  528.32   28.09 
   4   0   4  514.34   23.15 
  -5   0  -4  62.730   3.938 
  -5   0  -4  62.409   4.340 
   5   0   4  63.775   4.621 
  -6   0  -4  37.976   3.496 
  -6   0  -4  44.606   3.657 
   6   0   4  44.325   4.581 
   6   0   4  42.637   5.224 
  -7   0  -4  23.710   3.737 
  -7   0  -4  22.223   3.255 
   7   0   4  25.639   5.546 
   7   0   4  30.099   4.782 
  -8   0  -4  6.8316  3.9784 
  -8   0  -4  5.2643  4.2195 
   8   0   4  3.0943  6.4297 
   8   0   4  1.1252  4.8223 
   8  -1  -4  23.629   7.073 
  -8   1   4  27.568   3.858 
   7  -1  -4  6.5905  4.0588 
   7  -1  -4  10.207   4.581 
  -7   1   4  2.9336  2.8130 
  -7   1   4  8.7605  2.6121 
   6  -1  -4  71.410   5.907 
  -6   1   4  72.053   4.862 
  -6   1   4  79.247   3.496 
  -6   1   4  80.894   3.777 
  -6   1   4  80.814   5.023 
   5  -1  -4  11.815   2.130 
   5  -1  -4  10.569   2.893 
  -5   1   4  9.6848  1.5672 
  -5   1   4  9.8054  1.3261 
  -5   1   4  12.618   1.407 
   4  -1  -4  26.282   2.612 
   4  -1  -4  26.362   2.170 
   4  -1  -4  26.643   1.567 
  -4   1   4  30.943   1.688 
  -4   1   4  26.362   1.447 
  -4   1   4  29.215   1.929 
   3  -1  -4  64.418   3.697 
   3  -1  -4  75.389   4.220 
   3  -1  -4  69.280   3.215 
   3  -1  -4  68.959   3.496 
   3  -1  -4  71.169   3.416 
   3  -1  -4  68.678   3.898 
  -3   1   4  67.110   4.300 
  -3   1   4  68.356   3.175 
  -3   1   4  67.432   2.733 
   2  -1  -4  261.13   10.13 
   2  -1  -4  245.01   10.17 
   2  -1  -4  219.94    8.12 
   2  -1  -4  230.67   10.57 
   2  -1  -4  283.55   14.79 
   2  -1  -4  250.04   10.17 
  -2   1   4  246.26    9.93 
  -2   1   4  250.36   10.85 
  -2   1   4  223.07    9.16 
  -2   1   4  232.72    9.64 
   2  -1  -4  245.10   15.13 
   2  -1  -4  228.16   14.29 
  -2   1   4  242.54   14.03 
  -2   1   4  247.54   15.22 
   1  -1  -4  31.023   1.286 
   1  -1  -4  30.541   1.728 
   1  -1  -4  30.863   2.090 
   1  -1  -4  31.626   1.527 
   1  -1  -4  36.127   1.849 
  -1   1   4  32.792   1.648 
  -1   1   4  31.023   1.808 
  -1   1   4  31.626   2.331 
  -1   1   4  31.827   1.648 
   1  -1  -4  30.084   4.287 
   1  -1  -4  28.124   4.362 
  -1   1   4  27.074   3.734 
  -1   1   4  30.839   4.124 
   0  -1  -4  114.69    4.94 
   0  -1  -4  112.60    5.06 
   0  -1  -4  103.96    4.86 
   0  -1  -4  120.64    5.71 
   0  -1  -4  110.35    5.34 
   0   1   4  114.89    7.23 
   0   1   4  111.56    5.26 
   0   1   4  109.67    4.74 
   0   1   4  120.88    7.35 
   0   1   4  111.07    6.11 
   0  -1  -4  125.21    8.21 
   0  -1  -4  121.52    8.53 
   0   1   4  110.69    8.02 
   0   1   4  100.13    8.07 
  -1  -1  -4  235.37   11.41 
  -1  -1  -4  245.90   10.85 
  -1  -1  -4  220.10   10.73 
  -1  -1  -4  236.86   11.25 
  -1  -1  -4  243.12   11.57 
   1   1   4  237.18   10.89 
   1   1   4  212.78   10.53 
   1   1   4  243.29   13.22 
   1   1   4  231.59   16.28 
   1   1   4  244.17   16.48 
  -1  -1  -4  259.22   16.09 
  -1  -1  -4  237.45   15.14 
   1   1   4  248.79   16.79 
   1   1   4  229.68   16.83 
  -2  -1  -4  9.6848  0.9243 
  -2  -1  -4  10.448   1.125 
  -2  -1  -4  6.9522  1.4065 
  -2  -1  -4  8.7605  0.7233 
   2   1   4  12.136   1.487 
   2   1   4  10.489   1.849 
   2   1   4  10.408   1.005 
   2   1   4  7.1933  0.9243 
   2   1   4  9.3633  1.3663 
   2   1   4  8.5194  0.8037 
  -2  -1  -4  6.0897  4.2570 
  -2  -1  -4  6.9158  3.7116 
   2   1   4  8.3302  4.2942 
   2   1   4  7.0843  4.3394 
  -3  -1  -4  691.60   36.29 
  -3  -1  -4  668.01   30.90 
   3   1   4  749.02   33.19 
   3   1   4  711.05   38.42 
   3   1   4  674.32   31.55 
   3   1   4  702.65   31.79 
   3   1   4  697.06   38.98 
  -4  -1  -4  9.8455  2.0093 
  -4  -1  -4  10.288   1.085 
  -4  -1  -4  10.569   1.929 
   4   1   4  10.489   0.844 
   4   1   4  9.6848  0.8841 
   4   1   4  8.0774  1.8485 
   4   1   4  8.2783  1.2458 
  -5  -1  -4  172.96    8.80 
  -5  -1  -4  165.28    9.00 
  -5  -1  -4  169.75    8.88 
   5   1   4  172.56   10.57 
  -6  -1  -4  6.5905  2.8532 
  -6  -1  -4  2.5317  2.8934 
   6   1   4  6.4699  4.4606 
   6   1   4  3.2149  2.8934 
  -7  -1  -4  16.315   3.577 
  -7  -1  -4  22.223   4.099 
   7   1   4  23.388   4.340 
   7   1   4  16.476   6.349 
   8  -2  -4  8.3185  4.5008 
   8  -2  -4  -4.139   5.988 
  -8   2   4  2.8130  3.1345 
   7  -2  -4  76.112   8.359 
  -7   2   4  78.202   5.144 
   6  -2  -4  8.0774  3.5765 
  -6   2   4  11.734   1.527 
  -6   2   4  14.788   1.768 
  -6   2   4  9.6848  1.8887 
   5  -2  -4  58.069   4.541 
   5  -2  -4  57.707   3.295 
  -5   2   4  63.976   3.577 
  -5   2   4  67.070   3.054 
  -5   2   4  65.463   3.054 
   4  -2  -4  28.894   2.692 
   4  -2  -4  30.541   1.849 
  -4   2   4  28.813   2.170 
  -4   2   4  26.603   1.688 
  -4   2   4  29.255   1.768 
   3  -2  -4  243.89   12.26 
   3  -2  -4  249.51   10.61 
   3  -2  -4  239.47    9.36 
   3  -2  -4  249.63   11.45 
   3  -2  -4  239.51   10.13 
  -3   2   4  225.80    9.32 
  -3   2   4  229.90   10.37 
  -3   2   4  237.18   11.98 
  -3   2   4  244.97    9.32 
   2  -2  -4  159.62    6.11 
   2  -2  -4  157.61    6.11 
   2  -2  -4  136.87    6.19 
   2  -2  -4  149.81    7.27 
   2  -2  -4  141.70    5.26 
  -2   2   4  144.19    6.07 
  -2   2   4  150.30    6.39 
  -2   2   4  144.03    5.75 
  -2   2   4  145.31    5.91 
   2  -2  -4  150.53    9.63 
   2  -2  -4  136.77    9.36 
  -2   2   4  135.38    8.98 
   1  -2  -4  276.00   12.22 
   1  -2  -4  270.77   13.06 
   1  -2  -4  263.70    9.56 
   1  -2  -4  262.65   10.57 
   1  -2  -4  281.70    9.85 
  -1   2   4  268.00   15.39 
  -1   2   4  263.38   14.15 
  -1   2   4  276.00   11.85 
  -1   2   4  285.04    9.36 
   1  -2  -4  296.35   15.26 
   1  -2  -4  269.98   15.77 
  -1   2   4  274.02   16.11 
  -1   2   4  276.52   16.77 
   0  -2  -4  420.38   21.22 
   0  -2  -4  350.86   14.67 
   0  -2  -4  381.08   13.98 
   0  -2  -4  339.93   16.36 
   0  -2  -4  385.06   18.89 
   0   2   4  382.05   13.90 
   0   2   4  397.12   25.08 
   0   2   4  375.38   23.47 
   0   2   4  372.12   16.76 
   0   2   4  387.67   20.49 
   0   2   4  335.83   20.78 
   0  -2  -4  381.10   22.57 
   0  -2  -4  419.57   22.98 
   0   2   4  405.96   27.75 
   0   2   4  388.76   23.63 
  -1  -2  -4  214.43   10.13 
  -1  -2  -4  220.14   11.65 
  -1  -2  -4  210.09    8.96 
  -1  -2  -4  225.20   11.94 
   1   2   4  237.82   17.32 
   1   2   4  207.04   11.37 
   1   2   4  221.58    9.48 
   1   2   4  223.47   11.81 
   1   2   4  222.15   14.23 
   1   2   4  217.97   14.51 
  -1  -2  -4  238.45   14.54 
  -1  -2  -4  262.26   17.21 
   1   2   4  232.24   16.06 
   1   2   4  239.66   15.35 
  -2  -2  -4  219.90   11.53 
  -2  -2  -4  219.29    8.40 
  -2  -2  -4  214.67   10.93 
  -2  -2  -4  215.11   10.97 
   2   2   4  211.66   12.30 
   2   2   4  228.22   12.42 
   2   2   4  209.97   11.41 
   2   2   4  229.62   12.82 
   2   2   4  222.91   10.49 
   2   2   4  210.69   11.90 
   2   2   4  210.73    9.77 
  -3  -2  -4  113.08    6.15 
  -3  -2  -4  115.74    6.51 
  -3  -2  -4  119.51    5.06 
   3   2   4  109.27    6.19 
   3   2   4  114.13    5.26 
   3   2   4  112.80    5.75 
   3   2   4  99.500   5.948 
  -4  -2  -4  317.23   13.86 
  -4  -2  -4  317.91   15.91 
  -4  -2  -4  309.83   13.78 
   4   2   4  275.88   17.72 
   4   2   4  312.04   12.90 
   4   2   4  307.82   12.66 
   4   2   4  316.46   20.62 
  -5  -2  -4  6.4297  1.9289 
  -5  -2  -4  5.7064  1.5271 
  -5  -2  -4  8.5998  2.4112 
   5   2   4  4.7419  2.4513 
  -6  -2  -4  77.639   5.586 
  -6  -2  -4  74.786   5.345 
  -6  -2  -4  74.424   4.461 
   6   2   4  62.168   6.349 
   6   2   4  65.704   6.108 
  -7  -2  -4  9.1222  4.1793 
  -7  -2  -4  10.689   3.255 
   7   2   4  5.2643  5.6662 
   7   2   4  9.2427  4.6616 
   8  -3  -4  3.6971  6.2690 
  -8   3   4  7.1129  2.9738 
   7  -3  -4  -1.808   4.742 
  -7   3   4  1.8485  2.7728 
   6  -3  -4  35.605   4.380 
  -6   3   4  37.815   3.215 
  -6   3   4  34.922   2.572 
  -6   3   4  35.484   2.532 
   5  -3  -4  9.9661  2.8130 
  -5   3   4  10.207   1.447 
  -5   3   4  12.498   1.607 
  -5   3   4  8.7605  1.7682 
   4  -3  -4  195.75    8.44 
   4  -3  -4  177.82   10.53 
  -4   3   4  187.11    7.43 
  -4   3   4  191.08    9.12 
  -4   3   4  184.49    7.35 
   3  -3  -4  20.495   2.331 
   3  -3  -4  22.384   2.009 
   3  -3  -4  21.419   1.246 
   3  -3  -4  20.937   1.326 
   3  -3  -4  20.093   1.607 
  -3   3   4  25.639   2.612 
  -3   3   4  20.213   1.447 
  -3   3   4  20.213   1.527 
   2  -3  -4  130.52    5.02 
   2  -3  -4  128.03    6.31 
   2  -3  -4  132.33    5.02 
   2  -3  -4  116.94    4.34 
   2  -3  -4  118.95    5.75 
  -2   3   4  114.29    5.38 
  -2   3   4  126.67    5.71 
  -2   3   4  123.65    5.59 
  -2   3   4  130.40    5.99 
   2  -3  -4  125.89    8.19 
   2  -3  -4  109.40    8.79 
  -2   3   4  132.66    9.46 
  -2   3   4  108.06    8.21 
   1  -3  -4  230.10   10.57 
   1  -3  -4  243.08    8.28 
   1  -3  -4  215.24    9.56 
   1  -3  -4  224.96   10.53 
  -1   3   4  226.53    9.64 
  -1   3   4  192.81   11.41 
  -1   3   4  199.48   10.73 
  -1   3   4  198.72   12.30 
   1  -3  -4  249.04   13.35 
   1  -3  -4  210.02   12.48 
  -1   3   4  204.56   13.61 
  -1   3   4  224.07   14.99 
   0  -3  -4 1456.74   92.71 
   0  -3  -4 1399.43   79.29 
   0  -3  -4 1352.17   56.82 
   0  -3  -4 1298.16   45.93 
   0   3   4 1367.77   57.10 
   0   3   4 1366.32   53.61 
   0   3   4 1274.37   84.27 
   0   3   4 1350.77   88.01 
   0   3   4 1407.11   88.73 
   0   3   4 1435.68   95.44 
   0  -3  -4 1492.96   83.72 
   0  -3  -4 1615.99   87.20 
   0   3   4 1551.31   87.66 
   0   3   4 1484.76  101.30 
  -1  -3  -4  163.68    5.79 
  -1  -3  -4  156.72    9.89 
  -1  -3  -4  147.92    7.88 
  -1  -3  -4  165.41    7.19 
   1   3   4  145.43    8.44 
   1   3   4  156.24    8.16 
   1   3   4  146.36    9.56 
   1   3   4  155.36    8.24 
   1   3   4  153.59   10.61 
  -1  -3  -4  150.72   10.77 
  -1  -3  -4  170.37   13.51 
   1   3   4  134.72   12.33 
   1   3   4  168.42   14.20 
  -2  -3  -4 2889.77  170.03 
  -2  -3  -4 3068.39  167.98 
  -2  -3  -4 2918.58  102.76 
   2   3   4 2690.48  160.50 
   2   3   4 2820.57  188.43 
   2   3   4 2935.42  176.26 
  -3  -3  -4  110.47    5.87 
  -3  -3  -4  119.67    6.83 
  -3  -3  -4  123.77    6.55 
   3   3   4  109.95    5.30 
   3   3   4  116.46    6.59 
   3   3   4  107.86    5.59 
   3   3   4  112.52    6.03 
  -4  -3  -4  37.815   2.492 
  -4  -3  -4  41.191   2.813 
  -4  -3  -4  35.524   1.929 
  -4  -3  -4  42.276   3.014 
   4   3   4  36.971   3.376 
   4   3   4  32.390   1.929 
   4   3   4  35.725   1.969 
   4   3   4  27.206   3.416 
  -5  -3  -4  46.937   3.617 
  -5  -3  -4  46.455   2.934 
  -5  -3  -4  40.789   3.536 
   5   3   4  47.138   4.139 
  -6  -3  -4  114.81    7.31 
  -6  -3  -4  108.70    7.07 
  -6  -3  -4  108.06    6.43 
   6   3   4  112.48    8.32 
   6   3   4  97.250   7.756 
  -7  -3  -4  15.672   4.541 
   7   3   4  9.3231  6.3092 
   7   3   4  15.753   4.340 
   8  -4  -4  4.2999  6.0681 
  -8   4   4  10.288   3.697 
   7  -4  -4  20.615   4.702 
  -7   4   4  24.353   2.612 
  -7   4   4  25.880   3.456 
  -7   4   4  22.745   2.853 
   6  -4  -4  29.738   4.260 
  -6   4   4  25.237   2.170 
  -6   4   4  27.246   3.014 
  -6   4   4  28.813   2.331 
   5  -4  -4  132.89    8.56 
   5  -4  -4  126.75    5.63 
   5  -4  -4  124.34    5.75 
   5  -4  -4  136.67    7.72 
  -5   4   4  136.19    6.11 
  -5   4   4  131.09    6.27 
  -5   4   4  136.23    7.92 
   4  -4  -4  67.593   4.461 
   4  -4  -4  65.744   4.139 
   4  -4  -4  65.865   3.295 
   4  -4  -4  66.146   3.175 
   4  -4  -4  70.004   3.657 
  -4   4   4  75.630   3.858 
  -4   4   4  68.637   3.577 
  -4   4   4  71.852   3.376 
   3  -4  -4  271.17   11.41 
   3  -4  -4  280.02   13.74 
   3  -4  -4  289.94   13.34 
   3  -4  -4  286.57   13.42 
  -3   4   4  281.78   17.12 
  -3   4   4  264.78   12.26 
  -3   4   4  266.43   10.77 
   2  -4  -4  318.55   12.66 
   2  -4  -4  299.51   12.18 
   2  -4  -4  328.76   15.39 
   2  -4  -4  321.29   16.07 
  -2   4   4  299.02   14.87 
  -2   4   4  302.32   12.78 
  -2   4   4  319.88   15.91 
   1  -4  -4  854.03   37.98 
   1  -4  -4  839.12   36.93 
   1  -4  -4  847.76   48.46 
   1  -4  -4  771.13   40.83 
  -1   4   4  769.84   41.75 
  -1   4   4  779.53   44.57 
  -1   4   4  830.56   29.86 
  -1   4   4  771.53   47.10 
   1  -4  -4  849.29   47.26 
   1  -4  -4  895.89   44.53 
  -1   4   4  875.38   51.83 
  -1   4   4  861.66   53.68 
   0  -4  -4  25.880   1.728 
   0  -4  -4  27.688   1.929 
   0  -4  -4  24.312   1.929 
   0  -4  -4  24.674   2.090 
   0   4   4  26.201   1.929 
   0   4   4  23.991   1.849 
   0   4   4  25.920   1.607 
   0   4   4  23.750   2.130 
   0   4   4  27.005   1.246 
   0   4   4  28.894   2.451 
  -1  -4  -4  866.89   34.36 
  -1  -4  -4  831.57   40.19 
  -1  -4  -4  850.82   57.91 
  -1  -4  -4  798.37   36.61 
   1   4   4  868.74   52.44 
   1   4   4  761.56   44.16 
   1   4   4  894.18   58.75 
   1   4   4  854.11   54.49 
   1   4   4  833.86   47.54 
   1   4   4  804.56   53.73 
  -2  -4  -4  262.86   12.54 
  -2  -4  -4  255.86   15.19 
  -2  -4  -4  255.18   10.93 
   2   4   4  261.77   14.79 
   2   4   4  267.08   14.55 
   2   4   4  248.43   12.34 
   2   4   4  264.14   12.74 
   2   4   4  240.55   13.82 
  -3  -4  -4  336.80   15.59 
  -3  -4  -4  350.78   17.12 
  -3  -4  -4  322.01   18.12 
   3   4   4  327.15   17.16 
   3   4   4  355.20   20.66 
   3   4   4  320.52   16.48 
   3   4   4  304.21   19.09 
  -4  -4  -4  1.9691  1.4467 
  -4  -4  -4  1.8084  1.7682 
  -4  -4  -4  4.0990  1.4467 
   4   4   4  2.3710  1.0850 
   4   4   4  4.0588  1.2458 
   4   4   4  4.9429  2.5719 
  -5  -4  -4  79.568   4.782 
  -5  -4  -4  81.216   5.023 
  -5  -4  -4  82.502   5.264 
   5   4   4  76.393   6.390 
   5   4   4  76.032   6.751 
  -6  -4  -4  -2.411   2.974 
  -6  -4  -4  3.7373  3.4962 
  -6  -4  -4  9.0016  2.6523 
   6   4   4  9.9661  5.0232 
   6   4   4  1.4065  4.0588 
  -7  -4  -4  34.600   5.345 
  -7  -4  -4  37.574   5.907 
   7   4   4  50.192   6.992 
   7   4   4  52.804   8.198 
   8  -5  -4  11.975   7.274 
  -8   5   4  10.850   3.858 
   7  -5  -4  48.946   6.510 
  -7   5   4  56.943   3.777 
  -7   5   4  51.237   3.737 
  -7   5   4  40.467   4.059 
   6  -5  -4  -1.005   3.617 
  -6   5   4  0.4019  1.7682 
  -6   5   4 -0.2009  1.7682 
  -6   5   4  2.8934  1.9289 
   5  -5  -4  58.310   3.335 
   5  -5  -4  56.220   3.054 
   5  -5  -4  66.025   4.862 
  -5   5   4  62.650   3.496 
  -5   5   4  62.007   4.059 
  -5   5   4  59.797   3.657 
   4  -5  -4  141.98    7.23 
   4  -5  -4  155.92    8.52 
   4  -5  -4  138.84    6.63 
  -4   5   4  146.68    6.51 
  -4   5   4  139.40    7.39 
   3  -5  -4 1106.40   61.44 
   3  -5  -4 1116.97   42.40 
   3  -5  -4 1091.97   39.82 
   3  -5  -4 1027.55   49.35 
  -3   5   4 1059.18   46.86 
  -3   5   4 1111.46   79.13 
  -3   5   4 1030.08   48.99 
   2  -5  -4  239.47   10.21 
   2  -5  -4  228.01   10.45 
   2  -5  -4  235.73   11.98 
  -2   5   4  226.09   10.89 
  -2   5   4  228.01   12.34 
  -2   5   4  210.90   12.54 
   1  -5  -4  114.33    6.47 
   1  -5  -4  134.38    7.15 
   1  -5  -4  132.13    7.51 
   1  -5  -4  131.61    6.03 
   1  -5  -4  129.40    6.35 
  -1   5   4  131.13    7.84 
  -1   5   4  127.31    6.15 
  -1   5   4  117.70    6.39 
  -1   5   4  127.91    7.51 
   0  -5  -4  166.33    7.72 
   0  -5  -4  165.69    9.52 
   0  -5  -4  168.70   11.37 
   0  -5  -4  170.11    8.12 
   0  -5  -4  158.05    7.35 
   0   5   4  154.27    7.35 
   0   5   4  157.13   11.37 
   0   5   4  143.06    5.79 
   0   5   4  156.40    8.12 
   0   5   4  146.64    7.35 
   0   5   4  156.12   10.41 
  -1  -5  -4  61.645   3.777 
  -1  -5  -4  62.127   4.260 
  -1  -5  -4  65.784   4.300 
   1   5   4  69.883   3.255 
   1   5   4  58.953   3.818 
   1   5   4  69.321   3.697 
   1   5   4  66.307   4.380 
   1   5   4  66.869   5.747 
  -2  -5  -4  601.02   35.20 
  -2  -5  -4  646.51   33.68 
  -2  -5  -4  591.01   33.80 
   2   5   4  643.26   41.11 
   2   5   4  619.99   33.88 
   2   5   4  641.77   32.79 
   2   5   4  649.32   41.43 
  -3  -5  -4  715.95   36.49 
  -3  -5  -4  682.56   35.32 
  -3  -5  -4  697.02   33.35 
   3   5   4  677.41   34.76 
   3   5   4  758.79   46.05 
   3   5   4  673.56   34.84 
  -4  -5  -4  38.337   3.255 
  -4  -5  -4  42.838   3.617 
   4   5   4  35.203   4.260 
  -5  -5  -4  43.441   4.019 
  -5  -5  -4  35.444   3.898 
  -5  -5  -4  37.534   4.059 
   5   5   4  35.966   4.260 
   5   5   4  35.323   4.742 
  -6  -5  -4  34.158   4.501 
  -6  -5  -4  42.878   5.626 
   6   5   4  44.405   5.586 
   6   5   4  42.959   6.430 
   8  -6  -4  37.172   7.394 
  -8   6   4  33.515   4.220 
   7  -6  -4  -1.607   4.541 
  -7   6   4  1.8485  2.7326 
  -7   6   4  3.6569  2.6523 
  -7   6   4  1.2859  2.5317 
   6  -6  -4  53.327   5.505 
  -6   6   4  61.926   4.742 
  -6   6   4  61.083   3.978 
  -6   6   4  56.943   4.139 
   5  -6  -4  0.5626  1.2056 
   5  -6  -4  2.6121  2.6523 
  -5   6   4 -0.0402  1.7280 
  -5   6   4  -1.005   1.728 
   4  -6  -4  293.76   11.90 
   4  -6  -4  270.45   14.63 
   4  -6  -4  289.38   16.76 
   4  -6  -4  297.38   13.66 
  -4   6   4  274.19   13.98 
  -4   6   4  288.29   12.74 
   3  -6  -4 -0.0402  1.6074 
   3  -6  -4  0.9645  1.4869 
   3  -6  -4 -0.1206  1.8485 
   3  -6  -4 -0.4019  0.6028 
   3  -6  -4  0.7635  0.5626 
  -3   6   4 -0.2813  1.1654 
  -3   6   4  1.9289  1.5672 
  -3   6   4  2.7728  1.9289 
   2  -6  -4  615.81   37.09 
   2  -6  -4  589.00   24.63 
   2  -6  -4  580.36   35.85 
  -2   6   4  576.14   27.13 
  -2   6   4  546.33   34.24 
  -2   6   4  576.71   34.52 
   1  -6  -4  132.01    7.55 
   1  -6  -4  118.59    6.67 
  -1   6   4  137.92    7.96 
  -1   6   4  117.14    6.71 
  -1   6   4  127.27    6.43 
  -1   6   4  116.26    3.54 
  -1   6   4  117.91    6.11 
   0  -6  -4  284.56   14.71 
   0  -6  -4  285.44   16.60 
   0  -6  -4  282.99   14.83 
   0   6   4  260.32   11.17 
   0   6   4  281.06   16.32 
   0   6   4  290.26   12.82 
   0   6   4  262.25   13.18 
   0   6   4  257.71   15.35 
  -1  -6  -4  15.793   2.331 
  -1  -6  -4  23.227   2.492 
   1   6   4  12.900   2.492 
   1   6   4  15.994   2.612 
   1   6   4  20.414   1.768 
   1   6   4  19.852   1.768 
   1   6   4  14.387   1.768 
  -2  -6  -4  70.647   5.867 
  -2  -6  -4  82.260   5.345 
   2   6   4  77.478   6.189 
   2   6   4  87.002   6.309 
   2   6   4  85.274   5.023 
   2   6   4  87.927   4.019 
   2   6   4  84.832   6.189 
  -3  -6  -4  212.46   10.41 
  -3  -6  -4  219.58   11.61 
   3   6   4  216.04   14.11 
   3   6   4  208.20   10.73 
   3   6   4  234.16   14.11 
   3   6   4  196.83   12.70 
  -4  -6  -4  88.650   5.385 
  -4  -6  -4  96.727   5.747 
   4   6   4  82.944   6.309 
   4   6   4  93.754   6.872 
   4   6   4  101.23    7.51 
  -5  -6  -4  27.125   3.577 
  -5  -6  -4  26.764   3.376 
  -5  -6  -4  28.170   4.059 
   5   6   4  27.045   4.983 
   5   6   4  33.314   4.862 
   5   6   4  36.047   5.144 
  -6  -6  -4  27.326   5.465 
  -6  -6  -4  27.568   4.782 
   6   6   4  32.068   7.475 
   6   6   4  35.444   6.349 
   8  -7  -4  4.1793  6.6709 
  -8   7   4  9.8857  4.0990 
   7  -7  -4  66.347   6.952 
  -7   7   4  66.950   5.104 
  -7   7   4  65.985   5.184 
   6  -7  -4  70.165   6.711 
  -6   7   4  77.076   5.184 
  -6   7   4  73.178   4.702 
   5  -7  -4  76.594   5.184 
   5  -7  -4  81.617   6.550 
   5  -7  -4  95.160   6.590 
  -5   7   4  83.828   4.621 
  -5   7   4  75.509   4.862 
   4  -7  -4  460.61   27.61 
   4  -7  -4  474.76   24.79 
   4  -7  -4  439.95   24.39 
  -4   7   4  436.70   23.63 
  -4   7   4  444.62   19.61 
   3  -7  -4  276.76   12.50 
   3  -7  -4  269.97   10.13 
   3  -7  -4  285.36   14.55 
   3  -7  -4  264.82   16.84 
  -3   7   4  272.94   14.39 
  -3   7   4  269.65   13.66 
  -3   7   4  244.57   19.93 
   2  -7  -4 -0.4019  2.0897 
   2  -7  -4  1.3261  1.3663 
  -2   7   4  2.7326  1.8887 
  -2   7   4  0.9645  1.2056 
  -2   7   4  3.2952  1.6476 
   1  -7  -4  334.02   17.88 
   1  -7  -4  344.23   20.17 
  -1   7   4  324.94   17.96 
  -1   7   4  312.97   17.60 
  -1   7   4  311.56   10.85 
  -1   7   4  349.70   19.77 
  -1   7   4  311.56   12.02 
   0  -7  -4  10.569   2.130 
   0  -7  -4  11.935   2.331 
   0   7   4  16.195   2.130 
   0   7   4  16.758   1.567 
   0   7   4  14.547   2.492 
   0   7   4  14.025   1.808 
   0   7   4  18.485   1.969 
  -1  -7  -4  168.10   10.97 
  -1  -7  -4  165.12    8.88 
   1   7   4  150.34    9.77 
   1   7   4  168.82   10.69 
   1   7   4  160.18    7.19 
   1   7   4  170.71    7.51 
   1   7   4  161.11    9.40 
  -2  -7  -4  1.9289  2.0093 
  -2  -7  -4  -1.447   2.009 
   2   7   4 -0.7233  2.4513 
   2   7   4  5.7466  1.7280 
   2   7   4 -0.5626  1.5672 
   2   7   4  10.006   3.416 
   2   7   4  0.6028  2.0495 
  -3  -7  -4  106.73    6.35 
  -3  -7  -4  104.44    6.07 
   3   7   4  107.34    9.52 
   3   7   4  117.82    7.19 
   3   7   4  93.834   7.193 
  -4  -7  -4  0.3617  3.0139 
  -4  -7  -4  3.2551  2.6121 
   4   7   4  4.2597  3.2149 
   4   7   4  4.9429  5.9877 
   4   7   4  2.3308  4.2195 
  -5  -7  -4  58.270   5.546 
  -5  -7  -4  51.920   5.224 
  -5  -7  -4  59.676   5.063 
   5   7   4  62.087   6.309 
   5   7   4  61.484   8.037 
   8  -8  -4  3.8980  6.1886 
   8  -8  -4  1.2056  3.4560 
   7  -8  -4  22.022   4.461 
   7  -8  -4  26.523   5.867 
  -7   8   4  33.113   4.380 
  -7   8   4  32.229   3.858 
   6  -8  -4  34.118   4.943 
   6  -8  -4  40.347   3.898 
  -6   8   4  40.427   4.340 
  -6   8   4  31.184   3.697 
   5  -8  -4  95.602   7.555 
   5  -8  -4  93.633   7.716 
  -5   8   4  101.07    5.51 
  -5   8   4  94.356   6.068 
   4  -8  -4  544.04   29.66 
   4  -8  -4  532.30   34.60 
  -4   8   4  520.61   26.60 
  -4   8   4  518.64   26.56 
   3  -8  -4  60.279   4.340 
   3  -8  -4  57.426   4.461 
  -3   8   4  54.532   4.019 
  -3   8   4  57.948   3.536 
  -3   8   4  59.274   6.671 
   2  -8  -4  27.608   3.094 
   2  -8  -4  33.917   2.974 
  -2   8   4  33.354   2.773 
  -2   8   4  30.501   3.295 
  -2   8   4  30.581   2.572 
   1  -8  -4  69.120   4.702 
   1  -8  -4  76.554   5.948 
  -1   8   4  81.256   4.862 
  -1   8   4  79.447   4.461 
  -1   8   4  72.013   3.014 
  -1   8   4  68.678   4.903 
  -1   8   4  72.736   2.974 
   0  -8  -4  77.157   4.782 
   0  -8  -4  78.081   5.988 
   0   8   4  82.421   5.385 
   0   8   4  82.461   5.264 
   0   8   4  86.159   5.465 
   0   8   4  80.934   3.938 
  -1  -8  -4  33.435   3.376 
  -1  -8  -4  37.132   3.536 
   1   8   4  33.917   2.692 
   1   8   4  34.721   3.978 
   1   8   4  31.626   2.893 
   1   8   4  34.198   2.853 
  -2  -8  -4  175.77   10.45 
  -2  -8  -4  172.28    9.36 
   2   8   4  162.87   10.93 
   2   8   4  170.71    9.93 
   2   8   4  161.06    9.81 
   2   8   4  174.69   13.54 
  -3  -8  -4  12.217   2.451 
  -3  -8  -4  9.9661  2.9738 
   3   8   4  8.3185  2.4915 
   3   8   4  4.8625  3.7373 
   3   8   4  11.815   2.733 
  -4  -8  -4  44.446   4.581 
  -4  -8  -4  46.535   4.581 
   4   8   4  50.554   6.068 
   4   8   4  50.433   6.349 
  -5  -8  -4  0.5626  3.5765 
  -5  -8  -4  7.0727  4.1793 
  -5  -8  -4  3.7775  4.2597 
   5   8   4  -3.175   5.144 
   5   8   4  9.1222  5.8270 
   7  -9  -4  0.1206  3.1345 
   7  -9  -4  0.4822  5.4653 
  -7   9   4  0.8037  3.3756 
  -7   9   4  2.0897  2.4513 
   6  -9  -4  71.169   6.791 
   6  -9  -4  61.846   6.028 
  -6   9   4  68.035   6.309 
  -6   9   4  64.659   5.345 
   5  -9  -4  49.147   4.702 
   5  -9  -4  38.619   4.621 
  -5   9   4  41.391   4.059 
  -5   9   4  41.954   4.300 
   4  -9  -4  229.22   11.73 
   4  -9  -4  238.46   12.70 
  -4   9   4  223.88   12.82 
  -4   9   4  212.78   12.26 
   3  -9  -4  53.809   3.858 
   3  -9  -4  51.317   4.059 
  -3   9   4  54.492   4.099 
  -3   9   4  53.929   4.019 
   2  -9  -4  65.744   5.224 
   2  -9  -4  63.534   4.461 
  -2   9   4  65.423   2.411 
  -2   9   4  78.041   5.104 
  -2   9   4  68.155   4.461 
   1  -9  -4  0.9645  2.0093 
  -1   9   4  0.8037  2.2102 
  -1   9   4  0.2009  1.0046 
  -1   9   4  1.8485  1.1654 
  -1   9   4  4.5410  2.3308 
   0  -9  -4  107.66    8.40 
   0  -9  -4  109.75    7.35 
   0   9   4  108.90    6.43 
   0   9   4  117.22    5.59 
   0   9   4  111.96    5.87 
   0   9   4  113.44    5.10 
  -1  -9  -4  117.22    6.91 
  -1  -9  -4  120.84    6.99 
   1   9   4  121.20    7.39 
   1   9   4  111.23    6.23 
   1   9   4  122.69    7.64 
  -2  -9  -4  102.19    6.63 
  -2  -9  -4  102.55    7.15 
   2   9   4  123.73   11.09 
   2   9   4  91.503   6.952 
   2   9   4  89.775   5.385 
  -3  -9  -4  22.022   3.496 
  -3  -9  -4  26.161   4.260 
   3   9   4  22.906   5.385 
   3   9   4  28.371   4.541 
  -4  -9  -4  10.890   4.501 
  -4  -9  -4  5.9877  4.2195 
   4   9   4  8.5998  5.7466 
   4   9   4  14.708   5.505 
   7 -10  -4  26.201   6.510 
   7 -10  -4  21.982   4.862 
  -7  10   4  24.875   5.345 
   6 -10  -4  2.0495  4.3803 
   6 -10  -4  7.5148  3.9382 
  -6  10   4  3.1345  3.2149 
  -6  10   4  6.0279  3.6569 
   5 -10  -4  61.525   5.706 
   5 -10  -4  67.713   5.546 
  -5  10   4  61.967   5.465 
  -5  10   4  64.137   5.144 
   4 -10  -4  -3.215   2.974 
  -4  10   4  -2.090   3.175 
  -4  10   4  1.5271  3.2149 
   3 -10  -4  337.20   21.06 
  -3  10   4  305.85   20.86 
  -3  10   4  331.94   15.59 
   2 -10  -4  1.5271  2.8934 
  -2  10   4  6.9120  2.4112 
  -2  10   4  4.5008  2.5719 
   1 -10  -4  118.19    8.08 
   1 -10  -4  115.01    8.00 
  -1  10   4  114.53    7.23 
  -1  10   4  120.92    7.39 
   0 -10  -4  21.017   3.215 
   0 -10  -4  24.754   3.134 
   0  10   4  20.575   3.175 
   0  10   4  20.776   2.934 
  -1 -10  -4  2.0093  2.8130 
  -1 -10  -4  6.3092  3.2551 
   1  10   4  5.6260  2.7728 
  -2 -10  -4 -0.8841  2.9738 
  -2 -10  -4  4.3803  3.3354 
   2  10   4  1.9691  2.8532 
  -3 -10  -4  47.339   5.385 
  -3 -10  -4  46.575   4.822 
   6 -11  -4  4.0186  3.8177 
  -6  11   4  5.4251  4.7419 
   5 -11  -4  15.833   5.023 
  -5  11   4  13.864   4.300 
   4 -11  -4  20.615   3.978 
  -4  11   4  23.027   3.737 
  -4  11   4  25.438   3.938 
   3 -11  -4  39.744   5.305 
  -3  11   4  52.844   4.662 
  -3  11   4  38.257   4.742 
   2 -11  -4  27.367   4.420 
  -2  11   4  30.340   3.536 
  -2  11   4  27.809   3.456 
   1 -11  -4  31.988   4.059 
   1 -11  -4  32.189   4.380 
  -1  11   4  34.962   4.099 
   0 -11  -4  4.8223  3.0139 
   0 -11  -4  11.292   3.496 
   0  11   4  4.2999  2.7728 
  -1 -11  -4  11.774   3.898 
  -1 -11  -4  10.890   3.938 
   1  11   4  8.3185  3.2952 
  -2 -11  -4  60.359   5.305 
  -2 -11  -4  49.750   5.626 
   2  11   4  42.356   5.505 
   5 -12  -4  -1.125   4.220 
  -5  12   4  -5.706   4.862 
   4 -12  -4  48.062   6.791 
  -4  12   4  40.266   5.385 
   3 -12  -4 -0.2411  4.4606 
  -3  12   4  -2.572   3.416 
   2 -12  -4  31.064   4.662 
   2 -12  -4  31.787   4.862 
  -2  12   4  30.421   4.340 
   1 -12  -4  1.2056  4.0588 
   1 -12  -4  1.6074  3.6167 
  -1  12   4  4.5410  3.5364 
   0 -12  -4  18.566   4.179 
   0 -12  -4  17.762   4.903 
   0  12   4  23.107   4.179 
  -1 -12  -4 -0.3617  3.8578 
  -1 -12  -4  3.8980  3.3756 
   1  12   4  0.0000  4.0990 
   4 -13  -4 -0.9645  5.4653 
   3 -13  -4  8.3185  5.1438 
  -3  13   4  4.5812  4.8625 
   2 -13  -4 -0.7233  4.1391 
   2 -13  -4  -5.867   4.621 
  -2  13   4  -1.246   3.657 
   1 -13  -4  16.315   4.702 
   1 -13  -4  14.869   5.023 
  -1  13   4  15.713   4.702 
   0  13  -5  54.532   6.068 
   0  13  -5  34.600   6.148 
   0 -13   5  46.616   6.028 
  -1  13  -5  4.4606  3.8980 
  -1  13  -5  7.1933  4.4204 
   1 -13   5  7.4746  3.3354 
  -2  13  -5  14.909   4.300 
  -2  13  -5  18.767   4.581 
   2 -13   5  23.629   4.420 
   2 -13   5  13.141   5.023 
  -3  13  -5  87.203   7.354 
  -3  13  -5  96.326   7.595 
   3 -13   5  89.132   7.676 
   3 -13   5  87.645   9.203 
  -4  13  -5  14.387   5.224 
  -4  13  -5  9.0016  4.0186 
   4 -13   5  5.2643  5.3849 
   4 -13   5  2.2906  4.8223 
   2  12  -5  -7.756   5.988 
   2  12  -5  4.0990  4.6214 
  -2 -12   5  0.5224  4.5410 
   1  12  -5  38.177   5.465 
   1  12  -5  34.560   5.626 
  -1 -12   5  29.697   4.621 
   0  12  -5  2.6925  3.1345 
   0  12  -5  1.5672  3.6971 
   0 -12   5  10.730   3.938 
  -1  12  -5  83.667   7.153 
  -1  12  -5  82.903   6.751 
   1 -12   5  71.209   6.349 
  -2  12  -5  4.8625  3.2149 
  -2  12  -5  8.5596  3.5364 
   2 -12   5  9.0418  4.4204 
   2 -12   5  7.6755  3.6167 
  -3  12  -5  25.357   4.461 
  -3  12  -5  26.442   4.099 
   3 -12   5  21.741   4.742 
   3 -12   5  21.499   4.260 
  -4  12  -5  4.6616  4.2195 
  -4  12  -5  6.3092  3.0541 
   4 -12   5  3.6167  3.5364 
   4 -12   5  12.498   4.340 
  -5  12  -5  4.7419  4.0990 
   5 -12   5  -4.943   3.978 
   3  11  -5  25.478   5.787 
   3  11  -5  13.141   5.626 
  -3 -11   5  22.826   4.903 
   2  11  -5  63.735   6.108 
   2  11  -5  65.905   5.144 
  -2 -11   5  49.147   5.425 
   1  11  -5  1.9691  3.2149 
   1  11  -5  0.8439  3.6971 
  -1 -11   5  3.2551  3.5765 
   0  11  -5  52.523   4.782 
   0  11  -5  49.790   4.621 
   0 -11   5  52.001   4.300 
  -1  11  -5  4.7017  2.9738 
  -1  11  -5 -0.9243  2.9738 
   1 -11   5  -1.246   2.692 
  -2  11  -5  32.189   3.978 
  -2  11  -5  26.482   3.777 
   2 -11   5  29.537   3.737 
   2 -11   5  23.830   3.215 
  -3  11  -5  -3.456   3.134 
  -3  11  -5  -2.813   2.572 
   3 -11   5  -2.170   3.215 
   3 -11   5  2.7728  3.4158 
  -4  11  -5  45.852   4.862 
  -4  11  -5  47.580   4.300 
   4 -11   5  38.378   5.023 
   4 -11   5  50.514   4.621 
  -5  11  -5 -0.8841  3.0139 
   5 -11   5  3.0943  4.1793 
  -6  11  -5  20.575   4.340 
   6 -11   5  37.011   6.671 
   4  10  -5  0.1206  5.2643 
  -4 -10   5  4.5008  4.6214 
   3  10  -5  31.305   5.747 
  -3 -10   5  30.381   5.305 
   2  10  -5  103.20    6.79 
   2  10  -5  104.64    7.51 
  -2 -10   5  91.945   7.635 
   1  10  -5  179.55   11.21 
   1  10  -5  163.19   10.53 
  -1 -10   5  166.21   11.09 
   0  10  -5  211.50   13.46 
   0  10  -5  204.35   11.25 
   0 -10   5  203.54   13.34 
  -1  10  -5  11.051   2.612 
  -1  10  -5  11.212   2.853 
  -2  10  -5  -1.165   2.692 
  -2  10  -5  1.5672  2.1700 
   2 -10   5  0.4019  2.8532 
   2 -10   5 -0.2813  2.1700 
  -3  10  -5  83.265   5.747 
  -3  10  -5  91.985   5.948 
   3 -10   5  93.271   7.475 
   3 -10   5  90.981   6.028 
  -4  10  -5  41.271   3.777 
  -4  10  -5  32.591   4.983 
   4 -10   5  41.070   4.662 
   4 -10   5  44.084   4.059 
   4 -10   5  47.741   4.822 
  -5  10  -5  41.994   3.858 
   5 -10   5  38.739   4.501 
   5 -10   5  33.354   4.501 
   5 -10   5  36.730   3.536 
  -6  10  -5  1.3663  3.6569 
   6 -10   5  3.9382  4.9830 
   6 -10   5  4.6214  4.0990 
   4   9  -5 -0.6430  4.4204 
  -4  -9   5 -0.0804  3.0139 
   3   9  -5  199.64   13.66 
  -3  -9   5  174.93   11.73 
   2   9  -5  45.732   4.260 
   2   9  -5  43.602   4.179 
  -2  -9   5  45.651   4.179 
   1   9  -5  155.56    8.80 
   1   9  -5  143.91    9.12 
  -1  -9   5  138.88    9.16 
   0   9  -5  81.738   5.907 
   0   9  -5  78.443   4.983 
   0  -9   5  76.835   5.505 
  -1   9  -5  17.200   2.572 
  -1   9  -5  13.422   2.451 
   1  -9   5  14.346   2.532 
  -2   9  -5  11.252   2.331 
  -2   9  -5  14.547   2.532 
   2  -9   5  17.200   2.331 
   2  -9   5  14.145   2.733 
  -3   9  -5  106.17    6.47 
  -3   9  -5  91.262   5.948 
   3  -9   5  100.10    5.34 
   3  -9   5  92.026   6.269 
  -4   9  -5  30.742   3.054 
   4  -9   5  34.560   3.818 
   4  -9   5  29.095   3.054 
  -5   9  -5  46.736   3.858 
   5  -9   5  42.195   3.777 
   5  -9   5  49.589   4.983 
   5  -9   5  40.628   5.023 
  -6   9  -5  47.982   4.179 
  -6   9  -5  47.419   4.541 
   6  -9   5  40.990   5.907 
   6  -9   5  40.427   5.626 
   7  -9   5  13.422   5.907 
   7  -9   5  14.949   4.581 
   5   8  -5  1.9289  5.3045 
  -5  -8   5  7.0727  3.4962 
   4   8  -5  163.23   11.57 
  -4  -8   5  161.75   10.77 
   3   8  -5  9.6848  3.0541 
   3   8  -5  6.8316  3.2149 
  -3  -8   5  6.7914  1.6074 
  -3  -8   5  6.2690  1.9289 
  -3  -8   5  6.1886  2.9336 
   2   8  -5  96.687   6.550 
   2   8  -5  94.557   6.470 
  -2  -8   5  86.520   4.903 
  -2  -8   5  79.970   4.420 
  -2  -8   5  89.936   5.747 
   1   8  -5  28.612   2.813 
   1   8  -5  22.022   2.250 
  -1  -8   5  24.473   2.652 
  -1  -8   5  22.745   1.567 
  -1  -8   5  22.866   1.648 
   0   8  -5  467.28   26.12 
   0   8  -5  478.45   22.18 
   0  -8   5  473.55   18.69 
   0  -8   5  471.50   18.81 
   0  -8   5  467.56   28.93 
   0  -8   5  427.26   34.08 
  -1   8  -5  829.28   40.79 
  -1   8  -5  849.21   40.39 
   1  -8   5  865.20   28.93 
   1  -8   5  817.38   30.02 
   1  -8   5  847.72   28.77 
   1  -8   5  871.63   43.20 
   1  -8   5  814.65   54.61 
  -2   8  -5  122.21    6.15 
  -2   8  -5  124.46    6.83 
   2  -8   5  101.75    8.60 
   2  -8   5  122.17    6.07 
   2  -8   5  124.09    6.71 
  -3   8  -5  4.3803  1.8485 
  -3   8  -5  4.6214  2.2102 
   3  -8   5  6.0681  2.1299 
   3  -8   5  5.5858  2.3308 
  -4   8  -5  75.951   4.621 
   4  -8   5  75.630   4.782 
   4  -8   5  76.835   5.546 
  -5   8  -5  74.746   4.621 
  -5   8  -5  75.670   4.782 
   5  -8   5  64.217   6.550 
   5  -8   5  55.215   4.179 
  -6   8  -5  61.725   5.264 
  -6   8  -5  71.330   5.305 
   6  -8   5  64.418   5.948 
   6  -8   5  70.325   6.832 
  -7   8  -5  4.5410  3.8578 
   7  -8   5  2.1700  4.1793 
   7  -8   5  3.0541  4.2597 
   6   7  -5  23.027   6.510 
  -6  -7   5  12.819   4.662 
   5   7  -5  50.192   6.028 
  -5  -7   5  54.090   4.501 
  -5  -7   5  63.052   5.948 
  -5  -7   5  52.643   4.501 
   4   7  -5  78.162   6.068 
   4   7  -5  87.726   6.148 
  -4  -7   5  73.339   4.541 
  -4  -7   5  79.648   5.907 
  -4  -7   5  76.434   4.501 
   3   7  -5  113.93    7.11 
   3   7  -5  119.31    6.91 
  -3  -7   5  112.36    5.95 
  -3  -7   5  107.58    8.12 
  -3  -7   5  114.33    6.03 
   2   7  -5  42.959   3.737 
   2   7  -5  42.597   3.938 
  -2  -7   5  34.520   2.090 
  -2  -7   5  37.654   3.175 
  -2  -7   5  35.966   2.210 
   1   7  -5  91.423   5.023 
   1   7  -5  80.894   4.300 
   1   7  -5  87.083   5.907 
  -1  -7   5  76.675   3.737 
  -1  -7   5  77.318   3.577 
  -1  -7   5  73.098   5.063 
  -1  -7   5  87.244   5.224 
   0   7  -5  240.71   13.14 
   0   7  -5  236.09    9.60 
   0  -7   5  238.58   13.82 
   0  -7   5  247.38   15.71 
  -1   7  -5  340.74   19.13 
  -1   7  -5  352.43   19.13 
   1  -7   5  348.41   18.73 
   1  -7   5  332.50   14.43 
   1  -7   5  332.58   22.10 
  -2   7  -5  8.0774  2.1700 
  -2   7  -5  10.167   1.808 
  -2   7  -5  11.815   2.049 
   2  -7   5  11.252   1.688 
   2  -7   5  6.7110  2.8130 
   2  -7   5  10.850   0.884 
   2  -7   5  13.141   2.049 
   2  -7   5  11.172   0.924 
  -3   7  -5  322.89   15.31 
  -3   7  -5  253.01   21.22 
  -3   7  -5  315.02   14.95 
   3  -7   5  324.78   14.79 
   3  -7   5  307.14   13.06 
   3  -7   5  321.89   14.19 
   3  -7   5  309.23   15.67 
  -4   7  -5  4.2999  1.6476 
  -4   7  -5  1.5672  1.6074 
   4  -7   5  5.9877  1.7682 
   4  -7   5  4.3803  2.1299 
  -5   7  -5  14.668   2.130 
  -5   7  -5  16.074   2.210 
   5  -7   5  16.597   2.371 
   5  -7   5  17.119   2.934 
  -6   7  -5 -0.2009  2.3308 
  -6   7  -5  1.8084  2.5317 
   6  -7   5  -1.527   4.059 
   6  -7   5  -2.934   3.054 
  -7   7  -5  44.084   4.662 
   7  -7   5  47.500   5.948 
   7  -7   5  47.701   6.751 
   6   6  -5  36.207   7.113 
   6   6  -5  53.729   7.595 
  -6  -6   5  36.007   4.300 
  -6  -6   5  42.034   5.144 
  -6  -6   5  43.119   4.461 
   5   6  -5  20.173   4.742 
   5   6  -5  26.844   4.621 
  -5  -6   5  11.774   3.496 
  -5  -6   5  19.812   2.893 
  -5  -6   5  15.994   2.813 
  -5  -6   5  11.694   2.773 
   4   6  -5  67.311   5.144 
   4   6  -5  63.253   5.184 
  -4  -6   5  62.047   4.983 
  -4  -6   5  61.645   3.777 
  -4  -6   5  56.461   3.496 
   3   6  -5  365.13   16.19 
   3   6  -5  380.28   19.61 
  -3  -6   5  369.99   24.88 
  -3  -6   5  363.72   23.19 
  -3  -6   5  367.62   16.36 
  -3  -6   5  348.17   22.79 
   2   6  -5  1.4869  1.8887 
   2   6  -5  0.8439  1.8887 
   2   6  -5  -1.487   1.326 
  -2  -6   5  1.7280  0.8037 
  -2  -6   5  2.7326  2.2906 
  -2  -6   5  2.6121  1.6476 
  -2  -6   5  2.4112  0.9243 
   1   6  -5  164.20   10.13 
   1   6  -5  156.24    7.19 
   1   6  -5  161.87    8.48 
  -1  -6   5  158.01    6.31 
  -1  -6   5  172.44    9.89 
  -1  -6   5  165.08    8.92 
  -1  -6   5  152.42    6.83 
   0   6  -5  67.713   3.978 
   0   6  -5  66.025   3.416 
   0   6  -5  73.862   4.742 
   0  -6   5  68.035   3.978 
   0  -6   5  63.092   4.621 
  -1   6  -5  238.86   12.54 
  -1   6  -5  236.17   10.81 
  -1   6  -5  228.01   13.90 
   1  -6   5  220.54   12.90 
   1  -6   5  238.95   13.02 
   1  -6   5  234.73   10.17 
  -2   6  -5  16.074   2.291 
  -2   6  -5  19.812   2.009 
  -2   6  -5  13.744   1.849 
   2  -6   5  19.289   2.893 
   2  -6   5  21.499   2.170 
   2  -6   5  18.043   1.648 
   2  -6   5  18.606   1.125 
  -3   6  -5  153.27    7.19 
  -3   6  -5  155.56    7.27 
  -3   6  -5  148.53    8.56 
   3  -6   5  152.67    7.64 
   3  -6   5  148.73    7.07 
   3  -6   5  144.43    7.07 
   3  -6   5  148.25    7.27 
  -4   6  -5  105.21    6.03 
  -4   6  -5  106.37    5.06 
   4  -6   5  92.829   5.505 
   4  -6   5  90.579   5.626 
   4  -6   5  93.352   5.666 
   4  -6   5  96.446   4.581 
  -5   6  -5  7.1531  1.8887 
  -5   6  -5  2.9738  1.8084 
  -5   6  -5  2.4915  1.7280 
   5  -6   5  3.8980  1.7682 
   5  -6   5  1.3261  1.8887 
  -6   6  -5  169.06   10.21 
  -6   6  -5  170.23    9.85 
   6  -6   5  191.28   12.30 
  -7   6  -5  0.3617  2.9738 
  -7   6  -5  1.4467  3.2149 
   7  -6   5 -0.3617  3.4158 
   7  -6   5  1.6476  5.5055 
  -8   6  -5  44.928   5.666 
  -8   6  -5  42.316   5.988 
   8  -6   5  39.302   8.881 
   8  -6   5  25.960   6.992 
   7   5  -5  2.3710  5.7868 
   7   5  -5  11.734   8.037 
  -7  -5   5  3.6167  5.3447 
  -7  -5   5  3.7775  4.2195 
  -7  -5   5  3.9382  3.5364 
   6   5  -5  116.38    9.04 
   6   5  -5  110.15   10.17 
  -6  -5   5  113.16    7.80 
  -6  -5   5  109.87    6.67 
  -6  -5   5  101.43    7.07 
   5   5  -5  8.5194  3.3756 
   5   5  -5  13.543   3.898 
  -5  -5   5  6.9120  1.8485 
  -5  -5   5  7.9970  2.4513 
  -5  -5   5  8.3988  2.0093 
  -5  -5   5  7.0727  2.1700 
   4   5  -5  93.030   5.988 
   4   5  -5  78.724   5.586 
  -4  -5   5  75.951   5.023 
  -4  -5   5  71.973   4.541 
  -4  -5   5  81.256   4.541 
   3   5  -5  24.754   3.094 
   3   5  -5  30.983   2.934 
   3   5  -5  22.584   2.331 
  -3  -5   5  26.201   3.697 
  -3  -5   5  28.010   1.889 
  -3  -5   5  29.657   2.652 
  -3  -5   5  25.317   1.929 
   2   5  -5  329.68   14.87 
   2   5  -5  302.24   13.78 
   2   5  -5  328.52   14.11 
  -2  -5   5  304.05   18.57 
  -2  -5   5  309.23   12.70 
  -2  -5   5  306.78   14.39 
  -2  -5   5  335.71   15.95 
   1   5  -5  13.422   1.768 
   1   5  -5  15.271   2.130 
   1   5  -5  13.623   0.964 
   1   5  -5  14.306   1.808 
  -1  -5   5  11.815   0.723 
  -1  -5   5  12.779   0.764 
  -1  -5   5  11.011   1.326 
  -1  -5   5  16.034   2.371 
   0   5  -5  605.64   32.23 
   0   5  -5  567.42   31.22 
   0   5  -5  614.44   26.64 
   0   5  -5  626.50   25.68 
   0  -5   5  636.66   35.44 
   0  -5   5  596.44   37.94 
   0  -5   5  619.22   28.85 
  -1   5  -5  6.7914  1.2859 
  -1   5  -5  5.6260  1.6476 
  -1   5  -5  4.5008  1.2859 
   1  -5   5  7.1531  1.1654 
   1  -5   5  4.5410  1.1252 
  -2   5  -5  266.91   15.35 
  -2   5  -5  292.79   14.31 
  -2   5  -5  285.36   12.34 
  -2   5  -5  286.28   11.77 
   2  -5   5  285.84   15.91 
   2  -5   5  287.41   13.82 
   2  -5   5  301.19   11.94 
   2  -5   5  297.98   12.94 
  -3   5  -5  199.64    8.88 
  -3   5  -5  205.31    9.36 
  -3   5  -5  194.54    8.80 
   3  -5   5  190.00    8.96 
   3  -5   5  207.80    9.08 
   3  -5   5  185.70    9.56 
  -4   5  -5  167.90    7.51 
  -4   5  -5  177.22    7.60 
  -4   5  -5  162.55   10.13 
   4  -5   5  169.91    8.68 
   4  -5   5  171.75    9.08 
   4  -5   5  158.01    7.35 
  -5   5  -5  83.386   4.420 
  -5   5  -5  80.814   4.943 
  -5   5  -5  83.305   4.340 
   5  -5   5  74.223   5.827 
   5  -5   5  69.843   3.697 
  -6   5  -5  15.873   2.652 
  -6   5  -5  18.928   2.411 
   6  -5   5  16.235   2.893 
  -7   5  -5  23.951   4.139 
  -7   5  -5  30.823   4.139 
   7  -5   5  27.568   5.626 
   7  -5   5  28.974   4.179 
  -8   5  -5  -1.005   4.621 
  -8   5  -5  2.0495  4.2195 
   8  -5   5  3.5364  6.4699 
   8  -5   5  3.4560  4.8223 
   7   4  -5  42.677   6.631 
   7   4  -5  48.585   7.957 
  -7  -4   5  46.495   4.903 
  -7  -4   5  46.535   5.224 
  -7  -4   5  39.704   4.943 
   6   4  -5  51.036   5.264 
   6   4  -5  53.367   6.550 
  -6  -4   5  50.956   4.179 
  -6  -4   5  52.362   5.063 
  -6  -4   5  51.076   3.737 
   5   4  -5  87.645   7.676 
   5   4  -5  90.820   6.751 
  -5  -4   5  100.46    5.63 
  -5  -4   5  91.463   5.706 
  -5  -4   5  92.628   4.621 
  -5  -4   5  95.080   5.546 
   4   4  -5  35.806   3.657 
   4   4  -5  30.622   3.617 
  -4  -4   5  32.149   2.572 
  -4  -4   5  28.653   2.331 
  -4  -4   5  28.773   3.376 
  -4  -4   5  34.078   2.733 
  -4  -4   5  27.969   2.090 
   3   4  -5  125.62    6.35 
   3   4  -5  116.50    6.99 
   3   4  -5  129.36    6.31 
  -3  -4   5  128.23    7.39 
  -3  -4   5  114.81    5.59 
  -3  -4   5  117.22    6.19 
  -3  -4   5  122.04    8.92 
  -3  -4   5  116.78    6.83 
   2   4  -5  19.370   2.090 
   2   4  -5  18.646   1.527 
   2   4  -5  20.736   2.371 
  -2  -4   5  19.530   1.487 
  -2  -4   5  21.580   1.326 
  -2  -4   5  20.173   2.451 
  -2  -4   5  18.124   1.165 
   1   4  -5 2374.90   87.08 
   1   4  -5 2433.09  111.72 
   1   4  -5 2255.15   92.27 
   1   4  -5 2225.57   91.18 
  -1  -4   5 2377.19  134.14 
  -1  -4   5 2199.49   83.75 
  -1  -4   5 2464.92  104.89 
  -1  -4   5 2595.44  122.49 
   0   4  -5  106.93    5.14 
   0   4  -5  107.14    5.26 
   0   4  -5  107.46    5.59 
   0   4  -5  106.33    4.78 
   0  -4   5  109.67    5.51 
   0  -4   5  103.60    5.55 
   0  -4   5  116.86    6.67 
   0  -4   5  99.299   6.671 
  -1   4  -5  449.44   23.47 
  -1   4  -5  433.04   16.36 
  -1   4  -5  419.26   18.53 
   1  -4   5  415.32   21.82 
   1  -4   5  438.39   25.72 
   1  -4   5  440.08   24.79 
   1  -4   5  443.53   22.22 
   1  -4   5  443.09   24.59 
  -2   4  -5  5.8671  0.7635 
  -2   4  -5  6.1484  0.9645 
  -2   4  -5  5.7868  0.7233 
  -2   4  -5  4.7017  1.2859 
  -2   4  -5  6.6709  1.1654 
   2  -4   5  5.7064  0.7635 
   2  -4   5  2.2504  2.0897 
   2  -4   5  6.0279  1.4467 
   2  -4   5  8.2381  0.9243 
  -3   4  -5  507.43   23.19 
  -3   4  -5  528.93   27.65 
  -3   4  -5  513.09   24.83 
   3  -4   5  566.82   24.31 
   3  -4   5  545.52   28.61 
   3  -4   5  544.08   27.89 
   3  -4   5  514.66   25.68 
  -4   4  -5  56.019   3.094 
  -4   4  -5  55.376   3.255 
  -4   4  -5  63.333   3.617 
   4  -4   5  57.627   3.697 
   4  -4   5  52.483   3.777 
   4  -4   5  56.984   2.733 
   4  -4   5  61.203   4.019 
  -5   4  -5  267.92   12.10 
  -5   4  -5  272.70   14.51 
   5  -4   5  262.94   14.95 
   5  -4   5  256.39   12.02 
  -6   4  -5  -2.291   1.688 
  -6   4  -5  -1.366   2.210 
   6  -4   5  -3.536   2.331 
  -7   4  -5  108.98    6.51 
  -7   4  -5  104.20    6.79 
   7  -4   5  102.39    8.44 
   7  -4   5  86.721   8.278 
  -8   4  -5  9.9661  3.8980 
  -8   4  -5  10.890   4.943 
   8  -4   5  2.2906  4.3803 
   8  -4   5  5.2643  7.5951 
   7   3  -5  39.704   6.912 
   7   3  -5  27.447   6.148 
  -7  -3   5  37.172   4.099 
  -7  -3   5  40.427   4.139 
   6   3  -5  2.8130  3.4158 
   6   3  -5  6.9923  4.7419 
  -6  -3   5  4.1391  2.3710 
  -6  -3   5  8.0372  2.2102 
  -6  -3   5  4.4606  3.0139 
   5   3  -5  367.10   22.50 
   5   3  -5  359.26   21.74 
  -5  -3   5  364.69   19.05 
  -5  -3   5  357.86   20.70 
  -5  -3   5  361.59   15.67 
  -5  -3   5  368.02   19.65 
   4   3  -5  127.71    7.31 
   4   3  -5  133.22    7.19 
  -4  -3   5  116.62    6.11 
  -4  -3   5  122.08    5.43 
  -4  -3   5  120.60    6.23 
  -4  -3   5  114.13    6.67 
  -4  -3   5  116.82    6.47 
   3   3  -5  456.75   20.49 
   3   3  -5  460.09   20.17 
   3   3  -5  452.01   22.38 
   3   3  -5  456.31   22.42 
  -3  -3   5  437.26   23.47 
  -3  -3   5  478.33   25.48 
  -3  -3   5  433.73   21.50 
  -3  -3   5  443.37   20.94 
  -3  -3   5  441.08   21.74 
   2   3  -5  292.95   13.54 
   2   3  -5  302.20   12.78 
   2   3  -5  301.80   13.34 
   2   3  -5  296.89   16.15 
   2   3  -5  328.92   13.94 
  -2  -3   5  338.32   12.62 
  -2  -3   5  286.77   11.85 
  -2  -3   5  290.99   14.71 
  -2  -3   5  286.57   14.51 
  -2  -3   5  299.71   12.54 
   1   3  -5  2.3710  0.5626 
   1   3  -5  1.1654  0.9645 
   1   3  -5  0.7635  1.4467 
   1   3  -5  0.7233  1.2458 
   1   3  -5  2.6523  1.0850 
   1   3  -5  3.6569  0.5626 
  -1  -3   5  2.9738  1.5672 
  -1  -3   5  3.0541  1.6476 
  -1  -3   5  2.4513  0.4822 
  -1  -3   5  1.8084  0.6832 
  -1  -3   5  1.0046  0.9243 
   1   3  -5  3.4578  4.6602 
   1   3  -5 -0.1109  4.4192 
  -1  -3   5  6.0655  4.2208 
  -1  -3   5  -5.530   4.299 
   0   3  -5  703.09   41.35 
   0   3  -5  727.44   33.19 
   0   3  -5  729.94   32.47 
   0   3  -5  699.19   34.56 
   0  -3   5  719.13   40.27 
   0  -3   5  750.03   34.04 
   0  -3   5  628.59   35.97 
   0  -3   5  696.30   32.23 
   0   3  -5  690.31   42.53 
   0   3  -5  782.53   40.66 
   0  -3   5  809.80   42.10 
   0  -3   5  793.68   42.45 
  -1   3  -5  594.75   41.43 
  -1   3  -5  629.91   32.55 
  -1   3  -5  551.99   27.05 
  -1   3  -5  552.76   26.44 
  -1   3  -5  592.42   26.92 
  -1   3  -5  622.32   23.47 
   1  -3   5  648.32   32.67 
   1  -3   5  647.07   30.06 
   1  -3   5  625.98   28.57 
   1  -3   5  587.64   31.95 
   1  -3   5  619.51   35.60 
  -1   3  -5  686.95   38.28 
  -1   3  -5  591.83   35.48 
   1  -3   5  599.16   40.53 
   1  -3   5  660.67   35.73 
  -2   3  -5 1067.98   58.91 
  -2   3  -5 1040.65   53.17 
  -2   3  -5 1030.97   54.57 
  -2   3  -5 1047.40   71.97 
  -2   3  -5 1136.09   63.49 
  -2   3  -5 1135.93   42.44 
   2  -3   5 1195.21   62.21 
   2  -3   5 1158.76   55.70 
   2  -3   5 1148.63   69.12 
   2  -3   5 1197.34   48.87 
   2  -3   5 1009.19   54.41 
   2  -3   5 1069.67   47.82 
  -3   3  -5  13.744   1.366 
  -3   3  -5  10.489   1.206 
  -3   3  -5  12.699   1.246 
   3  -3   5  8.5998  0.6430 
   3  -3   5  9.6044  1.6476 
   3  -3   5  11.212   0.723 
   3  -3   5  10.448   1.366 
  -4   3  -5  195.14   10.97 
  -4   3  -5  199.60    8.92 
  -4   3  -5  201.09    9.52 
   4  -3   5  191.37    9.32 
   4  -3   5  203.98   10.21 
   4  -3   5  181.04    9.85 
   4  -3   5  180.92    7.15 
  -5   3  -5  3.4560  1.6074 
  -5   3  -5  8.0774  1.9691 
   5  -3   5  5.0634  0.9243 
   5  -3   5  6.0279  2.4513 
  -6   3  -5  115.61    7.11 
  -6   3  -5  117.46    6.67 
   6  -3   5  110.75    8.20 
  -7   3  -5  -1.366   2.451 
  -7   3  -5  7.0727  3.3354 
   7  -3   5  3.7775  4.7419 
   7  -3   5  1.6074  3.3354 
  -8   3  -5  41.713   5.305 
  -8   3  -5  46.736   5.063 
   8  -3   5  39.945   6.510 
   8  -3   5  33.676   8.278 
   8   2  -5  22.665   9.203 
   8   2  -5  11.172   5.948 
  -8  -2   5  13.422   4.742 
  -8  -2   5  24.071   5.023 
   7   2  -5  15.592   5.465 
   7   2  -5  12.056   4.702 
  -7  -2   5  10.770   3.335 
  -7  -2   5  5.2242  2.6121 
   6   2  -5  85.234   7.434 
   6   2  -5  77.800   5.505 
  -6  -2   5  75.911   3.858 
  -6  -2   5  71.250   4.782 
  -6  -2   5  72.335   5.023 
   5   2  -5  12.337   3.255 
   5   2  -5  3.1345  2.4915 
  -5  -2   5  4.2999  1.7280 
  -5  -2   5  4.3803  1.3261 
  -5  -2   5  5.5858  1.7280 
  -5  -2   5  4.4204  1.4065 
  -5  -2   5  5.8270  1.5271 
   4   2  -5  458.36   19.61 
   4   2  -5  431.44   24.07 
  -4  -2   5  463.74   24.39 
  -4  -2   5  463.06   18.81 
  -4  -2   5  435.61   23.67 
  -4  -2   5  437.83   20.86 
  -4  -2   5  434.09   18.08 
   3   2  -5  1.5672  1.2056 
   3   2  -5  3.0139  1.0850 
   3   2  -5  5.5456  1.6476 
   3   2  -5 -0.2411  1.7280 
  -3  -2   5  2.0093  1.0448 
  -3  -2   5  0.6832  2.0093 
  -3  -2   5  2.4112  0.9243 
  -3  -2   5  1.3663  0.9243 
  -3  -2   5  2.3308  0.8841 
  -3  -2   5  2.3710  0.9243 
   2   2  -5  326.87   13.70 
   2   2  -5  314.86   21.18 
   2   2  -5  325.95   15.31 
   2   2  -5  328.68   15.95 
   2   2  -5  304.69   12.50 
  -2  -2   5  310.88   13.26 
  -2  -2   5  305.73   13.38 
  -2  -2   5  342.95   14.47 
  -2  -2   5  309.59   14.02 
  -2  -2   5  322.09   13.94 
  -2  -2   5  326.63   16.88 
   1   2  -5  579.84   25.24 
   1   2  -5  581.65   22.14 
   1   2  -5  539.46   25.48 
   1   2  -5  567.38   22.50 
   1   2  -5  564.93   26.84 
   1   2  -5  570.84   29.38 
  -1  -2   5  612.67   23.27 
  -1  -2   5  550.63   23.43 
  -1  -2   5  540.50   29.46 
  -1  -2   5  544.40   25.88 
   1   2  -5  524.36   31.95 
   1   2  -5  589.14   34.96 
  -1  -2   5  535.11   29.46 
  -1  -2   5  530.55   30.76 
   0   2  -5 2614.17  105.53 
   0   2  -5 2683.29  114.41 
   0   2  -5 2659.46  161.79 
   0   2  -5 2540.67  137.23 
   0   2  -5 2492.57   90.42 
   0  -2   5 2673.20  139.77 
   0  -2   5 2734.81  106.61 
   0  -2   5 2488.59  148.33 
   0  -2   5 2474.28  109.39 
   0  -2   5 2158.99  126.14 
   0   2  -5 2770.52  162.88 
   0   2  -5 2682.47  153.29 
   0  -2   5 2791.79  142.31 
   0  -2   5 2707.40  149.84 
  -1   2  -5  211.86   10.21 
  -1   2  -5  199.20    9.32 
  -1   2  -5  206.27   11.69 
  -1   2  -5  186.70    9.08 
  -1   2  -5  192.61    8.76 
  -1   2  -5  200.65   10.93 
   1  -2   5  210.41   10.85 
   1  -2   5  199.36   10.21 
   1  -2   5  181.48    7.55 
   1  -2   5  202.86   11.37 
   1  -2   5  202.09   11.69 
  -1   2  -5  181.67   13.72 
   1  -2   5  210.79   14.09 
   1  -2   5  169.55   10.34 
  -2   2  -5 1228.04   70.81 
  -2   2  -5 1199.15   61.36 
  -2   2  -5 1266.26   52.48 
  -2   2  -5 1233.34   75.11 
   2  -2   5 1304.63   65.99 
   2  -2   5 1401.72   58.91 
   2  -2   5 1234.83   68.96 
   2  -2   5 1326.21   65.54 
   2  -2   5 1280.88   76.11 
  -3   2  -5  218.29   11.65 
  -3   2  -5  211.34    8.88 
  -3   2  -5  221.63   11.37 
   3  -2   5  225.32   11.65 
   3  -2   5  227.45   11.37 
  -4   2  -5  312.53   14.91 
  -4   2  -5  306.42   17.16 
   4  -2   5  295.81   11.41 
   4  -2   5  288.05   14.51 
   4  -2   5  276.56   10.89 
   4  -2   5  292.39   15.15 
  -5   2  -5  65.945   4.581 
  -5   2  -5  67.472   3.858 
   5  -2   5  57.305   3.818 
   5  -2   5  59.676   4.541 
  -6   2  -5  93.995   6.390 
  -6   2  -5  85.315   5.988 
   6  -2   5  84.069   7.033 
  -7   2  -5  24.835   4.019 
  -7   2  -5  22.705   2.692 
   7  -2   5  16.155   3.978 
   7  -2   5  18.405   4.702 
  -8   2  -5  9.4437  4.6616 
  -8   2  -5  18.727   4.943 
   8  -2   5  3.4158  7.8764 
   8  -2   5  12.699   6.108 
   8   1  -5  11.855   5.907 
   8   1  -5  -1.246   7.233 
  -8  -1   5  6.7914  3.4962 
  -8  -1   5  11.413   4.461 
   7   1  -5  80.492   8.359 
   7   1  -5  74.826   5.666 
  -7  -1   5  67.874   5.305 
  -7  -1   5  65.503   4.662 
   6   1  -5  87.927   7.394 
   6   1  -5  109.39    7.07 
  -6  -1   5  94.356   5.546 
  -6  -1   5  104.76    5.87 
  -6  -1   5  98.455   4.461 
  -6  -1   5  102.92    4.50 
   5   1  -5  144.39    7.11 
   5   1  -5  146.88    8.28 
  -5  -1   5  137.48    5.87 
  -5  -1   5  131.97    6.15 
  -5  -1   5  137.23    6.39 
  -5  -1   5  134.06    7.60 
   4   1  -5  146.84    8.16 
   4   1  -5  146.40    7.19 
  -4  -1   5  143.06    7.15 
  -4  -1   5  138.96    8.08 
  -4  -1   5  137.92    6.03 
  -4  -1   5  140.33    6.47 
  -4  -1   5  146.20    5.99 
   3   1  -5 1509.42   90.22 
   3   1  -5 1409.56   52.64 
   3   1  -5 1446.61   60.12 
   3   1  -5 1523.00   80.69 
  -3  -1   5 1417.11   54.97 
  -3  -1   5 1506.09   67.95 
  -3  -1   5 1411.69   57.39 
  -3  -1   5 1366.48   58.19 
  -3  -1   5 1526.78   90.86 
  -3  -1   5 1402.08   50.03 
   2   1  -5  4.7821  1.2458 
   2   1  -5  3.9784  0.8037 
   2   1  -5  6.5503  1.3261 
   2   1  -5  2.8934  0.8037 
  -2  -1   5  6.1484  1.3663 
  -2  -1   5  1.4467  1.5271 
  -2  -1   5  4.6616  0.9243 
  -2  -1   5  5.2643  0.7233 
  -2  -1   5  6.2288  0.9243 
   2   1  -5  9.2338  4.8926 
   2   1  -5  5.7837  5.6645 
  -2  -1   5  3.4654  4.8092 
  -2  -1   5  8.4790  4.9315 
   1   1  -5  895.86   36.01 
   1   1  -5  904.66   46.50 
   1   1  -5  883.61   40.31 
   1   1  -5  978.16   62.41 
   1   1  -5  937.17   50.23 
   1   1  -5  871.51   39.62 
  -1  -1   5  902.17   38.22 
  -1  -1   5  895.06   40.11 
  -1  -1   5  885.86   40.87 
  -1  -1   5  914.99   50.79 
  -1  -1   5  884.49   36.49 
   1   1  -5  917.49   53.54 
   1   1  -5  890.56   56.31 
  -1  -1   5  969.77   46.57 
  -1  -1   5  921.66   48.60 
   0   1  -5  38.940   2.250 
   0   1  -5  34.078   1.728 
   0   1  -5  38.096   2.331 
   0   1  -5  33.997   2.532 
   0   1  -5  37.292   2.130 
   0  -1   5  40.105   2.009 
   0  -1   5  37.935   2.210 
   0  -1   5  36.690   2.371 
   0  -1   5  33.716   2.813 
   0  -1   5  40.869   1.969 
   0   1  -5  25.878   4.725 
   0   1  -5  29.698   4.378 
   0  -1   5  30.787   4.567 
   0  -1   5  38.810   5.613 
  -1   1  -5  950.19   42.92 
  -1   1  -5  863.15   43.76 
  -1   1  -5  843.10   39.22 
  -1   1  -5  811.63   35.36 
  -1   1  -5  807.13   40.83 
  -1   1  -5  813.12   33.39 
   1  -1   5  807.98   50.75 
   1  -1   5  757.74   34.20 
   1  -1   5  883.97   36.89 
   1  -1   5  862.15   44.37 
   1  -1   5  845.43   52.76 
  -1   1  -5  928.79   59.26 
  -1   1  -5  938.67   51.10 
   1  -1   5  953.13   64.29 
   1  -1   5  958.56   60.13 
  -2   1  -5  106.61    5.34 
  -2   1  -5  113.89    6.39 
  -2   1  -5  110.55    6.11 
   2  -1   5  114.01    6.07 
   2  -1   5  112.40    7.19 
   2  -1   5  104.60    4.66 
   2  -1   5  121.32    6.83 
   2  -1   5  116.62    5.38 
   2  -1   5  121.48    6.23 
  -3   1  -5  459.20   24.27 
  -3   1  -5  447.39   26.00 
  -3   1  -5  469.61   25.24 
   3  -1   5  442.53   21.26 
   3  -1   5  467.48   18.97 
   3  -1   5  492.56   25.04 
  -4   1  -5  97.210   5.385 
  -4   1  -5  92.829   6.349 
   4  -1   5  86.721   3.777 
   4  -1   5  94.316   5.385 
   4  -1   5  96.125   4.501 
  -5   1  -5  273.51   16.28 
  -5   1  -5  259.72   14.55 
   5  -1   5  242.44   13.90 
   5  -1   5  258.68   17.48 
  -6   1  -5  1.0448  1.9691 
  -6   1  -5  2.7326  2.4112 
   6  -1   5 -0.2009  2.4513 
  -7   1  -5  40.347   3.978 
  -7   1  -5  46.133   4.380 
   7  -1   5  38.779   6.832 
   7  -1   5  41.191   4.943 
  -8   1  -5  3.4962  4.0588 
  -8   1  -5  5.4653  5.0634 
   8  -1   5  13.824   8.158 
   8  -1   5  2.0897  6.0279 
   8   0  -5  14.105   6.992 
   8   0  -5  14.748   5.505 
  -8   0   5  27.447   4.782 
   7   0  -5  283.67   16.48 
   7   0  -5  276.96   19.85 
  -7   0   5  259.64   14.23 
   6   0  -5  4.9429  3.4962 
   6   0  -5  4.6616  2.9738 
  -6   0   5  2.0495  2.0897 
  -6   0   5  4.0990  1.3663 
  -6   0   5  3.6167  1.4869 
  -6   0   5  0.0804  1.4869 
   5   0  -5  101.03    6.43 
   5   0  -5  90.177   5.425 
  -5   0   5  84.953   4.501 
  -5   0   5  97.933   4.702 
   4   0  -5  379.96   18.28 
   4   0  -5  374.89   14.71 
  -4   0   5  359.26   17.28 
  -4   0   5  367.90   13.02 
   3   0  -5  720.33   29.94 
   3   0  -5  768.80   40.59 
   3   0  -5  814.89   39.14 
   3   0  -5  723.31   27.57 
   3   0  -5  772.77   48.10 
  -3   0   5  739.42   30.70 
  -3   0   5  781.70   40.03 
  -3   0   5  676.61   24.79 
   2   0  -5  924.84   51.68 
   2   0  -5  828.71   37.94 
   2   0  -5  862.83   33.52 
   2   0  -5  877.90   40.39 
   2   0  -5  937.46   38.62 
   2   0  -5  825.82   32.39 
  -2   0   5  819.39   32.19 
  -2   0   5  732.71   34.96 
  -2   0   5  849.17   32.71 
  -2   0   5  846.11   40.83 
  -2   0   5  818.26   32.23 
   2   0  -5  871.32   48.34 
   2   0  -5  855.12   49.73 
  -2   0   5  863.23   48.77 
  -2   0   5  877.46   45.39 
   1   0  -5  406.60   16.84 
   1   0  -5  410.82   20.70 
   1   0  -5  410.42   21.66 
   1   0  -5  391.37   17.08 
   1   0  -5  377.55   14.59 
   1   0  -5  418.62   20.29 
   1   0  -5  363.92   16.52 
  -1   0   5  364.77   16.28 
  -1   0   5  381.36   15.99 
  -1   0   5  389.08   15.15 
  -1   0   5  404.91   19.89 
   1   0  -5  387.14   24.18 
   1   0  -5  393.64   25.15 
  -1   0   5  395.05   23.80 
  -1   0   5  369.44   20.55 
   0   0  -5  835.79   39.82 
   0   0  -5  750.07   35.16 
   0   0  -5  709.20   33.47 
   0   0  -5  874.73   43.96 
   0   0  -5  744.80   30.62 
   0   0   5  792.10   33.92 
   0   0   5  837.23   43.56 
   0   0   5  742.59   47.98 
   0   0   5  803.84   32.67 
   0   0   5  828.35   35.16 
   0   0  -5  904.53   46.35 
   0   0  -5  837.43   48.59 
   0   0   5  823.62   51.34 
   0   0   5  803.70   52.15 
  -1   0  -5  401.66   19.33 
  -1   0  -5  370.51   17.08 
  -1   0  -5  377.18   16.84 
  -1   0  -5  356.73   15.43 
  -1   0  -5  362.28   18.04 
  -1   0  -5  353.43   17.36 
   1   0   5  368.54   21.86 
   1   0   5  371.80   14.43 
   1   0   5  381.04   17.96 
   1   0   5  352.11   14.43 
   1   0   5  394.30   24.39 
  -1   0  -5  404.81   25.60 
  -1   0  -5  395.64   27.59 
   1   0   5  391.68   24.39 
   1   0   5  379.06   25.59 
  -2   0  -5  332.26   16.36 
  -2   0  -5  344.88   17.56 
  -2   0  -5  334.27   19.01 
   2   0   5  351.63   15.59 
   2   0   5  366.25   17.12 
   2   0   5  367.30   20.53 
   2   0   5  355.64   18.85 
   2   0   5  344.55   22.58 
   2   0   5  325.02   13.06 
  -3   0  -5  43.682   2.652 
  -3   0  -5  43.079   2.733 
   3   0   5  39.945   2.813 
   3   0   5  37.373   2.934 
   3   0   5  39.945   1.648 
   3   0   5  42.235   1.889 
  -4   0  -5  220.14   12.06 
  -4   0  -5  218.13   10.65 
   4   0   5  220.86   12.34 
   4   0   5  231.07   10.97 
   4   0   5  207.28    9.72 
  -5   0  -5  109.75    7.31 
  -5   0  -5  107.10    6.67 
   5   0   5  115.01    8.00 
  -6   0  -5  107.26    6.27 
  -6   0  -5  96.486   6.671 
   6   0   5  106.57    7.76 
  -7   0  -5  -1.085   2.893 
  -7   0  -5  -2.090   3.496 
   7   0   5  -1.005   5.787 
   7   0   5  0.6832  3.7373 
   8  -1  -5  38.177   7.555 
   8  -1  -5  48.464   6.631 
  -8   1   5  45.571   5.184 
   7  -1  -5  40.628   5.706 
   7  -1  -5  43.803   4.420 
  -7   1   5  42.195   3.657 
   6  -1  -5  240.83   11.85 
   6  -1  -5  232.15   15.71 
  -6   1   5  234.56   10.73 
  -6   1   5  225.12   12.46 
  -6   1   5  240.27   10.49 
   5  -1  -5  0.4420  2.6523 
   5  -1  -5  1.5672  2.0093 
  -5   1   5  -1.206   1.165 
  -5   1   5  0.6832  1.0046 
  -5   1   5 -0.9243  1.6476 
   4  -1  -5  575.82   25.52 
   4  -1  -5  628.31   28.97 
   4  -1  -5  580.40   24.27 
  -4   1   5  559.55   26.84 
  -4   1   5  547.93   20.25 
   3  -1  -5  254.66    9.72 
   3  -1  -5  268.40   15.83 
   3  -1  -5  239.03   11.25 
   3  -1  -5  262.05   13.62 
   3  -1  -5  272.86   15.11 
   3  -1  -5  281.58   11.94 
  -3   1   5  251.00    8.64 
  -3   1   5  258.15   11.81 
  -3   1   5  255.22   12.90 
   2  -1  -5  469.09   17.44 
   2  -1  -5  474.60   21.18 
   2  -1  -5  511.81   19.69 
   2  -1  -5  494.53   22.02 
   2  -1  -5  509.20   22.34 
   2  -1  -5  450.64   20.09 
  -2   1   5  481.07   17.52 
  -2   1   5  470.01   18.49 
  -2   1   5  451.25   19.61 
  -2   1   5  449.12   19.21 
   2  -1  -5  492.92   27.82 
   2  -1  -5  499.97   27.61 
  -2   1   5  492.92   26.73 
  -2   1   5  485.50   28.59 
   1  -1  -5  584.70   19.85 
   1  -1  -5  519.40   21.34 
   1  -1  -5  543.39   24.79 
   1  -1  -5  528.56   24.71 
   1  -1  -5  606.20   29.34 
  -1   1   5  511.32   20.78 
  -1   1   5  553.36   22.54 
  -1   1   5  531.14   26.88 
  -1   1   5  511.65   23.99 
   1  -1  -5  542.09   30.77 
   1  -1  -5  587.94   31.51 
  -1   1   5  549.12   30.77 
  -1   1   5  569.82   32.81 
   0  -1  -5  649.00   30.58 
   0  -1  -5  657.68   36.69 
   0  -1  -5  671.59   33.68 
   0  -1  -5  676.53   27.21 
   0  -1  -5  708.80   28.41 
   0   1   5  706.19   31.02 
   0   1   5  676.45   33.60 
   0   1   5  697.63   29.09 
   0   1   5  722.06   39.46 
   0   1   5  679.70   42.76 
   0  -1  -5  716.16   43.04 
   0  -1  -5  753.46   39.49 
   0   1   5  732.68   46.66 
   0   1   5  727.02   49.81 
  -1  -1  -5  680.19   31.06 
  -1  -1  -5  655.43   30.62 
  -1  -1  -5  615.89   29.78 
  -1  -1  -5  655.55   34.44 
  -1  -1  -5  648.08   31.71 
  -1  -1  -5  645.10   28.41 
   1   1   5  684.24   43.76 
   1   1   5  661.70   26.36 
   1   1   5  662.54   31.99 
   1   1   5  605.28   39.14 
   1   1   5  651.81   27.37 
  -1  -1  -5  693.07   42.06 
  -1  -1  -5  655.65   40.98 
   1   1   5  699.66   53.74 
   1   1   5  676.30   41.61 
  -2  -1  -5  401.30   21.70 
  -2  -1  -5  404.47   20.21 
  -2  -1  -5  373.21   21.62 
  -2  -1  -5  407.16   17.60 
   2   1   5  437.22   16.64 
   2   1   5  451.65   26.20 
   2   1   5  454.14   25.56 
   2   1   5  449.00   27.33 
   2   1   5  430.27   15.59 
   2   1   5  423.64   24.47 
  -3  -1  -5  21.941   2.170 
  -3  -1  -5  27.166   1.487 
   3   1   5  22.544   1.607 
   3   1   5  26.241   1.527 
   3   1   5  24.955   2.612 
  -4  -1  -5  33.153   2.532 
  -4  -1  -5  26.764   1.929 
  -4  -1  -5  30.139   2.291 
   4   1   5  22.625   2.813 
   4   1   5  28.572   1.808 
   4   1   5  22.343   1.969 
   4   1   5  25.719   1.648 
  -5  -1  -5  330.09   14.19 
  -5  -1  -5  328.20   15.47 
   5   1   5  321.37   20.05 
  -6  -1  -5  79.166   5.747 
  -6  -1  -5  78.604   5.787 
   6   1   5  79.046   6.952 
  -7  -1  -5  35.966   4.621 
  -7  -1  -5  32.631   4.983 
   7   1   5  30.059   5.144 
   7   1   5  26.442   6.952 
   8  -2  -5  13.784   6.751 
   8  -2  -5  2.9738  4.0990 
  -8   2   5  0.1607  3.4158 
   7  -2  -5  92.870   6.590 
   7  -2  -5  112.56    9.85 
  -7   2   5  98.938   6.711 
   6  -2  -5  103.36    7.39 
   6  -2  -5  95.843   5.546 
  -6   2   5  93.593   5.505 
  -6   2   5  100.18    4.82 
  -6   2   5  98.415   4.621 
   5  -2  -5  419.42   19.89 
   5  -2  -5  422.67   22.91 
   5  -2  -5  430.43   19.69 
  -5   2   5  431.23   22.26 
  -5   2   5  426.25   18.61 
  -5   2   5  427.74   16.52 
   4  -2  -5  7.7157  2.3308 
   4  -2  -5  9.2427  1.5271 
   4  -2  -5  10.529   1.447 
  -4   2   5  10.368   1.407 
  -4   2   5  9.5642  1.2458 
  -4   2   5  11.172   1.567 
   3  -2  -5  541.46   29.26 
   3  -2  -5  577.75   29.38 
   3  -2  -5  507.71   20.29 
   3  -2  -5  549.98   27.33 
   3  -2  -5  515.95   22.66 
  -3   2   5  546.89   30.26 
  -3   2   5  511.77   19.01 
  -3   2   5  520.21   20.86 
   2  -2  -5  93.191   3.938 
   2  -2  -5  84.712   4.541 
   2  -2  -5  84.993   3.456 
   2  -2  -5  90.659   4.300 
   2  -2  -5  93.271   4.420 
  -2   2   5  84.149   4.420 
  -2   2   5  80.573   3.496 
  -2   2   5  82.301   3.657 
   2  -2  -5  88.518   7.709 
   2  -2  -5  63.668   6.761 
  -2   2   5  82.930   7.758 
  -2   2   5  82.130   7.803 
   1  -2  -5  747.26   37.94 
   1  -2  -5  676.81   29.09 
   1  -2  -5  778.64   24.35 
   1  -2  -5  676.65   27.17 
   1  -2  -5  687.46   32.51 
  -1   2   5  690.55   33.39 
  -1   2   5  688.83   25.76 
  -1   2   5  699.64   37.25 
  -1   2   5  686.50   30.38 
   1  -2  -5  761.15   39.73 
   1  -2  -5  714.32   40.41 
  -1   2   5  744.11   41.49 
  -1   2   5  743.31   47.52 
   0  -2  -5  13.703   1.045 
   0  -2  -5  11.051   0.683 
   0  -2  -5  13.462   1.728 
   0  -2  -5  12.618   1.407 
   0  -2  -5  13.744   1.326 
   0   2   5  12.458   1.808 
   0   2   5  11.935   0.804 
   0   2   5  9.5240  1.3261 
   0   2   5  12.699   1.005 
   0   2   5  10.890   1.125 
   0  -2  -5  18.277   5.244 
   0  -2  -5  5.3975  4.5865 
   0   2   5  11.157   4.623 
   0   2   5  10.878   3.899 
  -1  -2  -5  965.06   36.37 
  -1  -2  -5 1029.00   49.11 
  -1  -2  -5 1016.34   57.39 
  -1  -2  -5  957.31   45.41 
   1   2   5 1015.38   44.24 
   1   2   5  969.64   52.56 
   1   2   5 1056.89   66.03 
   1   2   5 1033.10   42.20 
   1   2   5  923.87   59.48 
  -2  -2  -5  1.8887  1.0448 
  -2  -2  -5  1.7682  0.8037 
  -2  -2  -5  0.2813  1.0046 
   2   2   5  2.4112  0.9243 
   2   2   5  5.5456  2.2102 
   2   2   5  0.3617  0.8037 
   2   2   5  0.8841  1.0850 
   2   2   5  1.0046  0.8841 
   2   2   5  1.9289  1.3261 
  -3  -2  -5  276.20   16.07 
  -3  -2  -5  285.56   11.73 
  -3  -2  -5  281.78   15.27 
   3   2   5  264.06   14.55 
   3   2   5  276.00   14.19 
   3   2   5  299.34   17.12 
   3   2   5  291.91   16.03 
  -4  -2  -5  76.434   4.340 
  -4  -2  -5  67.070   3.858 
  -4  -2  -5  64.297   3.416 
   4   2   5  62.529   3.054 
   4   2   5  58.832   3.496 
   4   2   5  63.172   3.416 
   4   2   5  59.274   4.420 
  -5  -2  -5  107.86    6.39 
  -5  -2  -5  110.35    6.27 
  -5  -2  -5  112.96    5.99 
   5   2   5  111.11    8.52 
  -6  -2  -5  2.8532  2.6121 
  -6  -2  -5  0.5626  2.6925 
   6   2   5  1.1252  3.5364 
   6   2   5  -3.376   4.541 
  -7  -2  -5  20.897   4.139 
  -7  -2  -5  17.159   4.019 
   7   2   5  14.145   6.470 
   7   2   5  20.696   4.983 
   8  -3  -5  22.504   6.711 
   8  -3  -5  22.263   5.626 
  -8   3   5  24.112   4.260 
   7  -3  -5  56.140   4.862 
   7  -3  -5  49.991   7.153 
  -7   3   5  59.596   3.536 
  -7   3   5  51.277   3.737 
  -7   3   5  51.317   4.662 
   6  -3  -5  193.54   13.10 
   6  -3  -5  173.08    8.76 
  -6   3   5  175.37    7.92 
  -6   3   5  184.77   10.01 
  -6   3   5  186.06    8.04 
   5  -3  -5  96.125   6.992 
   5  -3  -5  104.24    5.47 
  -5   3   5  103.28    4.86 
  -5   3   5  104.12    5.59 
  -5   3   5  103.80    5.02 
   4  -3  -5  725.92   29.86 
   4  -3  -5  711.29   34.08 
   4  -3  -5  755.29   29.74 
  -4   3   5  718.00   29.17 
  -4   3   5  728.37   35.36 
  -4   3   5  707.55   29.38 
   3  -3  -5  92.267   4.179 
   3  -3  -5  88.650   4.702 
   3  -3  -5  86.078   3.697 
   3  -3  -5  84.431   4.461 
  -3   3   5  84.390   4.019 
  -3   3   5  87.203   3.777 
   2  -3  -5 1822.47   89.29 
   2  -3  -5 1778.63   65.50 
   2  -3  -5 1802.18   59.48 
   2  -3  -5 1809.93   72.58 
   2  -3  -5 1857.51   82.98 
   2  -3  -5 1944.67   77.28 
  -2   3   5 1771.92   80.29 
  -2   3   5 1688.85   79.89 
  -2   3   5 1721.92   83.51 
  -2   3   5 1854.86   78.36 
   1  -3  -5  364.61   15.51 
   1  -3  -5  330.01   11.21 
   1  -3  -5  358.70   17.68 
   1  -3  -5  381.32   12.86 
  -1   3   5  345.20   11.37 
  -1   3   5  342.34   17.60 
  -1   3   5  354.84   20.09 
  -1   3   5  367.14   17.60 
  -1   3   5  357.05   22.26 
   1  -3  -5  410.15   22.80 
   1  -3  -5  358.29   24.29 
  -1   3   5  356.60   23.46 
  -1   3   5  375.59   25.56 
   0  -3  -5  54.653   3.456 
   0  -3  -5  56.260   2.652 
   0  -3  -5  59.435   3.094 
   0  -3  -5  55.336   3.054 
   0   3   5  56.823   2.170 
   0   3   5  55.296   4.340 
   0   3   5  58.551   3.777 
   0   3   5  54.773   3.134 
   0   3   5  52.844   3.376 
   0   3   5  56.863   2.492 
  -1  -3  -5  137.92    7.03 
  -1  -3  -5  151.46    7.39 
  -1  -3  -5  154.72    6.75 
  -1  -3  -5  148.13    8.92 
   1   3   5  168.70    8.96 
   1   3   5  151.62    5.67 
   1   3   5  152.30    8.00 
   1   3   5  157.21    8.60 
   1   3   5  147.76    9.24 
  -2  -3  -5  470.94   20.66 
  -2  -3  -5  424.97   23.83 
  -2  -3  -5  439.11   22.46 
   2   3   5  413.67   22.58 
   2   3   5  471.18   28.89 
   2   3   5  472.67   23.07 
   2   3   5  405.72   24.67 
   2   3   5  431.19   24.31 
   2   3   5  457.36   23.91 
  -3  -3  -5  10.569   1.407 
  -3  -3  -5  9.0016  1.3663 
  -3  -3  -5  7.7559  1.5672 
   3   3   5  7.4344  1.6878 
   3   3   5  7.5951  1.1252 
   3   3   5  11.252   1.246 
   3   3   5  13.824   2.291 
  -4  -3  -5  79.729   5.104 
  -4  -3  -5  87.605   4.943 
   4   3   5  82.421   4.139 
   4   3   5  78.162   3.818 
   4   3   5  90.257   6.470 
  -5  -3  -5  4.8625  2.8934 
  -5  -3  -5  3.2551  2.8130 
  -5  -3  -5  1.2056  1.7682 
   5   3   5  -1.125   2.893 
  -6  -3  -5  20.495   4.059 
  -6  -3  -5  31.586   3.777 
   6   3   5  25.237   4.581 
   6   3   5  22.343   5.626 
  -7  -3  -5  0.2813  3.8980 
  -7  -3  -5  -1.728   4.822 
   7   3   5  3.2551  6.9923 
   7   3   5  6.5503  5.0634 
   8  -4  -5  53.005   6.510 
   8  -4  -5  55.175   8.439 
  -8   4   5  60.440   5.827 
   7  -4  -5  -2.692   4.621 
  -7   4   5  3.8177  2.4112 
  -7   4   5  0.9645  2.4112 
  -7   4   5  1.2056  2.3308 
   6  -4  -5  110.95    8.00 
  -6   4   5  116.30    6.87 
  -6   4   5  114.57    5.95 
  -6   4   5  111.31    5.59 
   5  -4  -5  21.700   3.416 
   5  -4  -5  19.169   2.331 
  -5   4   5  20.736   2.009 
  -5   4   5  23.991   2.250 
  -5   4   5  21.700   2.170 
   4  -4  -5  333.26   18.85 
   4  -4  -5  355.08   21.06 
   4  -4  -5  344.23   16.07 
   4  -4  -5  326.43   15.47 
  -4   4   5  329.36   14.75 
  -4   4   5  342.46   14.11 
   3  -4  -5  183.45    8.80 
   3  -4  -5  175.81    6.91 
   3  -4  -5  179.71    7.35 
   3  -4  -5  192.97    9.12 
  -3   4   5  186.74    8.12 
  -3   4   5  178.22    7.11 
   2  -4  -5  370.15   16.03 
   2  -4  -5  397.44   20.17 
  -2   4   5  392.94   17.84 
  -2   4   5  354.68   18.81 
  -2   4   5  377.39   18.32 
  -2   4   5  359.82   19.09 
   1  -4  -5  6.6307  1.2458 
   1  -4  -5  3.5765  1.2458 
   1  -4  -5  3.2551  1.9289 
   1  -4  -5  2.5317  1.2056 
  -1   4   5  3.8578  1.0046 
  -1   4   5  4.8223  1.2056 
  -1   4   5  2.7326  1.2458 
  -1   4   5  5.2242  1.5672 
   0  -4  -5  483.36   27.05 
   0  -4  -5  507.79   32.15 
   0  -4  -5  431.96   19.97 
   0  -4  -5  518.52   20.37 
   0   4   5  450.04   24.59 
   0   4   5  486.33   33.35 
   0   4   5  466.44   16.96 
   0   4   5  477.61   29.50 
   0   4   5  433.16   28.41 
   0   4   5  470.42   16.36 
  -1  -4  -5  136.11    5.83 
  -1  -4  -5  116.90    6.15 
  -1  -4  -5  128.03    8.44 
   1   4   5  123.77    7.31 
   1   4   5  132.37    9.16 
   1   4   5  125.46    6.27 
   1   4   5  117.14    6.71 
   1   4   5  120.92    6.71 
   1   4   5  133.34    5.51 
  -2  -4  -5  464.55   20.45 
  -2  -4  -5  433.28   21.14 
  -2  -4  -5  413.43   24.47 
   2   4   5  467.72   28.41 
   2   4   5  453.02   28.81 
   2   4   5  443.13   25.56 
   2   4   5  432.48   22.50 
   2   4   5  405.03   27.17 
   2   4   5  463.87   25.16 
  -3  -4  -5  215.60    8.84 
  -3  -4  -5  211.34   10.37 
  -3  -4  -5  208.89   10.25 
   3   4   5  197.03   10.21 
   3   4   5  198.00   10.61 
   3   4   5  205.31   13.14 
  -4  -4  -5  10.489   1.808 
  -4  -4  -5  10.569   1.969 
   4   4   5  5.4251  1.4065 
   4   4   5  9.7652  2.6925 
   4   4   5  5.7466  1.4467 
  -5  -4  -5  22.785   2.813 
  -5  -4  -5  23.750   2.692 
  -5  -4  -5  14.226   2.893 
   5   4   5  16.516   3.697 
  -6  -4  -5  19.008   3.697 
  -6  -4  -5  27.487   4.380 
   6   4   5  17.200   4.380 
   6   4   5  24.996   5.626 
   8  -5  -5 -0.9645  5.8671 
  -8   5   5  -4.420   3.818 
   7  -5  -5  144.83   10.97 
  -7   5   5  152.26    9.12 
  -7   5   5  162.11    8.40 
  -7   5   5  140.33    7.92 
   6  -5  -5  5.9073  3.8980 
  -6   5   5  8.0372  2.6523 
  -6   5   5  13.623   2.612 
  -6   5   5  14.547   2.371 
   5  -5  -5  179.47    7.92 
   5  -5  -5  188.03   11.57 
   5  -5  -5  184.17   14.27 
  -5   5   5  192.17   10.69 
  -5   5   5  187.07    8.20 
   4  -5  -5  37.132   2.492 
   4  -5  -5  38.860   2.049 
   4  -5  -5  41.592   2.813 
   4  -5  -5  40.748   3.978 
  -4   5   5  42.316   2.652 
  -4   5   5  44.767   2.813 
   3  -5  -5  231.03    8.08 
   3  -5  -5  229.90    7.88 
   3  -5  -5  235.09    8.36 
   3  -5  -5  255.14   11.73 
   3  -5  -5  246.58   14.27 
  -3   5   5  233.84   10.85 
  -3   5   5  231.55   10.89 
   2  -5  -5  48.143   3.134 
   2  -5  -5  50.232   3.215 
  -2   5   5  40.025   3.054 
  -2   5   5  46.817   3.657 
  -2   5   5  39.020   2.853 
  -2   5   5  44.204   2.652 
   1  -5  -5 1100.05   50.63 
   1  -5  -5 1104.83   66.03 
   1  -5  -5 1053.47   61.20 
  -1   5   5 1041.50   60.56 
  -1   5   5 1035.43   66.79 
  -1   5   5 1069.83   66.47 
  -1   5   5 1088.96   51.96 
   0  -5  -5  50.915   3.335 
   0  -5  -5  56.662   4.139 
   0  -5  -5  61.203   3.657 
   0   5   5  59.676   3.376 
   0   5   5  52.643   3.617 
   0   5   5  54.371   3.978 
   0   5   5  54.452   2.090 
   0   5   5  47.660   2.411 
   0   5   5  50.232   3.657 
  -1  -5  -5  267.56   15.59 
  -1  -5  -5  265.31   15.75 
   1   5   5  267.92    9.81 
   1   5   5  263.22   18.00 
   1   5   5  241.96   19.93 
   1   5   5  255.18   15.35 
   1   5   5  270.29   12.98 
   1   5   5  213.67   13.42 
  -2  -5  -5  0.8037  1.6878 
  -2  -5  -5  1.8485  1.4467 
   2   5   5  1.7682  1.2458 
   2   5   5  4.8625  3.3756 
   2   5   5 -0.0804  1.4869 
   2   5   5  0.4019  1.6074 
   2   5   5 -0.3617  1.9289 
  -3  -5  -5  179.63    9.16 
  -3  -5  -5  190.68    9.85 
   3   5   5  178.14    9.93 
   3   5   5  197.23   12.78 
   3   5   5  178.30    8.64 
  -4  -5  -5  9.6044  2.2102 
  -4  -5  -5  7.4344  2.2102 
   4   5   5  10.046   3.094 
  -5  -5  -5  64.619   4.943 
  -5  -5  -5  65.463   4.903 
  -5  -5  -5  60.118   4.501 
   5   5   5  65.141   6.912 
   5   5   5  65.302   6.229 
  -6  -5  -5 -0.2411  3.2551 
  -6  -5  -5  -11.29    5.75 
   6   5   5  0.0804  5.0634 
   6   5   5  -3.577   5.023 
   8  -6  -5  10.087   6.148 
  -8   6   5  2.4915  3.8980 
   7  -6  -5  22.384   5.867 
  -7   6   5  27.849   3.175 
  -7   6   5  22.826   2.934 
  -7   6   5  31.224   3.617 
   6  -6  -5  39.663   5.023 
  -6   6   5  36.328   3.094 
  -6   6   5  39.985   3.416 
   5  -6  -5  72.897   5.465 
   5  -6  -5  62.811   4.099 
  -5   6   5  70.687   4.501 
  -5   6   5  65.061   3.938 
   4  -6  -5  53.286   2.773 
   4  -6  -5  56.220   2.692 
   4  -6  -5  51.840   3.737 
   4  -6  -5  51.679   2.572 
   4  -6  -5  59.877   4.260 
  -4   6   5  59.234   4.019 
  -4   6   5  61.605   4.099 
   3  -6  -5  105.81    5.99 
   3  -6  -5  88.650   5.747 
   3  -6  -5  89.614   5.425 
  -3   6   5  87.766   4.862 
  -3   6   5  87.967   4.903 
   2  -6  -5  160.70    8.92 
   2  -6  -5  187.67    8.84 
   2  -6  -5  162.95    9.28 
  -2   6   5  150.78    6.95 
  -2   6   5  144.43    9.48 
  -2   6   5  157.93    8.92 
   1  -6  -5  28.974   2.411 
   1  -6  -5  26.322   2.692 
  -1   6   5  32.551   2.934 
  -1   6   5  28.010   2.090 
  -1   6   5  29.938   2.853 
  -1   6   5  27.206   2.532 
   0  -6  -5  172.44   10.17 
   0  -6  -5  190.56   10.65 
   0  -6  -5  187.75   10.01 
   0   6   5  188.59    8.48 
   0   6   5  180.19   13.86 
   0   6   5  176.86   10.25 
   0   6   5  183.29    7.03 
   0   6   5  171.35   11.73 
   0   6   5  185.22    6.91 
  -1  -6  -5  1.2458  2.0093 
  -1  -6  -5 -0.1607  1.4869 
   1   6   5  2.4112  2.0495 
   1   6   5  1.3663  1.4065 
   1   6   5  1.4467  1.1654 
   1   6   5  1.5271  2.2504 
   1   6   5  1.7682  1.1654 
   1   6   5 -0.3617  1.3261 
  -2  -6  -5  21.620   2.451 
  -2  -6  -5  25.598   2.733 
   2   6   5  22.424   2.291 
   2   6   5  23.911   2.130 
   2   6   5  30.863   3.215 
  -3  -6  -5  134.74    7.23 
  -3  -6  -5  113.53    7.23 
   3   6   5  120.16    7.27 
   3   6   5  120.72    9.60 
   3   6   5  116.30    6.83 
  -4  -6  -5  47.058   3.818 
  -4  -6  -5  42.919   4.300 
   4   6   5  49.911   5.144 
  -5  -6  -5  -1.688   2.692 
  -5  -6  -5  3.1747  3.6971 
  -5  -6  -5  2.7728  3.2149 
   5   6   5  2.5317  4.0588 
   5   6   5  4.7821  4.9027 
   8  -7  -5  64.860   8.640 
   7  -7  -5  -1.085   4.501 
  -7   7   5  -5.425   3.134 
  -7   7   5  2.3710  3.0943 
   6  -7  -5  26.040   4.541 
  -6   7   5  25.357   3.134 
  -6   7   5  31.466   3.255 
   5  -7  -5  3.6167  3.2551 
   5  -7  -5  3.4158  2.5719 
  -5   7   5  4.1391  2.3308 
  -5   7   5  1.8887  2.0897 
   4  -7  -5  14.186   2.250 
   4  -7  -5  15.190   3.134 
  -4   7   5  19.530   2.291 
  -4   7   5  18.285   2.532 
   3  -7  -5  36.529   2.934 
   3  -7  -5  36.288   3.295 
  -3   7   5  35.725   2.934 
  -3   7   5  30.863   2.853 
   2  -7  -5  67.191   4.501 
   2  -7  -5  74.183   4.822 
  -2   7   5  75.590   4.501 
  -2   7   5  63.614   5.505 
  -2   7   5  69.843   4.621 
   1  -7  -5  17.200   2.210 
   1  -7  -5  17.240   2.130 
  -1   7   5  18.646   2.009 
  -1   7   5  15.150   2.009 
  -1   7   5  18.928   2.532 
  -1   7   5  18.003   2.451 
   0  -7  -5  1.8887  1.7280 
   0  -7  -5  0.0402  0.8841 
   0  -7  -5  0.8037  1.8887 
   0   7   5  1.7682  2.2102 
   0   7   5 -0.4822  1.4869 
   0   7   5  2.2504  1.8485 
   0   7   5 -0.4822  1.9289 
   0   7   5  2.8532  1.2458 
   0   7   5  1.8887  0.9645 
  -1  -7  -5  102.67    7.31 
  -1  -7  -5  113.36    7.31 
   1   7   5  120.84    7.76 
   1   7   5  104.56    4.86 
   1   7   5  102.59    6.35 
   1   7   5  102.55    5.34 
   1   7   5  92.870   6.912 
  -2  -7  -5  54.050   4.420 
  -2  -7  -5  60.399   4.822 
   2   7   5  61.444   4.179 
   2   7   5  68.356   5.948 
   2   7   5  66.387   4.260 
   2   7   5  67.110   3.818 
  -3  -7  -5  4.3803  2.5719 
  -3  -7  -5  1.4467  2.6523 
   3   7   5  0.5626  2.7326 
   3   7   5  6.2690  3.5364 
   3   7   5  1.6074  1.7280 
   3   7   5  1.0448  1.9691 
  -4  -7  -5  26.442   3.898 
  -4  -7  -5  14.427   3.818 
   4   7   5  24.393   3.938 
   4   7   5  22.384   4.983 
  -5  -7  -5  16.476   4.139 
  -5  -7  -5  24.996   4.380 
   5   7   5  38.458   6.671 
   5   7   5  27.447   5.586 
   7  -8  -5  2.9738  5.1036 
   7  -8  -5  5.3849  3.9382 
  -7   8   5  3.1345  3.7775 
  -7   8   5  1.6878  3.8578 
   6  -8  -5  9.8455  3.6167 
   6  -8  -5  16.396   4.702 
  -6   8   5  11.453   3.094 
  -6   8   5  18.445   3.376 
   5  -8  -5  68.637   6.068 
   5  -8  -5  79.648   6.430 
  -5   8   5  68.557   4.983 
  -5   8   5  73.902   4.943 
   4  -8  -5  1.3663  2.8130 
   4  -8  -5  3.8177  2.1700 
  -4   8   5  4.0186  2.2906 
  -4   8   5  1.0850  2.2102 
   3  -8  -5  105.17    8.16 
   3  -8  -5  104.40    6.63 
  -3   8   5  93.432   6.108 
  -3   8   5  103.48    5.59 
   2  -8  -5  14.467   2.773 
   2  -8  -5  12.739   2.291 
  -2   8   5  13.261   2.170 
  -2   8   5  8.9614  2.3710 
  -2   8   5  13.261   3.295 
   1  -8  -5  40.427   4.019 
   1  -8  -5  33.997   2.974 
  -1   8   5  31.305   3.697 
  -1   8   5  33.957   3.014 
  -1   8   5  33.194   3.175 
   0  -8  -5  1.0046  2.0897 
   0  -8  -5  0.0000  2.2102 
   0   8   5  2.2102  2.4915 
   0   8   5  1.4467  2.8130 
   0   8   5  3.0541  1.3663 
   0   8   5 -0.8841  2.1299 
   0   8   5  2.9738  1.9289 
  -1  -8  -5  54.010   4.099 
  -1  -8  -5  48.424   4.300 
   1   8   5  51.157   3.617 
   1   8   5  54.653   3.536 
   1   8   5  48.987   3.496 
   1   8   5  54.572   5.345 
  -2  -8  -5  3.1747  2.8130 
  -2  -8  -5  4.4606  2.4112 
   2   8   5  3.4158  2.2906 
   2   8   5 -0.6832  3.1747 
   2   8   5  1.4869  2.1700 
   2   8   5  1.4065  2.0897 
  -3  -8  -5  47.620   4.220 
  -3  -8  -5  53.568   4.420 
   3   8   5  45.691   5.747 
   3   8   5  51.840   5.144 
   3   8   5  38.940   4.059 
  -4  -8  -5  0.0804  3.3354 
  -4  -8  -5  6.3092  3.0943 
   4   8   5  4.7821  4.8223 
   4   8   5 -0.1206  4.5410 
   7  -9  -5  38.538   6.108 
   7  -9  -5  48.665   7.354 
  -7   9   5  43.320   5.586 
  -7   9   5  47.339   5.104 
   6  -9  -5  1.6878  4.6214 
   6  -9  -5  10.810   4.019 
  -6   9   5  7.4746  3.2149 
  -6   9   5  11.453   3.617 
   5  -9  -5  32.952   4.702 
   5  -9  -5  33.354   4.702 
  -5   9   5  24.795   3.777 
  -5   9   5  29.858   3.496 
   4  -9  -5  6.4297  3.2149 
   4  -9  -5  10.247   3.456 
  -4   9   5  8.3185  2.9336 
  -4   9   5  10.971   2.934 
   3  -9  -5  346.56   20.33 
   3  -9  -5  312.57   20.33 
  -3   9   5  307.70   16.88 
  -3   9   5  314.82   17.96 
   2  -9  -5  93.312   7.434 
   2  -9  -5  96.285   7.113 
  -2   9   5  104.93    6.19 
  -2   9   5  106.81    5.83 
  -1   9   5  20.374   3.175 
  -1   9   5  17.119   2.572 
   0  -9  -5  8.4792  2.8532 
   0  -9  -5  10.569   2.893 
   0   9   5  6.5905  2.5719 
   0   9   5  6.4297  2.2504 
  -1  -9  -5  18.003   3.175 
  -1  -9  -5  17.802   2.692 
   1   9   5  20.856   3.014 
   1   9   5  15.431   3.657 
   1   9   5  21.098   2.773 
  -2  -9  -5  77.760   6.148 
  -2  -9  -5  76.755   6.390 
   2   9   5  71.852   7.957 
   2   9   5  74.304   5.907 
   2   9   5  67.271   5.104 
  -3  -9  -5  3.4962  3.5765 
  -3  -9  -5  -3.295   3.376 
   3   9   5  -3.054   4.782 
  -4  -9  -5  19.691   4.782 
  -4  -9  -5  12.417   4.742 
   4   9   5  23.911   6.390 
   7 -10  -5  0.6430  6.6307 
   7 -10  -5  6.3092  4.3401 
  -7  10   5  5.0232  4.2999 
  -7  10   5  3.0943  4.5812 
   6 -10  -5  18.043   5.144 
   6 -10  -5  21.098   5.345 
  -6  10   5  20.937   4.139 
  -6  10   5  9.0418  4.2999 
   5 -10  -5  4.8223  2.7326 
   5 -10  -5  3.4560  4.0990 
  -5  10   5  7.9970  3.4158 
  -5  10   5  7.3138  3.6971 
   4 -10  -5  15.713   3.617 
  -4  10   5  13.663   3.777 
  -4  10   5  17.762   3.255 
   3 -10  -5  17.762   3.295 
  -3  10   5  19.972   3.376 
  -3  10   5  21.499   3.295 
   2 -10  -5  15.994   3.657 
  -2  10   5  15.070   2.813 
  -2  10   5  12.217   3.134 
   1 -10  -5  15.552   3.376 
   1 -10  -5  11.131   3.456 
  -1  10   5  9.3633  2.6925 
  -1  10   5  10.288   3.014 
   0 -10  -5  23.147   3.295 
   0 -10  -5  24.875   4.099 
   0  10   5  18.405   3.416 
   0  10   5  12.699   3.215 
  -1 -10  -5  69.280   5.586 
  -1 -10  -5  59.596   5.224 
   1  10   5  51.880   5.144 
   1  10   5  62.248   4.581 
  -2 -10  -5  22.866   3.858 
  -2 -10  -5  23.830   3.858 
   2  10   5  23.348   4.059 
  -3 -10  -5  8.7605  4.1793 
  -3 -10  -5  6.9522  4.2195 
   3  10   5  -1.527   3.898 
   6 -11  -5  1.3663  3.8980 
  -6  11   5  5.0634  4.4204 
  -6  11   5  5.5456  4.7017 
   5 -11  -5  18.727   4.903 
  -5  11   5  17.280   3.737 
  -5  11   5  8.8409  4.1793 
   4 -11  -5  11.533   3.617 
  -4  11   5  7.8362  3.3756 
   3 -11  -5  -2.692   3.617 
  -3  11   5  2.2906  2.7728 
  -3  11   5  0.1206  3.3756 
   2 -11  -5  46.053   5.465 
  -2  11   5  41.833   4.581 
  -2  11   5  60.319   5.144 
   1 -11  -5  37.092   4.220 
   1 -11  -5  24.232   3.898 
  -1  11   5  31.385   3.898 
  -1  11   5  31.265   4.059 
   0 -11  -5  7.3138  3.8177 
   0 -11  -5  3.4560  3.5765 
   0  11   5  6.8718  3.6167 
   0  11   5  5.2643  3.2551 
  -1 -11  -5  32.149   4.019 
  -1 -11  -5  32.510   4.943 
   1  11   5  30.381   4.340 
  -2 -11  -5  9.0820  4.4606 
  -2 -11  -5  0.3617  3.4158 
   2  11   5  9.1624  4.0990 
   5 -12  -5  4.5410  4.4204 
  -5  12   5  7.6353  4.9027 
  -5  12   5  1.2056  2.9738 
   4 -12  -5  -3.496   4.983 
  -4  12   5  13.703   4.662 
  -4  12   5  6.9120  3.6569 
   3 -12  -5  13.382   4.782 
  -3  12   5  7.3942  3.3354 
  -3  12   5  9.9259  4.5410 
   2 -12  -5  0.6430  3.6167 
   2 -12  -5  -7.274   4.179 
  -2  12   5  2.1299  3.4962 
  -2  12   5  5.9877  4.0186 
   1 -12  -5  4.7017  3.8578 
   1 -12  -5  6.9923  4.2597 
  -1  12   5  5.3447  4.0990 
   0 -12  -5  20.173   5.305 
   0 -12  -5  12.819   3.536 
   0  12   5  16.758   4.380 
  -1  13  -6 -0.2411  3.9382 
  -1  13  -6  9.9661  4.7419 
   1 -13   6  4.2597  5.5055 
   1 -13   6  -7.595   4.099 
  -2  13  -6  49.027   6.952 
  -2  13  -6  46.415   5.305 
   2 -13   6  41.150   5.948 
   2 -13   6  35.605   5.505 
  -3  13  -6  -1.567   5.063 
  -3  13  -6  3.2551  4.6214 
   3 -13   6  10.569   5.023 
   3 -13   6  1.8887  3.8980 
   1  12  -6  67.994   7.274 
   1  12  -6  73.500   6.148 
  -1 -12   6  56.984   6.590 
   0  12  -6  10.931   4.621 
   0  12  -6  7.7961  3.7775 
   0 -12   6  5.5858  4.0588 
  -1  12  -6  17.762   4.782 
  -1  12  -6  23.469   4.260 
   1 -12   6  20.575   4.139 
  -2  12  -6  0.3617  3.2952 
  -2  12  -6  -7.635   3.697 
   2 -12   6  4.3401  3.2952 
   2 -12   6  0.0000  3.8980 
  -3  12  -6  125.70    8.60 
  -3  12  -6  126.83   10.73 
   3 -12   6  133.70   12.98 
   3 -12   6  119.11    8.96 
  -4  12  -6  12.056   4.260 
  -4  12  -6  5.3849  4.7419 
   4 -12   6  2.8532  3.6971 
   5 -12   6  5.8671  4.8223 
   3  11  -6  30.421   6.108 
   3  11  -6  27.045   5.546 
  -3 -11   6  26.161   6.148 
   2  11  -6  14.547   4.782 
   2  11  -6  18.807   5.385 
  -2 -11   6  18.887   3.737 
   1  11  -6  53.528   6.028 
   1  11  -6  47.741   5.465 
  -1 -11   6  52.282   5.666 
   0  11  -6  39.945   5.224 
   0  11  -6  36.529   4.621 
   0 -11   6  40.387   4.260 
  -1  11  -6  11.453   3.456 
  -1  11  -6  10.368   3.577 
   1 -11   6  15.391   3.335 
   1 -11   6  12.980   3.335 
  -2  11  -6  119.67    8.52 
  -2  11  -6  117.78    8.80 
   2 -11   6  116.78    8.20 
   2 -11   6  114.89    7.55 
  -3  11  -6  6.6307  3.3354 
  -3  11  -6  -1.165   2.974 
   3 -11   6  0.8439  2.7326 
   3 -11   6  3.1747  3.8177 
  -4  11  -6  14.467   3.456 
  -4  11  -6  23.790   4.621 
   4 -11   6  16.356   4.903 
   4 -11   6  12.337   3.496 
  -5  11  -6  0.0804  3.2149 
   5 -11   6  -1.929   4.662 
   3  10  -6  5.9877  4.3401 
   3  10  -6  9.7250  4.8223 
  -3 -10   6  4.0588  4.3401 
   2  10  -6  64.257   6.309 
   2  10  -6  66.467   5.706 
  -2 -10   6  68.115   6.108 
   1  10  -6  42.637   4.581 
   1  10  -6  42.436   4.541 
   0  10  -6  104.36    7.39 
   0  10  -6  82.823   5.867 
   0 -10   6  84.832   6.229 
  -1  10  -6  69.321   5.184 
  -1  10  -6  68.035   5.104 
   1 -10   6  69.441   5.224 
   1 -10   6  67.834   5.425 
  -2  10  -6  80.894   5.867 
  -2  10  -6  79.930   5.827 
   2 -10   6  76.554   6.470 
   2 -10   6  75.590   5.104 
  -3  10  -6  32.350   3.536 
  -3  10  -6  27.206   3.898 
   3 -10   6  29.014   3.617 
   3 -10   6  34.841   3.938 
  -4  10  -6  11.051   2.934 
  -4  10  -6  3.0139  3.1345 
   4 -10   6  7.7961  2.4513 
   4 -10   6  9.9259  3.4560 
  -5  10  -6  27.166   3.938 
   5 -10   6  20.656   4.340 
   5 -10   6  24.835   4.662 
  -6  10  -6  64.498   6.068 
   6 -10   6  63.654   6.229 
   4   9  -6  33.917   6.309 
  -4  -9   6  38.779   5.867 
   3   9  -6  17.079   5.104 
  -3  -9   6  28.572   4.300 
   2   9  -6 -0.6430  2.6121 
   2   9  -6  0.8439  3.1345 
  -2  -9   6  1.7280  2.2504 
   1   9  -6  306.74   18.77 
   1   9  -6  281.62   15.35 
  -1  -9   6  276.68   17.16 
   0   9  -6  2.9336  2.3308 
   0   9  -6 -0.7635  2.4513 
   0  -9   6  3.9382  2.3308 
  -1   9  -6  489.06   29.90 
  -1   9  -6  484.16   21.98 
   1  -9   6  465.67   25.12 
   1  -9   6  511.00   27.69 
  -2   9  -6  1.9691  2.4513 
  -2   9  -6  1.2458  2.3308 
   2  -9   6  0.8841  2.5719 
   2  -9   6  -2.492   1.929 
  -3   9  -6  123.89    7.76 
  -3   9  -6  124.54    7.60 
   3  -9   6  128.63    7.19 
   3  -9   6  118.03    7.88 
  -4   9  -6  2.8130  1.8485 
  -4   9  -6  2.4915  2.1299 
   4  -9   6 -0.0804  2.7326 
   4  -9   6 -0.2813  2.2102 
  -5   9  -6  76.353   6.189 
   5  -9   6  79.287   7.716 
  -6   9  -6  -5.264   3.335 
   6  -9   6  -2.813   4.983 
   6  -9   6 -0.3617  3.8980 
   7  -9   6  17.883   5.907 
   7  -9   6  32.993   6.711 
   5   8  -6  26.442   5.867 
  -5  -8   6  33.194   5.264 
   4   8  -6  86.118   7.033 
  -4  -8   6  80.774   5.988 
   3   8  -6  311.96   18.08 
   3   8  -6  319.52   19.73 
  -3  -8   6  287.21   16.44 
   2   8  -6  167.05    9.77 
   2   8  -6  165.45   11.81 
   2   8  -6  179.67    9.28 
  -2  -8   6  176.34   11.13 
   1   8  -6  31.988   3.295 
   1   8  -6  35.524   3.255 
   1   8  -6  21.178   2.813 
  -1  -8   6  28.653   2.893 
   0   8  -6  51.558   3.697 
   0   8  -6  55.135   4.340 
   0  -8   6  50.755   3.697 
  -1   8  -6  85.475   4.742 
  -1   8  -6  85.716   5.867 
   1  -8   6  70.687   6.430 
   1  -8   6  81.658   5.224 
   1  -8   6  78.885   4.662 
  -2   8  -6  374.93   19.73 
  -2   8  -6  373.77   17.96 
   2  -8   6  365.65   19.61 
   2  -8   6  368.26   16.84 
  -3   8  -6  126.02    7.84 
  -3   8  -6  121.40    7.92 
   3  -8   6  120.12    5.79 
   3  -8   6  124.34    7.84 
  -4   8  -6  104.12    6.83 
  -4   8  -6  118.71    6.99 
   4  -8   6  108.98    7.23 
   4  -8   6  108.18    5.75 
  -5   8  -6  14.788   2.371 
  -5   8  -6  14.065   3.014 
   5  -8   6  10.127   3.094 
  -6   8  -6  28.090   3.697 
  -6   8  -6  23.911   3.818 
   6  -8   6  24.674   4.581 
   6  -8   6  31.184   4.782 
   7  -8   6  0.6028  5.0232 
   7  -8   6 -0.2009  5.4251 
   6   7  -6  47.942   8.640 
   5   7  -6  3.1747  6.3092 
   5   7  -6  2.7326  4.4204 
  -5  -7   6  2.2504  3.7775 
   4   7  -6  355.32   19.89 
   4   7  -6  356.09   20.78 
  -4  -7   6  356.97   18.81 
   3   7  -6  33.194   3.657 
   3   7  -6  35.926   4.260 
  -3  -7   6  26.201   2.170 
  -3  -7   6  31.948   3.175 
  -3  -7   6  28.853   2.331 
   2   7  -6  150.70    8.08 
   2   7  -6  141.49    7.96 
   2   7  -6  138.16    8.64 
  -2  -7   6  131.21    5.87 
  -2  -7   6  132.05    5.83 
  -2  -7   6  147.24    9.08 
   1   7  -6  55.818   3.617 
   1   7  -6  62.409   4.943 
  -1  -7   6  55.939   4.782 
  -1  -7   6  56.742   4.099 
  -1  -7   6  50.634   2.090 
   0   7  -6  96.928   5.184 
   0   7  -6  100.87    6.03 
   0   7  -6  85.355   5.867 
   0  -7   6  105.89    5.38 
   0  -7   6  87.525   6.872 
   0  -7   6  106.29    5.91 
  -1   7  -6  4.9429  1.8887 
  -1   7  -6  7.5549  1.8485 
   1  -7   6  4.7017  2.2906 
   1  -7   6  4.7419  1.4467 
   1  -7   6  3.6569  3.2952 
  -2   7  -6  666.24   33.92 
  -2   7  -6  538.17   35.97 
  -2   7  -6  627.70   30.38 
   2  -7   6  647.56   29.30 
   2  -7   6  637.75   29.82 
  -3   7  -6  128.88    6.31 
  -3   7  -6  119.31    6.03 
  -3   7  -6  86.681   6.912 
   3  -7   6  114.85    5.67 
   3  -7   6  105.81    6.67 
  -4   7  -6  128.59    7.19 
  -4   7  -6  137.60    7.55 
   4  -7   6  149.37    8.72 
   4  -7   6  116.22    6.23 
  -5   7  -6  56.099   4.099 
  -5   7  -6  60.440   3.978 
   5  -7   6  50.634   4.983 
  -6   7  -6  5.5858  2.4915 
  -6   7  -6  8.4390  2.9336 
   6  -7   6  8.3185  3.8980 
  -7   7  -6  17.802   3.938 
   7  -7   6  3.0943  4.2195 
   7  -7   6  9.8857  6.2288 
   6   6  -6  7.8764  6.2288 
   6   6  -6  8.8007  5.5055 
  -6  -6   6  1.3261  3.4560 
  -6  -6   6  6.1886  5.8270 
  -6  -6   6  0.6832  5.6260 
   5   6  -6  136.91   10.37 
   5   6  -6  129.20   10.89 
  -5  -6   6  129.48    8.00 
  -5  -6   6  120.00    7.84 
  -5  -6   6  146.76    8.88 
  -5  -6   6  133.90    7.76 
   4   6  -6  8.6400  3.0943 
   4   6  -6  11.212   3.536 
  -4  -6   6  6.2288  2.0093 
  -4  -6   6  8.9213  2.4513 
  -4  -6   6  9.7250  1.8887 
   3   6  -6  214.27   11.13 
   3   6  -6  204.30   11.73 
  -3  -6   6  192.77    9.04 
  -3  -6   6  189.48    9.24 
  -3  -6   6  188.91   10.81 
   2   6  -6  14.427   2.893 
   2   6  -6  16.717   2.692 
   2   6  -6  13.422   1.607 
  -2  -6   6  12.458   1.165 
  -2  -6   6  18.124   3.295 
  -2  -6   6  13.261   1.206 
  -2  -6   6  19.048   2.090 
   1   6  -6  445.46   21.98 
   1   6  -6  480.94   26.36 
   1   6  -6  429.43   19.93 
  -1  -6   6  445.74   27.65 
  -1  -6   6  475.24   25.32 
  -1  -6   6  399.05   14.75 
   0   6  -6  10.971   2.210 
   0   6  -6  15.472   2.090 
   0   6  -6  14.105   1.929 
   0  -6   6  14.266   1.527 
   0  -6   6  16.798   2.813 
   0  -6   6  15.552   2.049 
  -1   6  -6  183.29    7.80 
  -1   6  -6  187.79   10.73 
  -1   6  -6  168.34   13.54 
   1  -6   6  172.48    7.76 
   1  -6   6  179.67    9.64 
   1  -6   6  173.40   12.58 
  -2   6  -6  331.85   13.94 
  -2   6  -6  333.86   18.16 
  -2   6  -6  267.80   17.60 
   2  -6   6  324.90   13.90 
   2  -6   6  295.25   10.61 
   2  -6   6  316.54   16.52 
  -3   6  -6  268.92   12.86 
  -3   6  -6  276.76   15.71 
  -3   6  -6  267.48   12.10 
   3  -6   6  256.02   11.33 
   3  -6   6  276.60   12.38 
   3  -6   6  290.34   14.23 
  -4   6  -6  66.025   3.777 
  -4   6  -6  61.967   3.938 
  -4   6  -6  67.954   3.818 
   4  -6   6  66.025   5.184 
   4  -6   6  59.515   3.175 
  -5   6  -6  205.15    9.81 
  -5   6  -6  199.40   10.49 
  -5   6  -6  206.15   11.53 
   5  -6   6  205.31   12.86 
  -6   6  -6  18.968   2.853 
  -6   6  -6  19.450   2.974 
   6  -6   6  21.178   3.978 
  -7   6  -6  11.774   3.617 
  -7   6  -6  18.365   3.697 
   7  -6   6  11.212   5.546 
   7  -6   6  16.034   4.581 
   6   5  -6  41.231   5.988 
   6   5  -6  36.127   6.229 
  -6  -5   6  31.546   4.019 
  -6  -5   6  36.971   3.858 
  -6  -5   6  34.078   4.621 
   5   5  -6  187.23   12.22 
   5   5  -6  175.53   10.85 
  -5  -5   6  187.23   10.93 
  -5  -5   6  175.77    9.28 
  -5  -5   6  174.37    9.28 
  -5  -5   6  181.60    8.96 
   4   5  -6  108.18    7.35 
   4   5  -6  125.66    7.27 
  -4  -5   6  102.51    5.63 
  -4  -5   6  104.60    5.87 
  -4  -5   6  107.54    6.71 
   3   5  -6  58.511   4.380 
   3   5  -6  65.784   4.541 
   3   5  -6  50.353   3.617 
  -3  -5   6  50.232   3.416 
  -3  -5   6  50.232   3.255 
  -3  -5   6  52.161   3.818 
   2   5  -6  252.45   11.13 
   2   5  -6  267.04   13.26 
   2   5  -6  241.28   10.53 
  -2  -5   6  230.79   11.21 
  -2  -5   6  270.65   13.62 
  -2  -5   6  237.34   10.09 
  -2  -5   6  257.51   15.63 
   1   5  -6  83.948   5.023 
   1   5  -6  93.432   4.220 
   1   5  -6  87.083   5.305 
  -1  -5   6  94.758   4.662 
  -1  -5   6  81.939   5.827 
  -1  -5   6  84.631   5.305 
   0   5  -6  505.26   24.59 
   0   5  -6  491.31   24.39 
   0   5  -6  478.17   20.41 
   0   5  -6  464.63   25.68 
   0  -5   6  493.00   24.96 
   0  -5   6  521.33   24.88 
   0  -5   6  445.82   33.23 
  -1   5  -6  72.978   4.179 
  -1   5  -6  77.519   3.858 
  -1   5  -6  77.197   3.898 
   1  -5   6  74.746   3.697 
   1  -5   6  62.529   4.903 
   1  -5   6  69.441   3.737 
  -2   5  -6  272.14   10.57 
  -2   5  -6  236.78   14.47 
  -2   5  -6  270.53   15.11 
  -2   5  -6  257.75   11.69 
   2  -5   6  270.61   13.10 
   2  -5   6  268.52   12.58 
   2  -5   6  270.41   10.29 
  -3   5  -6  21.982   2.009 
  -3   5  -6  28.251   1.768 
  -3   5  -6  27.326   1.808 
  -3   5  -6  22.785   2.652 
   3  -5   6  23.750   2.331 
   3  -5   6  23.629   1.487 
   3  -5   6  26.563   1.889 
  -4   5  -6  136.55    8.08 
  -4   5  -6  137.44    7.43 
  -4   5  -6  142.66    6.51 
   4  -5   6  133.30    6.95 
   4  -5   6  128.19    5.38 
   4  -5   6  139.85    8.08 
  -5   5  -6  20.414   2.411 
  -5   5  -6  23.629   2.451 
  -5   5  -6  25.438   2.612 
   5  -5   6  27.367   3.295 
  -6   5  -6  140.69    8.48 
  -6   5  -6  140.41    7.88 
   6  -5   6  139.77   11.29 
  -7   5  -6 -0.4420  3.1345 
  -7   5  -6  5.5055  2.8934 
   7  -5   6  0.9645  4.7821 
   7  -5   6 -0.6832  3.7775 
   7   4  -6  13.904   6.470 
   7   4  -6  -4.662   5.465 
  -7  -4   6  -1.648   3.697 
  -7  -4   6  3.7373  4.0990 
  -7  -4   6  1.7682  2.9738 
   6   4  -6  33.997   5.666 
   6   4  -6  38.297   5.787 
  -6  -4   6  26.362   3.697 
  -6  -4   6  33.595   3.938 
  -6  -4   6  35.645   3.737 
   5   4  -6  571.56   36.37 
   5   4  -6  561.56   34.08 
  -5  -4   6  543.03   28.09 
  -5  -4   6  560.59   30.90 
  -5  -4   6  565.82   28.73 
  -5  -4   6  535.40   28.37 
   4   4  -6  396.88   19.85 
   4   4  -6  410.34   19.21 
  -4  -4   6  381.52   23.67 
  -4  -4   6  379.43   18.73 
  -4  -4   6  382.89   21.42 
  -4  -4   6  376.74   21.82 
  -4  -4   6  375.78   17.52 
   3   4  -6  1.9691  1.5672 
   3   4  -6  -2.451   2.411 
   3   4  -6  3.6569  2.1700 
  -3  -4   6  3.1345  0.9243 
  -3  -4   6  2.4915  1.2859 
  -3  -4   6  1.9691  0.9645 
  -3  -4   6  1.4065  1.8084 
   2   4  -6  335.43   15.07 
   2   4  -6  363.44   16.11 
   2   4  -6  369.31   14.43 
  -2  -4   6  372.52   18.61 
  -2  -4   6  335.23   13.70 
  -2  -4   6  342.99   17.72 
   1   4  -6  68.155   4.019 
   1   4  -6  60.440   2.733 
   1   4  -6  69.923   3.376 
   1   4  -6  63.695   4.300 
   1   4  -6  66.347   4.621 
  -1  -4   6  69.240   3.697 
  -1  -4   6  64.498   3.416 
  -1  -4   6  67.552   4.340 
   0   4  -6  246.70   12.26 
   0   4  -6  248.43   13.30 
   0   4  -6  250.96   10.17 
   0   4  -6  229.10   12.78 
   0  -4   6  239.35   13.58 
   0  -4   6  219.98   14.79 
   0  -4   6  246.94   12.42 
  -1   4  -6  639.08   30.18 
  -1   4  -6  690.31   39.10 
  -1   4  -6  617.78   21.70 
  -1   4  -6  660.45   24.35 
  -1   4  -6  623.24   22.22 
   1  -4   6  656.52   37.90 
   1  -4   6  646.03   30.90 
   1  -4   6  605.52   28.17 
  -2   4  -6  522.78   24.83 
  -2   4  -6  542.23   25.40 
  -2   4  -6  500.47   28.41 
  -2   4  -6  557.22   29.58 
  -2   4  -6  504.33   25.92 
   2  -4   6  581.57   25.24 
   2  -4   6  535.40   25.92 
   2  -4   6  551.39   21.74 
  -3   4  -6  163.76    8.72 
  -3   4  -6  160.38    8.84 
  -3   4  -6  158.21    9.68 
   3  -4   6  160.82    6.83 
   3  -4   6  152.06    7.76 
   3  -4   6  169.79    7.88 
  -4   4  -6  40.467   3.094 
  -4   4  -6  38.619   2.652 
  -4   4  -6  38.578   2.411 
   4  -4   6  34.801   1.527 
   4  -4   6  29.215   3.054 
   4  -4   6  33.153   1.728 
   4  -4   6  35.846   3.054 
  -5   4  -6  43.240   3.094 
  -5   4  -6  45.651   3.456 
  -5   4  -6  45.772   3.536 
   5  -4   6  43.883   3.978 
  -6   4  -6  63.735   4.662 
  -6   4  -6  66.387   5.184 
   6  -4   6  70.245   5.988 
  -7   4  -6 -0.0402  2.6925 
  -7   4  -6  -6.912   3.416 
   7  -4   6  0.5626  3.8177 
   7  -4   6  7.8764  5.7868 
   7   3  -6  39.583   6.631 
   7   3  -6  55.617   7.957 
  -7  -3   6  43.762   5.023 
  -7  -3   6  42.195   4.139 
   6   3  -6  -4.903   4.662 
   6   3  -6  1.6074  3.8177 
  -6  -3   6  3.6971  2.4915 
  -6  -3   6  3.8980  2.9336 
  -6  -3   6 -0.4420  2.0495 
   5   3  -6  82.220   5.666 
   5   3  -6  84.993   5.988 
  -5  -3   6  78.403   5.144 
  -5  -3   6  70.727   4.983 
  -5  -3   6  80.090   4.099 
  -5  -3   6  80.211   4.581 
   4   3  -6  135.47    6.95 
   4   3  -6  134.22    7.64 
  -4  -3   6  134.58    6.07 
  -4  -3   6  132.98    6.71 
  -4  -3   6  129.28    7.07 
  -4  -3   6  123.49    6.59 
  -4  -3   6  125.86    6.71 
   3   3  -6  755.94   37.25 
   3   3  -6  748.06   31.91 
   3   3  -6  738.62   37.09 
   3   3  -6  763.49   29.50 
  -3  -3   6  727.40   30.42 
  -3  -3   6  790.13   38.54 
  -3  -3   6  730.38   41.87 
  -3  -3   6  726.16   32.83 
   2   3  -6  6.7512  1.0448 
   2   3  -6  6.1886  2.0495 
   2   3  -6  6.8718  0.9645 
   2   3  -6  6.3494  1.7280 
  -2  -3   6  5.4653  2.0495 
  -2  -3   6  6.2690  1.2056 
  -2  -3   6  6.4297  1.2859 
  -2  -3   6  6.3494  0.8841 
   1   3  -6  753.48   31.47 
   1   3  -6  737.21   41.99 
   1   3  -6  739.58   38.74 
   1   3  -6  750.51   34.56 
   1   3  -6  749.75   34.08 
   1   3  -6  756.22   34.64 
  -1  -3   6  800.14   40.19 
  -1  -3   6  698.03   33.52 
  -1  -3   6  812.68   40.35 
  -1  -3   6  787.56   39.98 
   0   3  -6  5.9073  1.6878 
   0   3  -6  2.2102  1.4065 
   0   3  -6  4.5812  1.1252 
   0   3  -6  2.6925  0.4420 
   0   3  -6  4.1391  0.4822 
   0   3  -6  2.8130  0.4019 
   0   3  -6  3.4560  1.0850 
   0  -3   6  1.6878  1.1252 
   0  -3   6  5.2242  1.7280 
   0  -3   6  4.3401  1.8084 
   0  -3   6  3.1747  0.6832 
  -1   3  -6  654.43   32.19 
  -1   3  -6  670.14   46.09 
  -1   3  -6  730.10   32.11 
  -1   3  -6  671.39   29.38 
  -1   3  -6  705.99   32.35 
  -1   3  -6  630.68   31.18 
  -1   3  -6  691.60   39.58 
   1  -3   6  714.99   41.03 
   1  -3   6  725.27   40.67 
   1  -3   6  715.63   37.01 
   1  -3   6  691.80   31.99 
   1  -3   6  590.57   32.47 
  -2   3  -6  37.172   1.768 
  -2   3  -6  31.988   2.532 
  -2   3  -6  33.997   1.969 
  -2   3  -6  28.653   2.049 
  -2   3  -6  36.007   2.009 
   2  -3   6  33.917   1.969 
   2  -3   6  31.385   1.487 
   2  -3   6  36.730   2.411 
  -3   3  -6  248.95   12.22 
  -3   3  -6  250.68   13.90 
  -3   3  -6  260.20   13.98 
   3  -3   6  261.45   11.94 
   3  -3   6  236.94   10.41 
  -4   3  -6  4.7821  1.3663 
  -4   3  -6  3.4560  1.5271 
  -4   3  -6  5.5456  1.1654 
   4  -3   6  1.3261  1.8485 
  -5   3  -6  157.77   10.17 
  -5   3  -6  170.55    8.92 
   5  -3   6  162.51    8.52 
   5  -3   6  158.17    8.88 
  -6   3  -6  0.1206  2.4112 
  -6   3  -6  3.1345  2.6121 
   6  -3   6  1.2859  3.0541 
  -7   3  -6  50.232   4.501 
  -7   3  -6  50.273   4.581 
   7  -3   6  38.136   6.269 
   7  -3   6  42.838   5.626 
   7   2  -6  37.051   6.189 
   7   2  -6  47.580   5.907 
  -7  -2   6  44.124   4.541 
  -7  -2   6  46.415   4.621 
   6   2  -6  6.1083  3.8578 
   6   2  -6  9.9259  3.4158 
  -6  -2   6  10.529   2.451 
  -6  -2   6  6.6709  2.0495 
  -6  -2   6  6.6709  2.0897 
   5   2  -6  42.878   4.139 
   5   2  -6  40.588   4.139 
  -5  -2   6  42.718   3.335 
  -5  -2   6  42.155   3.014 
  -5  -2   6  43.883   3.255 
  -5  -2   6  37.373   2.612 
   4   2  -6 1187.93   48.06 
   4   2  -6 1201.96   57.47 
  -4  -2   6 1185.80   64.14 
  -4  -2   6 1134.21   59.15 
  -4  -2   6 1230.61   48.26 
  -4  -2   6 1252.15   54.21 
  -4  -2   6 1175.32   51.44 
   3   2  -6  230.59    9.81 
   3   2  -6  216.92    9.72 
   3   2  -6  212.10   12.70 
   3   2  -6  217.81   11.85 
  -3  -2   6  211.50    9.32 
  -3  -2   6  229.86   11.25 
  -3  -2   6  212.50    8.96 
  -3  -2   6  213.59    9.68 
  -3  -2   6  177.78    9.56 
   2   2  -6 1051.22   68.36 
   2   2  -6 1058.74   50.27 
   2   2  -6 1025.22   39.62 
   2   2  -6 1045.23   55.42 
   2   2  -6 1002.92   41.63 
  -2  -2   6 1012.36   42.03 
  -2  -2   6 1036.19   45.45 
  -2  -2   6 1074.89   55.22 
  -2  -2   6  985.84   49.39 
  -2  -2   6  988.21   42.32 
  -2  -2   6 1063.44   48.91 
   1   2  -6  514.66   26.96 
   1   2  -6  509.36   18.85 
   1   2  -6  506.82   25.60 
   1   2  -6  539.37   21.94 
   1   2  -6  507.03   24.15 
   1   2  -6  536.88   25.56 
  -1  -2   6  537.89   20.41 
  -1  -2   6  495.37   21.58 
  -1  -2   6  498.67   27.81 
  -1  -2   6  482.39   22.50 
  -1  -2   6  508.75   25.96 
   0   2  -6  42.517   2.612 
   0   2  -6  46.656   2.974 
   0   2  -6  42.316   1.889 
   0   2  -6  40.427   1.969 
   0   2  -6  42.476   2.411 
   0   2  -6  40.708   3.094 
   0  -2   6  44.245   2.130 
   0  -2   6  48.303   2.652 
   0  -2   6  43.200   2.492 
   0  -2   6  41.673   2.532 
   0  -2   6  39.623   3.777 
  -1   2  -6  80.211   4.702 
  -1   2  -6  71.651   3.215 
  -1   2  -6  71.772   3.376 
  -1   2  -6  76.393   3.335 
  -1   2  -6  67.834   4.300 
  -1   2  -6  74.505   4.621 
   1  -2   6  73.138   2.974 
   1  -2   6  71.852   3.818 
   1  -2   6  67.874   3.898 
   1  -2   6  67.713   5.184 
   1  -2   6  73.781   4.742 
  -2   2  -6  299.91   16.28 
  -2   2  -6  302.52   14.71 
  -2   2  -6  282.99   14.91 
   2  -2   6  306.74   15.11 
   2  -2   6  323.05   14.71 
   2  -2   6  303.04   15.59 
   2  -2   6  304.65   18.93 
   2  -2   6  307.10   12.34 
  -3   2  -6  28.773   2.170 
  -3   2  -6  29.255   1.929 
  -3   2  -6  26.925   1.969 
   3  -2   6  20.495   1.929 
   3  -2   6  24.272   2.492 
   3  -2   6  29.014   1.688 
  -4   2  -6  86.761   4.461 
  -4   2  -6  88.329   4.862 
  -4   2  -6  69.401   6.631 
   4  -2   6  90.941   5.907 
   4  -2   6  89.092   4.581 
  -5   2  -6  34.078   2.934 
  -5   2  -6  36.408   2.934 
   5  -2   6  31.546   2.250 
   5  -2   6  30.943   3.175 
  -6   2  -6  18.767   2.612 
  -6   2  -6  18.928   3.014 
   6  -2   6  12.056   3.456 
  -7   2  -6  4.2597  3.1747 
  -7   2  -6  3.2952  3.0139 
   7  -2   6  -5.425   6.148 
   7  -2   6  -1.889   3.978 
   8   1  -6  31.506   9.765 
   8   1  -6  46.575   6.872 
  -8  -1   6  32.350   4.340 
   7   1  -6  10.730   5.948 
   7   1  -6  6.4699  4.2999 
  -7  -1   6  1.8887  2.5719 
   6   1  -6  98.174   7.635 
   6   1  -6  103.00    8.12 
  -6  -1   6  87.846   6.068 
  -6  -1   6  98.013   4.541 
   5   1  -6  5.9073  3.4962 
   5   1  -6  5.1840  2.4112 
  -5  -1   6  4.1793  1.7280 
  -5  -1   6  4.0990  1.4467 
   4   1  -6  257.23   10.73 
   4   1  -6  247.34   11.53 
  -4  -1   6  258.96   10.17 
  -4  -1   6  254.50    9.93 
  -4  -1   6  242.08   12.66 
  -4  -1   6  259.00    9.72 
   3   1  -6  72.656   3.938 
   3   1  -6  74.263   4.662 
   3   1  -6  73.259   3.938 
   3   1  -6  77.197   3.737 
  -3  -1   6  77.438   3.456 
  -3  -1   6  68.637   3.577 
  -3  -1   6  73.259   3.536 
   2   1  -6  323.38   17.12 
   2   1  -6  296.61   12.02 
   2   1  -6  322.61   16.96 
   2   1  -6  316.42   16.60 
   2   1  -6  322.57   14.43 
  -2  -1   6  312.61   14.19 
  -2  -1   6  305.89   13.94 
  -2  -1   6  314.62   15.23 
  -2  -1   6  298.82   14.83 
   1   1  -6  91.945   4.903 
   1   1  -6  88.047   4.380 
   1   1  -6  89.373   4.943 
   1   1  -6  83.305   3.456 
   1   1  -6  94.517   4.541 
   1   1  -6  89.574   4.662 
  -1  -1   6  93.432   3.456 
  -1  -1   6  91.182   4.943 
  -1  -1   6  84.672   4.943 
  -1  -1   6  85.435   4.300 
   0   1  -6 1154.90   57.87 
   0   1  -6 1113.67   62.97 
   0   1  -6 1157.84   53.01 
   0   1  -6 1170.78   48.75 
   0  -1   6 1113.43   62.29 
   0  -1   6 1197.58   46.37 
   0  -1   6 1201.76   53.01 
   0  -1   6 1063.92   79.61 
   0  -1   6 1136.74   44.24 
   0   1  -6 1227.08   80.73 
   0   1  -6 1301.61   68.56 
   0  -1   6 1150.99   62.54 
   0  -1   6 1312.06   73.31 
  -1   1  -6  134.34    7.84 
  -1   1  -6  129.40    6.07 
  -1   1  -6  143.95    6.71 
  -1   1  -6  151.18    7.23 
  -1   1  -6  136.99    5.79 
  -1   1  -6  128.15    6.63 
   1  -1   6  139.16    6.87 
   1  -1   6  135.99    7.80 
   1  -1   6  124.38    5.06 
   1  -1   6  135.95    8.60 
   1  -1   6  141.78    7.03 
  -2   1  -6  152.26    8.68 
  -2   1  -6  154.55    7.84 
   2  -1   6  159.14    7.11 
   2  -1   6  159.34    8.40 
   2  -1   6  143.26    5.43 
   2  -1   6  156.16    7.23 
   2  -1   6  158.49    8.32 
  -3   1  -6 -0.0804  1.0448 
  -3   1  -6  1.4467  1.2859 
  -3   1  -6 -0.7635  1.2056 
   3  -1   6  1.4869  0.8841 
   3  -1   6  0.9645  1.6878 
   3  -1   6 -0.4420  1.6878 
  -4   1  -6  170.15    7.84 
  -4   1  -6  170.11   10.45 
   4  -1   6  166.73    9.44 
   4  -1   6  166.01    8.88 
  -5   1  -6  55.497   4.099 
  -5   1  -6  50.473   3.777 
   5  -1   6  44.204   3.737 
   5  -1   6  50.755   4.380 
  -6   1  -6  32.470   3.697 
  -6   1  -6  37.855   3.335 
   6  -1   6  24.795   4.179 
  -7   1  -6  21.700   4.059 
  -7   1  -6  25.277   3.536 
   7  -1   6  12.096   6.751 
   7  -1   6  28.331   4.782 
   8   0  -6  8.5194  5.4653 
   8   0  -6  -6.711   6.992 
  -8   0   6  -1.688   4.099 
   7   0  -6  46.495   6.711 
   7   0  -6  65.583   6.309 
  -7   0   6  47.178   3.777 
   6   0  -6  13.583   4.220 
   6   0  -6  13.462   3.496 
  -6   0   6  8.1577  2.2504 
  -6   0   6  9.7250  2.0093 
   5   0  -6  309.63   13.74 
   5   0  -6  306.66   16.76 
  -5   0   6  303.20   11.98 
  -5   0   6  276.28   15.31 
   4   0  -6  9.8857  2.5719 
   4   0  -6  10.971   2.049 
  -4   0   6  11.574   1.607 
  -4   0   6  11.734   1.326 
   3   0  -6  342.02   13.94 
   3   0  -6  363.88   18.65 
   3   0  -6  373.65   16.28 
   3   0  -6  332.50   13.42 
  -3   0   6  328.88   13.78 
  -3   0   6  355.28   14.91 
  -3   0   6  340.09   11.85 
   2   0  -6  27.527   1.889 
   2   0  -6  30.180   2.009 
   2   0  -6  26.362   2.652 
   2   0  -6  30.300   1.728 
   2   0  -6  31.184   2.250 
  -2   0   6  32.993   2.170 
  -2   0   6  30.581   1.728 
  -2   0   6  28.331   3.094 
  -2   0   6  30.823   2.210 
   1   0  -6  338.45   16.80 
   1   0  -6  308.11   14.99 
   1   0  -6  329.52   15.51 
   1   0  -6  320.56   14.75 
   1   0  -6  316.83   12.70 
   1   0  -6  340.82   15.11 
  -1   0   6  314.78   14.31 
  -1   0   6  329.73   16.19 
  -1   0   6  295.81   15.35 
  -1   0   6  328.36   13.34 
   1   0  -6  293.51   19.43 
   1   0  -6  315.81   22.01 
  -1   0   6  322.26   18.11 
  -1   0   6  325.18   24.19 
   0   0  -6  30.581   1.768 
   0   0  -6  35.042   2.371 
   0   0  -6  28.693   1.768 
   0   0  -6  30.180   2.532 
   0   0  -6  29.336   1.768 
   0   0   6  28.974   2.009 
   0   0   6  32.792   1.849 
   0   0   6  26.121   2.692 
   0   0   6  31.064   2.170 
   0   0   6  30.059   1.688 
   0   0  -6  40.267   5.980 
   0   0  -6  25.750   5.243 
   0   0   6  22.578   4.944 
   0   0   6  26.719   6.190 
  -1   0  -6  90.579   4.461 
  -1   0  -6  90.057   3.938 
  -1   0  -6  89.494   4.742 
  -1   0  -6  86.842   4.220 
  -1   0  -6  87.364   4.099 
  -1   0  -6  89.132   4.862 
   1   0   6  88.208   3.376 
   1   0   6  87.525   4.139 
   1   0   6  83.064   6.108 
   1   0   6  83.386   4.621 
   1   0   6  88.489   4.380 
  -2   0  -6  24.594   1.648 
  -2   0  -6  24.594   1.929 
   2   0   6  27.768   2.411 
   2   0   6  28.010   1.527 
   2   0   6  22.625   2.049 
   2   0   6  29.617   2.009 
   2   0   6  23.549   2.090 
  -3   0  -6  12.980   1.648 
   3   0   6  12.377   1.165 
   3   0   6  13.302   2.090 
  -4   0  -6  4.0990  1.5271 
  -4   0  -6  3.8980  1.6074 
   4   0   6  6.1484  1.1252 
   4   0   6  3.8980  2.2102 
  -5   0  -6  19.651   2.612 
  -5   0  -6  15.512   2.733 
   5   0   6  22.303   3.295 
  -6   0  -6  8.6400  2.7326 
  -6   0  -6  10.127   2.773 
   6   0   6  14.346   3.617 
  -7   0  -6  30.099   3.938 
  -7   0  -6  32.229   4.461 
   7   0   6  40.226   5.465 
   7   0   6  26.724   7.354 
   8  -1  -6  22.263   7.595 
   8  -1  -6  15.431   5.224 
  -8   1   6  12.578   4.059 
   7  -1  -6  52.563   5.505 
   7  -1  -6  50.835   7.193 
  -7   1   6  46.254   4.742 
   6  -1  -6  75.710   6.550 
   6  -1  -6  66.387   5.184 
  -6   1   6  65.744   4.541 
  -6   1   6  64.257   3.737 
  -6   1   6  70.004   3.978 
   5  -1  -6  41.833   3.978 
   5  -1  -6  40.548   3.416 
  -5   1   6  39.784   2.733 
  -5   1   6  39.061   2.934 
  -5   1   6  37.413   2.451 
   4  -1  -6  176.90    9.72 
   4  -1  -6  198.76    9.44 
   4  -1  -6  183.77    7.64 
  -4   1   6  183.53    9.00 
  -4   1   6  178.63    7.15 
   3  -1  -6  37.694   3.215 
   3  -1  -6  34.721   2.813 
   3  -1  -6  36.609   2.331 
   3  -1  -6  34.841   2.733 
   3  -1  -6  37.815   2.612 
  -3   1   6  37.252   1.969 
   2  -1  -6  122.17    5.14 
   2  -1  -6  131.37    5.99 
   2  -1  -6  121.76    5.95 
   2  -1  -6  128.92    6.43 
   2  -1  -6  117.99    5.71 
   2  -1  -6  125.34    5.67 
  -2   1   6  114.29    6.75 
  -2   1   6  121.28    4.78 
  -2   1   6  124.54    5.02 
  -2   1   6  121.44    5.63 
   1  -1  -6  220.74   10.73 
   1  -1  -6  239.63   11.29 
   1  -1  -6  246.18   11.33 
   1  -1  -6  213.19    9.20 
   1  -1  -6  223.75    9.81 
  -1   1   6  213.71    9.36 
  -1   1   6  204.22   11.49 
  -1   1   6  215.64    9.60 
  -1   1   6  222.47   11.81 
   0  -1  -6  146.24    7.43 
   0  -1  -6  139.89    6.35 
   0  -1  -6  127.83    5.75 
   0  -1  -6  127.59    4.86 
   0  -1  -6  121.24    6.91 
   0   1   6  124.21    5.47 
   0   1   6  134.82    5.91 
   0   1   6  119.71    5.34 
   0   1   6  135.43    7.51 
   0   1   6  126.10    9.32 
  -1  -1  -6  95.441   4.300 
  -1  -1  -6  93.754   5.305 
  -1  -1  -6  102.96    4.82 
  -1  -1  -6  100.22    5.34 
  -1  -1  -6  100.83    4.82 
  -1  -1  -6  92.588   5.104 
   1   1   6  105.69    7.03 
   1   1   6  97.571   8.118 
   1   1   6  95.683   4.420 
   1   1   6  101.83    5.02 
   1   1   6  100.14    4.38 
  -2  -1  -6  234.32   10.93 
  -2  -1  -6  237.98   11.33 
   2   1   6  238.26   13.14 
   2   1   6  249.71   10.81 
   2   1   6  250.56   12.74 
   2   1   6  238.58   10.29 
  -3  -1  -6  6.3896  0.7635 
  -3  -1  -6  7.0727  1.6074 
   3   1   6  8.2783  1.0850 
   3   1   6  10.448   2.049 
  -4  -1  -6  130.24    6.95 
  -4  -1  -6  125.58    6.63 
  -4  -1  -6  129.28    6.15 
   4   1   6  119.75    7.19 
   4   1   6  132.65    8.48 
   4   1   6  122.37    7.23 
  -5  -1  -6  112.80    6.23 
  -5  -1  -6  101.15    6.35 
   5   1   6  94.115   7.716 
  -6  -1  -6  75.188   5.425 
  -6  -1  -6  69.240   5.586 
   6   1   6  72.455   6.992 
  -7  -1  -6  14.467   3.737 
  -7  -1  -6  19.731   4.742 
   7   1   6  14.346   7.434 
   7   1   6  22.424   5.706 
   8  -2  -6  39.583   7.796 
   8  -2  -6  50.112   6.269 
  -8   2   6  38.177   4.420 
   7  -2  -6  -2.451   3.456 
   7  -2  -6  -7.997   5.948 
  -7   2   6  -2.331   2.692 
   6  -2  -6  5.9475  2.8934 
   6  -2  -6  5.4653  3.8177 
  -6   2   6  13.462   2.090 
  -6   2   6  9.4035  2.2906 
  -6   2   6  8.9614  2.1700 
   5  -2  -6  35.364   3.054 
   5  -2  -6  32.792   3.777 
  -5   2   6  36.127   2.451 
  -5   2   6  36.408   2.974 
  -5   2   6  37.614   2.612 
   4  -2  -6  43.200   2.773 
   4  -2  -6  45.410   3.858 
  -4   2   6  49.509   3.295 
  -4   2   6  43.401   2.451 
  -4   2   6  44.606   2.331 
   3  -2  -6  158.33    6.79 
   3  -2  -6  153.51    7.39 
   3  -2  -6  169.02    6.55 
  -3   2   6  160.42    6.47 
   2  -2  -6  135.79    8.32 
   2  -2  -6  145.31    5.99 
   2  -2  -6  129.08    4.82 
   2  -2  -6  132.53    6.43 
   2  -2  -6  144.99    6.35 
   2  -2  -6  131.09    5.43 
  -2   2   6  126.14    4.98 
  -2   2   6  124.54    6.91 
  -2   2   6  125.98    5.71 
   1  -2  -6  13.221   2.492 
   1  -2  -6  8.1577  0.7635 
   1  -2  -6  9.6848  1.5271 
   1  -2  -6  8.9213  0.8037 
   1  -2  -6  9.6044  1.3663 
  -1   2   6  7.1129  2.2906 
  -1   2   6  12.377   1.165 
  -1   2   6  10.087   1.206 
  -1   2   6  9.7652  1.0850 
   0  -2  -6  18.124   1.045 
   0  -2  -6  21.459   2.371 
   0  -2  -6  15.030   1.768 
   0  -2  -6  19.691   1.648 
   0  -2  -6  20.093   1.366 
   0   2   6  16.918   1.889 
   0   2   6  16.878   1.447 
   0   2   6  21.138   1.286 
   0   2   6  14.145   2.411 
   0   2   6  19.852   1.527 
  -1  -2  -6  198.00   10.21 
  -1  -2  -6  163.96    9.81 
  -1  -2  -6  191.57    9.77 
  -1  -2  -6  189.88    8.40 
  -1  -2  -6  177.34    7.35 
   1   2   6  192.37    8.52 
   1   2   6  198.68    8.16 
   1   2   6  184.69   11.90 
   1   2   6  188.63    8.04 
   1   2   6  180.35   11.45 
  -2  -2  -6  117.42    5.43 
  -2  -2  -6  110.43    5.67 
  -2  -2  -6  111.23    6.47 
   2   2   6  113.65    5.18 
   2   2   6  123.29    6.19 
   2   2   6  116.46    5.38 
   2   2   6  122.41    6.87 
   2   2   6  119.31    5.59 
  -3  -2  -6  130.60    7.31 
  -3  -2  -6  139.57    7.11 
   3   2   6  113.32    6.27 
   3   2   6  129.32    7.27 
   3   2   6  125.26    6.47 
   3   2   6  138.08    8.48 
  -4  -2  -6  63.253   4.139 
  -4  -2  -6  78.443   4.541 
  -4  -2  -6  65.382   3.777 
   4   2   6  65.463   3.536 
   4   2   6  68.477   4.742 
   4   2   6  63.936   3.777 
  -5  -2  -6  92.307   6.309 
  -5  -2  -6  97.089   5.546 
   5   2   6  86.359   7.716 
  -6  -2  -6  -1.407   2.893 
  -6  -2  -6  6.0681  3.6569 
   6   2   6  0.4420  3.5765 
  -7  -2  -6  45.169   5.505 
  -7  -2  -6  37.453   5.706 
   7   2   6  34.078   7.796 
   8  -3  -6  -7.274   5.063 
   8  -3  -6  5.0634  6.9120 
  -8   3   6  2.2906  3.6167 
   7  -3  -6  38.016   4.782 
   7  -3  -6  45.450   6.832 
  -7   3   6  40.306   3.376 
  -7   3   6  38.458   3.376 
  -7   3   6  39.020   3.496 
   6  -3  -6  32.872   4.581 
   6  -3  -6  32.993   3.617 
  -6   3   6  43.803   3.134 
  -6   3   6  39.583   3.014 
  -6   3   6  38.659   3.577 
   5  -3  -6  149.73    8.92 
   5  -3  -6  129.68    6.75 
  -5   3   6  144.03    6.51 
  -5   3   6  134.90    7.27 
  -5   3   6  137.88    7.55 
   4  -3  -6  2.6925  1.6878 
   4  -3  -6  6.7914  2.5317 
  -4   3   6  7.4344  1.4869 
  -4   3   6  4.5410  1.4467 
   3  -3  -6  113.00    6.07 
   3  -3  -6  125.54    5.79 
   3  -3  -6  116.42    5.22 
  -3   3   6  113.89    5.22 
  -3   3   6  119.95    5.22 
   2  -3  -6  2.2504  1.0448 
   2  -3  -6  4.5008  1.9691 
   2  -3  -6  0.0000  0.6028 
   2  -3  -6  0.8841  0.5224 
  -2   3   6  0.2813  1.6476 
  -2   3   6  0.2009  0.8439 
  -2   3   6  -1.567   1.125 
  -2   3   6  0.7233  0.9645 
   1  -3  -6  176.46    6.79 
   1  -3  -6  186.82   12.54 
   1  -3  -6  195.58   10.17 
  -1   3   6  188.67   10.77 
  -1   3   6  193.29    6.95 
  -1   3   6  190.24   12.10 
  -1   3   6  189.28    9.89 
  -1   3   6  186.94   10.17 
   0  -3  -6  36.690   2.451 
   0  -3  -6  31.747   2.492 
   0  -3  -6  30.863   2.371 
   0  -3  -6  28.371   3.014 
   0   3   6  36.850   2.612 
   0   3   6  35.203   1.648 
   0   3   6  30.260   3.295 
   0   3   6  30.340   1.808 
   0   3   6  34.198   2.492 
   0   3   6  33.917   1.768 
  -1  -3  -6  504.65   31.02 
  -1  -3  -6  479.54   23.43 
  -1  -3  -6  516.15   28.41 
   1   3   6  502.44   28.89 
   1   3   6  524.91   37.37 
   1   3   6  508.07   23.31 
   1   3   6  505.42   25.92 
   1   3   6  500.76   22.34 
   1   3   6  510.64   27.77 
  -2  -3  -6  12.096   1.487 
  -2  -3  -6  10.167   1.648 
  -2  -3  -6  12.016   1.969 
   2   3   6  12.217   1.607 
   2   3   6  13.020   1.366 
   2   3   6  13.904   2.130 
   2   3   6  12.980   1.607 
   2   3   6  10.609   1.366 
  -3  -3  -6  96.848   5.144 
  -3  -3  -6  93.995   5.747 
  -3  -3  -6  89.574   4.943 
   3   3   6  77.237   5.104 
   3   3   6  93.553   4.662 
   3   3   6  97.330   6.269 
   3   3   6  94.638   4.903 
  -4  -3  -6  80.492   4.260 
  -4  -3  -6  77.076   4.501 
   4   3   6  74.505   4.099 
   4   3   6  81.256   5.988 
   4   3   6  67.713   4.220 
  -5  -3  -6  122.25    7.39 
  -5  -3  -6  133.66    7.35 
   5   3   6  123.93   10.61 
  -6  -3  -6  11.453   3.255 
  -6  -3  -6  6.5503  3.2952 
   6   3   6  4.0588  4.3803 
   8  -4  -6  21.138   6.952 
  -8   4   6  23.469   4.461 
   7  -4  -6  14.949   3.777 
   7  -4  -6  8.6801  4.9027 
  -7   4   6  15.391   3.416 
  -7   4   6  17.400   3.014 
  -7   4   6  15.271   3.054 
   6  -4  -6  34.279   3.175 
   6  -4  -6  30.300   4.862 
  -6   4   6  35.645   2.934 
  -6   4   6  38.820   3.255 
  -6   4   6  44.687   3.777 
   5  -4  -6  11.212   2.090 
   5  -4  -6  6.5503  3.0943 
  -5   4   6  15.110   1.969 
  -5   4   6  10.569   1.889 
   4  -4  -6  27.326   3.215 
   4  -4  -6  27.527   2.170 
   4  -4  -6  27.286   1.728 
  -4   4   6  27.688   2.371 
  -4   4   6  32.751   2.492 
   3  -4  -6  6.6709  0.9645 
   3  -4  -6  6.3092  1.1252 
   3  -4  -6  7.1531  2.4112 
  -3   4   6  6.7110  1.5672 
  -3   4   6  6.7110  1.6476 
   2  -4  -6  141.66    8.36 
   2  -4  -6  145.07    7.03 
  -2   4   6  139.77    7.31 
  -2   4   6  150.01    7.27 
  -2   4   6  141.25    8.40 
  -2   4   6  140.13    8.12 
   1  -4  -6  4.2999  1.3663 
   1  -4  -6  5.4653  1.8485 
   1  -4  -6  3.6167  1.3663 
  -1   4   6  3.2952  1.3663 
  -1   4   6  3.4962  1.4065 
  -1   4   6  3.8177  1.4065 
  -1   4   6  4.2195  2.0093 
   0  -4  -6  268.48   16.11 
   0  -4  -6  273.22   17.96 
   0   4   6  246.58   16.40 
   0   4   6  259.56   10.53 
   0   4   6  251.20   11.98 
   0   4   6  256.87    9.32 
   0   4   6  254.34   19.93 
   0   4   6  263.94   14.83 
  -1  -4  -6  49.589   3.657 
  -1  -4  -6  54.693   3.054 
   1   4   6  41.432   5.385 
   1   4   6  48.022   2.974 
   1   4   6  51.197   2.692 
   1   4   6  52.081   3.134 
   1   4   6  49.750   3.898 
   1   4   6  54.492   2.893 
  -2  -4  -6  169.06   10.17 
  -2  -4  -6  175.29   11.25 
   2   4   6  178.51    9.00 
   2   4   6  151.42    9.52 
   2   4   6  183.69    9.20 
   2   4   6  190.08   13.06 
   2   4   6  184.13   10.97 
  -3  -4  -6  23.629   2.210 
  -3  -4  -6  27.728   2.773 
   3   4   6  24.513   3.175 
   3   4   6  18.164   1.889 
   3   4   6  20.173   1.929 
  -4  -4  -6  142.26    7.47 
  -4  -4  -6  133.66    8.16 
   4   4   6  139.57   10.93 
  -5  -4  -6  2.7728  2.8934 
  -5  -4  -6  1.7280  3.1747 
   5   4   6  0.8439  3.4158 
  -6  -4  -6  21.098   4.541 
  -6  -4  -6  13.703   3.858 
   6   4   6  14.507   4.581 
   6   4   6  9.9661  6.9923 
   8  -5  -6  15.512   7.113 
  -8   5   6  8.8409  4.0588 
   7  -5  -6  3.3354  5.5055 
  -7   5   6  4.6616  2.6925 
  -7   5   6  5.7466  3.1747 
  -7   5   6  8.2783  3.1747 
   6  -5  -6  30.662   4.380 
   6  -5  -6  27.527   3.175 
  -6   5   6  26.040   3.134 
  -6   5   6  29.938   3.094 
   5  -5  -6  -1.125   1.969 
   5  -5  -6  1.6074  3.0943 
  -5   5   6  1.2056  1.8485 
  -5   5   6  -2.733   1.728 
   4  -5  -6  109.31    4.34 
   4  -5  -6  113.28    6.59 
   4  -5  -6  108.86    4.82 
   4  -5  -6  118.27    7.72 
  -4   5   6  121.48    5.63 
  -4   5   6  117.46    6.71 
   3  -5  -6  7.1531  2.3710 
   3  -5  -6  6.6307  1.5271 
  -3   5   6  10.207   1.808 
  -3   5   6  6.9522  1.4065 
   2  -5  -6  241.60   11.09 
   2  -5  -6  238.62   15.11 
   2  -5  -6  232.64   13.34 
  -2   5   6  228.46   11.37 
  -2   5   6  228.18   11.57 
  -2   5   6  215.72   12.34 
   1  -5  -6  82.381   5.988 
   1  -5  -6  82.783   5.706 
   1  -5  -6  83.587   5.747 
  -1   5   6  87.927   4.501 
  -1   5   6  87.284   5.747 
  -1   5   6  87.163   5.666 
  -1   5   6  81.015   4.742 
   0  -5  -6  58.069   3.496 
   0  -5  -6  57.827   4.099 
   0  -5  -6  67.914   4.019 
   0   5   6  54.693   4.260 
   0   5   6  65.141   4.179 
   0   5   6  58.752   2.250 
   0   5   6  57.546   2.451 
   0   5   6  64.940   4.019 
   0   5   6  50.674   4.541 
  -1  -5  -6  438.15   23.15 
  -1  -5  -6  442.49   24.11 
   1   5   6  431.44   20.29 
   1   5   6  395.43   32.55 
   1   5   6  415.92   30.58 
   1   5   6  427.54   18.04 
   1   5   6  432.28   25.32 
  -2  -5  -6  11.212   2.451 
   2   5   6  14.387   2.692 
   2   5   6  13.543   1.808 
   2   5   6  14.628   1.768 
  -3  -5  -6  324.70   16.64 
  -3  -5  -6  307.54   15.67 
   3   5   6  322.73   16.40 
   3   5   6  352.43   20.49 
   3   5   6  301.31   19.69 
  -4  -5  -6  18.405   2.532 
  -4  -5  -6  11.614   2.652 
   4   5   6  11.935   3.818 
  -5  -5  -6  25.799   4.059 
  -5  -5  -6  24.513   4.139 
   5   5   6  22.343   4.983 
  -6  -5  -6  9.2026  4.0588 
  -6  -5  -6  1.7280  4.7821 
   6   5   6  -1.085   4.983 
   6   5   6  -1.889   6.992 
   8  -6  -6  9.2427  8.3185 
   7  -6  -6  20.213   5.706 
  -7   6   6  20.937   4.099 
  -7   6   6  18.124   3.777 
   6  -6  -6  3.3756  4.2597 
  -6   6   6  1.2056  2.5719 
  -6   6   6 -0.2009  2.1700 
   5  -6  -6  31.787   4.059 
  -5   6   6  29.898   2.733 
  -5   6   6  32.149   3.094 
   4  -6  -6  9.5240  2.6925 
  -4   6   6  9.0820  2.2102 
  -4   6   6  8.8811  2.0897 
   3  -6  -6  121.00    8.32 
   3  -6  -6  123.89    6.83 
   3  -6  -6  133.58    6.67 
  -3   6   6  114.13    6.99 
  -3   6   6  124.94    7.03 
   2  -6  -6  65.423   4.340 
   2  -6  -6  71.089   4.862 
  -2   6   6  62.409   3.858 
  -2   6   6  62.569   3.577 
  -2   6   6  65.865   4.260 
   1  -6  -6  217.12   13.46 
   1  -6  -6  233.44   12.90 
  -1   6   6  234.04   13.66 
  -1   6   6  200.73   14.02 
  -1   6   6  231.11   14.75 
  -1   6   6  222.67   12.98 
   0  -6  -6  220.46   12.94 
   0  -6  -6  214.75   13.02 
   0  -6  -6  212.42   13.74 
   0   6   6  200.21    8.12 
   0   6   6  204.14   14.07 
   0   6   6  208.85    8.08 
   0   6   6  214.39    7.31 
   0   6   6  212.78   15.15 
   0   6   6  216.64   13.26 
   0   6   6  224.88   11.94 
  -1  -6  -6  101.51    6.39 
  -1  -6  -6  97.370   5.907 
   1   6   6  99.380   7.716 
   1   6   6  98.576   5.907 
   1   6   6  84.873   5.666 
   1   6   6  95.843   5.063 
   1   6   6  99.179   6.872 
   1   6   6  94.678   5.023 
  -2  -6  -6  62.248   3.978 
  -2  -6  -6  70.767   4.742 
   2   6   6  60.279   4.019 
   2   6   6  58.752   4.782 
   2   6   6  58.953   3.617 
  -3  -6  -6  3.4962  2.5719 
  -3  -6  -6  6.4297  2.3710 
   3   6   6  5.9877  1.8485 
   3   6   6  6.0279  2.9336 
   3   6   6  5.6260  1.8887 
  -4  -6  -6  2.6523  3.4560 
  -4  -6  -6  0.7233  2.2504 
   4   6   6  0.6028  3.6569 
  -5  -6  -6  29.416   5.345 
  -5  -6  -6  31.265   4.662 
   5   6   6  19.008   5.385 
   5   6   6  29.054   5.385 
   8  -7  -6  13.583   8.118 
   7  -7  -6  5.7466  5.1036 
  -7   7   6  4.1793  3.6569 
  -7   7   6  -5.224   3.496 
   6  -7  -6  20.374   5.023 
  -6   7   6  13.623   3.215 
  -6   7   6  16.034   2.974 
   5  -7  -6  29.778   3.818 
   5  -7  -6  20.213   4.501 
  -5   7   6  25.076   3.416 
  -5   7   6  24.112   3.175 
   4  -7  -6  22.826   3.295 
   4  -7  -6  31.265   3.577 
  -4   7   6  24.112   3.014 
  -4   7   6  23.428   2.692 
   3  -7  -6  -2.733   2.492 
   3  -7  -6  2.9336  2.2504 
  -3   7   6  -1.246   1.607 
  -3   7   6  1.4467  2.0495 
   2  -7  -6  268.96   16.40 
   2  -7  -6  281.10   17.80 
  -2   7   6  274.79   15.27 
  -2   7   6  249.84   14.27 
   1  -7  -6  40.507   3.577 
   1  -7  -6  43.843   4.059 
  -1   7   6  39.824   3.215 
  -1   7   6  44.325   3.858 
  -1   7   6  37.373   3.416 
  -1   7   6  46.294   5.586 
   0  -7  -6  103.20    6.31 
   0  -7  -6  93.472   6.711 
   0  -7  -6  76.835   6.791 
   0   7   6  104.80    6.83 
   0   7   6  107.10    7.55 
   0   7   6  89.052   4.581 
   0   7   6  107.14    4.66 
   0   7   6  91.182   7.756 
   0   7   6  99.139   3.978 
   0   7   6  108.02    6.63 
  -1  -7  -6  24.112   3.134 
  -1  -7  -6  19.289   2.612 
   1   7   6  19.611   2.009 
   1   7   6  18.043   2.291 
   1   7   6  16.155   2.291 
   1   7   6  22.986   3.577 
  -2  -7  -6  47.861   3.898 
  -2  -7  -6  43.119   4.059 
   2   7   6  38.980   3.134 
   2   7   6  50.956   5.104 
   2   7   6  47.942   3.978 
   2   7   6  50.031   4.099 
  -3  -7  -6  37.614   3.858 
  -3  -7  -6  34.359   3.858 
   3   7   6  30.702   3.255 
   3   7   6  41.191   5.787 
   3   7   6  31.466   3.134 
   3   7   6  44.084   4.420 
  -4  -7  -6  344.47   21.22 
  -4  -7  -6  332.94   23.75 
   4   7   6  367.90   24.47 
   4   7   6  387.43   27.17 
  -5  -7  -6  2.6121  3.6971 
  -5  -7  -6  -1.728   3.577 
   5   7   6  -1.165   5.385 
   7  -8  -6  11.172   4.621 
   7  -8  -6  17.923   5.988 
  -7   8   6  10.408   4.019 
  -7   8   6  13.261   3.898 
   6  -8  -6  37.011   5.827 
   6  -8  -6  45.732   5.184 
  -6   8   6  35.926   4.380 
  -6   8   6  38.217   4.340 
   5  -8  -6  2.6523  2.4915 
   5  -8  -6  6.0279  4.0588 
  -5   8   6  2.6925  2.6523 
  -5   8   6  11.212   3.014 
   4  -8  -6  11.533   3.255 
   4  -8  -6  20.133   4.139 
  -4   8   6  17.200   2.291 
  -4   8   6  13.502   2.492 
   3  -8  -6  56.662   4.139 
   3  -8  -6  50.232   4.621 
  -3   8   6  53.729   3.697 
  -3   8   6  50.715   3.938 
   2  -8  -6  68.236   4.822 
   2  -8  -6  62.007   5.345 
  -2   8   6  64.378   4.501 
  -2   8   6  71.973   4.179 
   1  -8  -6  96.727   6.711 
   1  -8  -6  78.443   6.832 
  -1   8   6  98.174   5.706 
  -1   8   6  103.60    5.75 
   0  -8  -6  15.391   3.014 
   0  -8  -6  9.4035  2.6925 
   0   8   6  13.302   2.009 
   0   8   6  14.266   3.054 
   0   8   6  7.9970  2.3710 
  -1  -8  -6  77.961   4.782 
  -1  -8  -6  68.396   5.425 
   1   8   6  86.400   6.952 
   1   8   6  63.453   4.220 
   1   8   6  73.460   4.742 
   1   8   6  70.808   5.345 
  -2  -8  -6  15.873   2.733 
  -2  -8  -6  14.547   2.893 
   2   8   6  12.458   2.733 
   2   8   6  11.051   4.420 
   2   8   6  14.266   2.291 
   2   8   6  8.3587  2.3710 
  -3  -8  -6  48.424   5.264 
  -3  -8  -6  58.712   5.184 
   3   8   6  51.036   6.751 
   3   8   6  50.473   5.465 
  -4  -8  -6  -1.969   3.175 
   4   8   6  -5.907   5.305 
   7  -9  -6  12.578   6.711 
   7  -9  -6  4.8625  4.6214 
  -7   9   6  12.056   4.541 
  -7   9   6  2.8934  4.2999 
   6  -9  -6  0.3215  3.4158 
   6  -9  -6  2.8934  5.2643 
  -6   9   6  7.0727  3.8578 
  -6   9   6  3.6569  3.7775 
   5  -9  -6  130.04    9.81 
   5  -9  -6  136.11   10.25 
  -5   9   6  117.10    8.68 
  -5   9   6  130.48    7.64 
   4  -9  -6  7.7157  3.6971 
   4  -9  -6  14.748   3.617 
  -4   9   6  9.3231  3.0541 
  -4   9   6  8.2381  2.6523 
   3  -9  -6  387.15   20.62 
   3  -9  -6  395.27   23.63 
  -3   9   6  402.06   20.62 
  -3   9   6  383.86   22.42 
   2  -9  -6  26.201   3.416 
   2  -9  -6  18.928   3.215 
  -2   9   6  25.438   3.416 
  -2   9   6  30.421   3.134 
   1  -9  -6  32.149   3.657 
   1  -9  -6  31.988   3.777 
  -1   9   6  30.180   3.255 
  -1   9   6  29.657   3.536 
   0  -9  -6  16.115   3.094 
   0  -9  -6  18.084   2.934 
   0   9   6  19.209   2.813 
   0   9   6  8.5596  3.9784 
   0   9   6  18.445   2.733 
  -1  -9  -6  92.468   7.113 
  -1  -9  -6  89.936   7.676 
   1   9   6  84.109   5.827 
   1   9   6  98.496   7.635 
   1   9   6  77.157   6.028 
  -2  -9  -6  7.1531  3.2551 
  -2  -9  -6  10.408   3.536 
   2   9   6  6.0279  2.6925 
   2   9   6  7.4746  2.8532 
   2   9   6  2.1700  4.5812 
  -3  -9  -6  18.003   3.938 
  -3  -9  -6  23.469   4.019 
   3   9   6  28.291   6.028 
   6 -10  -6  49.951   6.832 
   6 -10  -6  46.334   5.706 
  -6  10   6  43.039   5.224 
  -6  10   6  36.730   5.505 
   5 -10  -6  0.0402  3.4158 
  -5  10   6  2.9336  4.0186 
  -5  10   6  4.0186  3.7373 
   4 -10  -6  79.689   6.952 
  -4  10   6  67.271   5.907 
  -4  10   6  73.259   5.546 
   3 -10  -6  15.190   3.295 
  -3  10   6  6.2288  2.9738 
  -3  10   6  6.9120  3.2952 
   2 -10  -6  17.561   4.059 
  -2  10   6  14.387   3.416 
  -2  10   6  20.535   3.295 
   1 -10  -6  3.4560  3.3354 
   1 -10  -6  -1.688   3.376 
  -1  10   6  3.2952  2.9336 
  -1  10   6  5.3849  2.5719 
   0 -10  -6  61.002   5.948 
   0 -10  -6  53.005   4.782 
   0  10   6  48.303   4.621 
   0  10   6  50.795   4.702 
  -1 -10  -6  -5.586   3.295 
  -1 -10  -6  -4.300   3.416 
   1  10   6  1.9289  3.0139 
   1  10   6  2.6121  3.2149 
  -2 -10  -6  41.753   5.104 
  -2 -10  -6  40.708   5.023 
   2  10   6  48.384   6.832 
   5 -11  -6  23.951   4.461 
  -5  11   6  16.798   4.139 
  -5  11   6  20.093   5.385 
   4 -11  -6 -0.9645  3.5765 
  -4  11   6  -3.938   3.175 
  -4  11   6  5.1438  3.9382 
   3 -11  -6  76.032   7.394 
  -3  11   6  80.532   6.229 
  -3  11   6  65.744   6.390 
   2 -11  -6  260.20   20.37 
  -2  11   6  290.26   13.34 
  -2  11   6  279.69   19.69 
   1 -11  -6  5.4653  4.3803 
   1 -11  -6  4.1793  4.0990 
  -1  11   6  13.181   3.978 
  -1  11   6  8.8007  3.8177 
   0 -11  -6  13.462   3.416 
   0 -11  -6  11.815   4.501 
   0  11   6  14.145   3.978 
   0  11   6  9.4437  3.3354 
  -1 -11  -6  26.282   4.541 
  -1 -11  -6  25.639   4.742 
   1  11   6  21.821   4.461 
   4 -12  -6  -1.447   5.385 
  -4  12   6  4.6214  4.4606 
  -4  12   6  1.0046  4.6214 
   3 -12  -6  16.476   5.626 
  -3  12   6  10.649   4.621 
  -3  12   6  14.708   3.858 
   2 -12  -6  12.377   5.385 
   2 -12  -6  21.299   4.943 
  -2  12   6  11.694   4.099 
  -2  12   6  13.663   4.983 
   1 -12  -6  22.424   4.461 
   1 -12  -6  26.482   5.264 
  -1  12   6  12.016   4.782 
  -1  12   6  26.724   5.305 
   0 -12  -6  4.0186  3.3354 
   0 -12  -6  8.3988  3.8177 
   1  12  -7  5.1036  4.9830 
   1  12  -7  -2.451   4.139 
  -1 -12   7  -3.737   4.420 
   0  12  -7  47.098   5.144 
   0  12  -7  46.254   5.425 
   0 -12   7  40.025   5.827 
   0 -12   7  41.351   5.747 
  -1  12  -7  3.5765  4.3803 
  -1  12  -7 -0.3215  3.8578 
   1 -12   7  5.5055  3.8177 
   1 -12   7  12.618   4.662 
  -2  12  -7  42.436   5.425 
  -2  12  -7  50.353   5.706 
   2 -12   7  39.181   5.586 
   2 -12   7  43.280   5.104 
  -3  12  -7  1.7280  4.3803 
  -3  12  -7  1.7682  3.8980 
   3 -12   7  7.3942  3.2149 
   3 -12   7  0.0402  3.4158 
  -4  12  -7  19.852   4.742 
  -4  12  -7  19.571   5.626 
   4 -12   7  31.908   6.309 
   2  11  -7  4.2999  4.8625 
   2  11  -7  -3.054   4.300 
  -2 -11   7  0.7635  3.4158 
   1  11  -7  73.259   6.832 
   1  11  -7  74.866   6.349 
  -1 -11   7  65.021   6.390 
   0  11  -7  -7.997   5.666 
   0  11  -7  6.2690  3.1747 
   0 -11   7  9.0820  4.0990 
   0 -11   7  7.3540  3.4560 
  -1  11  -7  168.82   12.38 
  -1  11  -7  162.55   11.25 
   1 -11   7  157.29   11.90 
   1 -11   7  155.56   13.14 
  -2  11  -7 -0.6028  3.1345 
  -2  11  -7  3.2551  3.4962 
   2 -11   7  -2.532   3.215 
   2 -11   7  -1.165   2.934 
  -3  11  -7  33.917   4.662 
  -3  11  -7  29.456   4.581 
   3 -11   7  33.756   3.737 
   3 -11   7  43.039   6.309 
  -4  11  -7  63.132   6.550 
  -4  11  -7  47.701   5.224 
   4 -11   7  50.072   6.631 
  -5  11  -7  40.789   4.862 
   5 -11   7  58.993   7.073 
   3  10  -7  35.886   5.666 
   3  10  -7  23.187   4.702 
  -3 -10   7  25.156   4.702 
   2  10  -7  69.763   6.470 
   2  10  -7  59.395   5.948 
  -2 -10   7  60.640   5.747 
   1  10  -7  45.089   4.702 
   1  10  -7  45.772   5.063 
  -1 -10   7  41.070   4.300 
   0  10  -7  84.230   6.671 
   0  10  -7  85.475   5.867 
   0 -10   7  83.627   6.309 
   0 -10   7  84.752   6.671 
  -1  10  -7  37.051   4.019 
  -1  10  -7  25.840   4.099 
   1 -10   7  25.799   4.340 
   1 -10   7  22.504   3.536 
  -2  10  -7  212.26   13.22 
  -2  10  -7  197.71   12.86 
   2 -10   7  207.60   15.71 
   2 -10   7  203.94   11.61 
  -3  10  -7  3.8980  3.6971 
  -3  10  -7  0.0804  2.8532 
   3 -10   7  0.4019  2.5719 
   3 -10   7  0.1607  2.7326 
  -4  10  -7  19.972   3.657 
  -4  10  -7  20.374   4.220 
   4 -10   7  15.070   4.300 
  -5  10  -7  14.587   3.777 
   5 -10   7  16.195   4.179 
  -6  10  -7  8.1979  4.3803 
   6 -10   7  17.762   6.229 
   6 -10   7  8.2783  5.5858 
   4   9  -7  98.737   8.519 
  -4  -9   7  85.274   8.560 
   3   9  -7  98.375   7.917 
   3   9  -7  86.118   6.590 
  -3  -9   7  94.276   7.113 
   2   9  -7  183.37   10.89 
   2   9  -7  155.52    9.36 
  -2  -9   7  158.21   10.25 
   1   9  -7  18.847   3.255 
   1   9  -7  10.087   2.733 
   1   9  -7  13.261   3.335 
  -1  -9   7  12.659   2.974 
   0   9  -7  161.59    9.00 
   0   9  -7  174.85   10.41 
   0  -9   7  162.79    9.52 
   0  -9   7  157.61    9.20 
  -1   9  -7  30.742   3.657 
  -1   9  -7  31.385   3.496 
   1  -9   7  28.291   3.657 
   1  -9   7  29.095   3.054 
  -2   9  -7  79.287   5.505 
  -2   9  -7  86.440   6.028 
   2  -9   7  86.520   6.309 
   2  -9   7  84.913   5.505 
  -3   9  -7  24.634   3.094 
  -3   9  -7  27.969   3.697 
   3  -9   7  23.710   2.813 
   3  -9   7  23.790   3.335 
  -4   9  -7  54.653   4.220 
   4  -9   7  50.112   5.345 
  -5   9  -7  2.1700  3.0541 
   5  -9   7  11.895   3.858 
  -6   9  -7  30.461   4.420 
   6  -9   7  30.863   5.465 
   5   8  -7  48.143   6.590 
  -5  -8   7  53.648   6.028 
   4   8  -7  18.767   4.742 
  -4  -8   7  20.093   4.300 
   3   8  -7  93.995   6.189 
   3   8  -7  99.581   7.153 
   3   8  -7  102.23    8.64 
  -3  -8   7  104.97    6.15 
   2   8  -7 -0.7233  3.3354 
   2   8  -7  -3.898   2.934 
   2   8  -7  0.0402  2.6523 
  -2  -8   7  -1.889   2.090 
   1   8  -7  301.59   17.84 
   1   8  -7  329.24   17.20 
   1   8  -7  321.00   15.79 
  -1  -8   7  317.99   20.33 
   0   8  -7  0.6430  2.6925 
   0   8  -7  0.7635  2.3308 
   0  -8   7  -2.371   2.371 
   0  -8   7  2.5317  1.8084 
  -1   8  -7  440.68   22.54 
  -1   8  -7  436.74   26.00 
   1  -8   7  446.42   25.00 
   1  -8   7  409.65   21.18 
  -2   8  -7  11.172   2.532 
  -2   8  -7  14.105   2.411 
   2  -8   7  13.382   1.849 
   2  -8   7  8.8811  2.7728 
  -3   8  -7  46.495   4.260 
  -3   8  -7  51.398   3.536 
   3  -8   7  45.651   3.295 
   3  -8   7  43.280   3.938 
  -4   8  -7  2.8130  2.2906 
   4  -8   7  2.8532  3.0541 
  -5   8  -7  134.34    7.96 
   5  -8   7  116.66    8.88 
  -6   8  -7  -5.666   3.134 
   6  -8   7  -1.286   4.139 
   7  -8   7  8.8007  6.2690 
   7  -8   7  9.4839  5.3447 
   5   7  -7  63.896   7.193 
  -5  -7   7  70.325   6.269 
   4   7  -7  69.321   6.470 
   4   7  -7  59.837   5.867 
  -4  -7   7  69.883   5.144 
   3   7  -7  68.517   6.028 
   3   7  -7  65.865   5.345 
  -3  -7   7  64.780   4.742 
   2   7  -7  339.21   17.12 
   2   7  -7  318.71   14.99 
   2   7  -7  348.81   19.73 
  -2  -7   7  309.63   19.65 
   1   7  -7  24.915   3.134 
   1   7  -7  23.187   3.054 
   1   7  -7  19.932   2.612 
  -1  -7   7  22.866   2.893 
  -1  -7   7  26.241   2.492 
   0   7  -7  177.42    8.80 
   0   7  -7  184.49   12.06 
   0   7  -7  187.79    9.64 
   0  -7   7  181.44    9.56 
   0  -7   7  188.71   11.13 
   0  -7   7  149.93   13.66 
  -1   7  -7  140.33    7.92 
  -1   7  -7  129.92    6.91 
   1  -7   7  114.37    6.59 
   1  -7   7  137.44    7.84 
  -2   7  -7  45.330   3.697 
  -2   7  -7  48.665   3.818 
   2  -7   7  42.637   3.295 
   2  -7   7  41.793   3.094 
  -3   7  -7  9.9661  2.5317 
  -3   7  -7  12.699   2.170 
  -3   7  -7  8.3587  1.0448 
   3  -7   7  10.609   1.768 
   3  -7   7  10.046   2.692 
  -4   7  -7  151.98    8.60 
  -4   7  -7  150.82    8.24 
   4  -7   7  139.36    9.32 
  -5   7  -7  5.2643  2.3710 
  -5   7  -7  5.9475  2.0495 
   5  -7   7  8.3988  3.3354 
  -6   7  -7  62.288   4.822 
  -6   7  -7  63.333   5.264 
   6  -7   7  67.352   7.394 
   7  -7   7  2.3710  4.9027 
   7  -7   7  -2.612   6.590 
   6   6  -7  54.854   9.002 
   6   6  -7  55.296   7.033 
  -6  -6   7  52.402   5.706 
   5   6  -7  4.1793  5.0634 
   5   6  -7  9.1222  4.2597 
  -5  -6   7  5.4251  3.4560 
  -5  -6   7  8.8007  3.1747 
   4   6  -7  174.57   10.57 
   4   6  -7  186.74   11.49 
  -4  -6   7  168.18   10.73 
  -4  -6   7  153.67   11.69 
   3   6  -7  37.935   4.260 
   3   6  -7  42.838   4.461 
  -3  -6   7  35.886   2.451 
  -3  -6   7  29.979   2.210 
  -3  -6   7  38.257   3.376 
   2   6  -7  113.40    7.39 
   2   6  -7  115.65    6.87 
   2   6  -7  102.11    5.02 
   2   6  -7  102.96    6.35 
  -2  -6   7  105.57    6.39 
  -2  -6   7  94.316   4.260 
   1   6  -7  20.093   2.492 
   1   6  -7  19.008   2.974 
   1   6  -7  19.852   2.773 
  -1  -6   7  16.315   4.220 
  -1  -6   7  15.351   1.768 
  -1  -6   7  19.008   2.411 
   0   6  -7  70.084   4.541 
   0   6  -7  69.240   4.300 
   0   6  -7  63.413   4.662 
   0  -6   7  80.090   4.461 
   0  -6   7  72.134   4.179 
   0  -6   7  54.773   5.827 
  -1   6  -7  168.18   10.29 
  -1   6  -7  194.70   11.41 
  -1   6  -7  184.05    8.80 
   1  -6   7  184.69    9.68 
   1  -6   7  201.85    9.24 
  -2   6  -7 1229.41   56.74 
  -2   6  -7 1220.81   64.02 
   2  -6   7 1087.35   51.16 
   2  -6   7 1213.25   64.66 
  -3   6  -7  20.374   2.492 
  -3   6  -7  21.339   2.371 
  -3   6  -7  17.400   1.607 
   3  -6   7  15.753   1.607 
   3  -6   7  17.843   2.733 
  -4   6  -7  31.345   2.492 
  -4   6  -7  28.693   2.773 
  -4   6  -7  31.345   2.331 
   4  -6   7  30.340   3.657 
  -5   6  -7  45.531   3.295 
  -5   6  -7  43.401   3.858 
  -5   6  -7  47.741   3.657 
   5  -6   7  39.422   4.139 
  -6   6  -7  0.3215  2.8130 
  -6   6  -7  5.3045  2.6925 
  -6   6  -7 -0.8037  2.0897 
   6  -6   7  -1.246   3.617 
  -7   6  -7  58.832   5.546 
  -7   6  -7  64.860   5.706 
   7  -6   7  60.520   7.193 
   6   5  -7  3.8177  6.3896 
   6   5  -7 -0.6430  5.4251 
  -6  -5   7  -2.009   3.295 
  -6  -5   7  0.5626  2.8532 
  -6  -5   7 -0.4420  3.2149 
   5   5  -7  67.994   6.390 
   5   5  -7  73.178   6.992 
  -5  -5   7  71.169   4.300 
  -5  -5   7  55.979   4.179 
  -5  -5   7  63.092   5.224 
  -5  -5   7  52.523   4.300 
   4   5  -7  7.0727  3.1345 
   4   5  -7  6.2288  3.1345 
  -4  -5   7  13.462   2.532 
  -4  -5   7  10.529   2.492 
  -4  -5   7  10.127   1.808 
  -4  -5   7  7.3540  1.6878 
   3   5  -7  170.59   10.57 
   3   5  -7  184.21   10.29 
   3   5  -7  203.10    9.36 
  -3  -5   7  182.97   10.37 
  -3  -5   7  174.21    8.48 
   2   5  -7  10.127   2.170 
   2   5  -7  11.654   3.134 
   2   5  -7  9.6446  1.2056 
   2   5  -7  10.609   2.090 
  -2  -5   7  10.247   1.849 
  -2  -5   7  9.2427  1.1252 
   1   5  -7  74.223   5.425 
   1   5  -7  75.268   4.099 
   1   5  -7  72.415   5.305 
  -1  -5   7  65.583   4.461 
  -1  -5   7  72.174   4.019 
   0   5  -7  4.1391  2.1299 
   0   5  -7  4.8223  1.8485 
   0   5  -7  5.5858  1.8485 
   0   5  -7  5.1438  1.6476 
   0  -5   7  3.8177  1.7280 
   0  -5   7  4.7017  3.2551 
   0  -5   7  3.4962  1.1252 
  -1   5  -7  861.38   41.55 
  -1   5  -7  927.93   42.48 
  -1   5  -7  900.89   35.69 
   1  -5   7  916.12   50.96 
   1  -5   7  900.12   38.42 
  -2   5  -7  38.860   1.969 
  -2   5  -7  41.753   2.652 
  -2   5  -7  39.945   2.049 
  -2   5  -7  40.306   3.215 
  -2   5  -7  35.002   2.572 
   2  -5   7  38.418   2.813 
   2  -5   7  34.037   2.009 
  -3   5  -7  4.5008  1.1252 
  -3   5  -7  7.5951  1.8485 
  -3   5  -7  7.1129  2.1299 
  -3   5  -7  4.4606  1.1654 
   3  -5   7  2.2906  0.8037 
   3  -5   7  4.2195  1.5271 
   3  -5   7  5.3849  2.2504 
  -4   5  -7  32.551   2.291 
  -4   5  -7  29.778   2.733 
  -4   5  -7  28.894   2.130 
   4  -5   7  28.291   3.657 
  -5   5  -7  79.648   4.983 
  -5   5  -7  74.746   5.264 
  -5   5  -7  76.192   4.501 
   5  -5   7  86.520   6.189 
  -6   5  -7  14.186   3.094 
  -6   5  -7  17.079   3.215 
   6  -5   7  18.968   4.862 
  -7   5  -7  41.994   4.501 
  -7   5  -7  28.492   4.903 
   7  -5   7  38.779   5.586 
   7   4  -7  31.305   8.640 
   7   4  -7  33.113   8.399 
  -7  -4   7  27.125   3.376 
   6   4  -7  62.047   6.912 
   6   4  -7  67.392   7.716 
  -6  -4   7  49.951   4.822 
  -6  -4   7  64.579   5.827 
  -6  -4   7  62.650   4.782 
   5   4  -7  164.60    9.60 
   5   4  -7  167.98   11.81 
  -5  -4   7  162.27    9.04 
  -5  -4   7  152.42    9.56 
  -5  -4   7  156.08   10.89 
  -5  -4   7  154.84    8.56 
   4   4  -7  92.950   6.349 
   4   4  -7  97.169   5.747 
  -4  -4   7  80.894   5.305 
  -4  -4   7  88.087   5.023 
  -4  -4   7  90.780   4.501 
   3   4  -7  -2.572   2.210 
   3   4  -7  3.2149  1.5672 
   3   4  -7  3.2551  2.4915 
   3   4  -7  1.2458  1.5672 
  -3  -4   7  1.2859  1.4467 
  -3  -4   7  0.5626  1.4467 
  -3  -4   7  -2.411   1.648 
  -3  -4   7 -0.9243  1.1252 
  -3  -4   7  -1.808   1.808 
   2   4  -7  313.21   14.43 
   2   4  -7  287.01   10.93 
   2   4  -7  297.25   12.74 
   2   4  -7  281.78   12.46 
   2   4  -7  302.24   13.98 
  -2  -4   7  295.49   12.06 
  -2  -4   7  283.19   16.24 
  -2  -4   7  333.90   15.91 
   1   4  -7  353.76   15.19 
   1   4  -7  334.07   13.82 
   1   4  -7  367.22   21.70 
   1   4  -7  373.25   15.47 
  -1  -4   7  395.11   20.78 
  -1  -4   7  332.62   21.50 
   0   4  -7  319.12   15.07 
   0   4  -7  281.10   17.84 
   0   4  -7  315.78   14.95 
   0   4  -7  311.36   13.26 
   0  -4   7  267.32   12.62 
   0  -4   7  299.42   16.24 
   0  -4   7  265.35   19.29 
  -1   4  -7  52.764   2.733 
  -1   4  -7  54.693   3.777 
  -1   4  -7  49.067   2.130 
  -1   4  -7  44.124   2.692 
  -1   4  -7  51.558   2.210 
   1  -4   7  56.742   3.134 
   1  -4   7  51.076   3.014 
  -2   4  -7  460.73   24.88 
  -2   4  -7  520.05   29.50 
  -2   4  -7  478.13   26.00 
  -2   4  -7  509.11   20.98 
  -2   4  -7  500.19   25.88 
   2  -4   7  458.80   24.83 
   2  -4   7  445.66   19.17 
  -3   4  -7  27.447   2.049 
  -3   4  -7  27.809   2.652 
  -3   4  -7  26.563   1.808 
   3  -4   7  24.473   2.210 
   3  -4   7  25.598   2.733 
   3  -4   7  22.303   1.005 
  -4   4  -7  227.21   11.41 
  -4   4  -7  237.30   13.46 
  -4   4  -7  223.19   10.89 
   4  -4   7  233.88   13.38 
  -5   4  -7  5.1036  2.3308 
  -5   4  -7  6.5503  2.2102 
  -5   4  -7  8.1175  2.4513 
   5  -4   7  8.8811  1.8485 
   5  -4   7  9.4035  2.8934 
  -6   4  -7  35.564   3.697 
  -6   4  -7  41.191   4.019 
   6  -4   7  39.583   5.264 
  -7   4  -7  53.849   5.184 
  -7   4  -7  51.800   6.229 
   7  -4   7  58.229   6.832 
   7   3  -7  10.850   6.189 
   7   3  -7  6.0279  5.3447 
  -7  -3   7  7.1531  3.3756 
   6   3  -7  81.778   8.037 
   6   3  -7  61.042   6.711 
  -6  -3   7  58.390   4.702 
   5   3  -7  15.994   4.220 
   5   3  -7  11.091   3.376 
  -5  -3   7  8.7203  1.9691 
  -5  -3   7  12.819   2.612 
  -5  -3   7  8.5596  2.0897 
   4   3  -7  2.8130  2.3710 
   4   3  -7  1.4065  3.4560 
  -4  -3   7  2.1299  1.4065 
  -4  -3   7 -0.2813  1.4467 
  -4  -3   7  6.1886  2.0093 
  -4  -3   7  0.6832  1.6476 
  -4  -3   7  1.4467  1.3261 
   3   3  -7  148.77    7.76 
   3   3  -7  147.08    7.55 
   3   3  -7  149.37    8.12 
   3   3  -7  144.75    8.80 
  -3  -3   7  150.54    8.32 
  -3  -3   7  146.44    6.75 
  -3  -3   7  159.94    7.55 
  -3  -3   7  150.90    6.91 
   2   3  -7  299.83   15.07 
   2   3  -7  286.61   13.34 
   2   3  -7  324.82   14.39 
   2   3  -7  299.10   14.75 
   2   3  -7  285.48   11.05 
  -2  -3   7  312.24   16.36 
  -2  -3   7  292.11   14.79 
  -2  -3   7  301.39   13.94 
   1   3  -7  57.627   3.335 
   1   3  -7  55.256   2.853 
   1   3  -7  55.215   3.818 
   1   3  -7  56.180   4.139 
   1   3  -7  49.991   2.974 
   1   3  -7  60.239   2.853 
  -1  -3   7  53.447   2.813 
  -1  -3   7  66.066   3.175 
   0   3  -7  654.87   37.29 
   0   3  -7  696.94   36.53 
   0   3  -7  652.34   33.15 
   0   3  -7  677.65   31.06 
   0   3  -7  646.63   24.83 
   0   3  -7  613.36   39.14 
   0  -3   7  652.02   33.72 
   0  -3   7  678.14   31.39 
  -1   3  -7  356.81   15.47 
  -1   3  -7  381.08   19.21 
  -1   3  -7  357.29   17.04 
  -1   3  -7  368.18   18.97 
  -1   3  -7  388.80   19.73 
   1  -3   7  385.22   17.00 
   1  -3   7  348.81   16.44 
  -2   3  -7  100.46    5.51 
  -2   3  -7  100.87    4.38 
  -2   3  -7  107.82    5.83 
  -2   3  -7  104.08    5.59 
  -2   3  -7  101.99    6.03 
   2  -3   7  112.08    5.59 
  -3   3  -7  191.53   10.25 
  -3   3  -7  198.04    8.36 
  -3   3  -7  199.08   12.34 
   3  -3   7  219.17   10.85 
   3  -3   7  196.39    9.85 
  -4   3  -7  18.606   2.291 
  -4   3  -7  23.187   2.210 
  -4   3  -7  25.036   2.170 
   4  -3   7  24.554   2.170 
   4  -3   7  28.210   3.014 
  -5   3  -7  134.54    6.71 
  -5   3  -7  127.51    8.32 
   5  -3   7  124.94    8.84 
   5  -3   7  139.61    9.64 
  -6   3  -7  0.6430  2.3308 
  -6   3  -7  3.0139  2.8130 
   6  -3   7  4.5812  3.6167 
  -7   3  -7  17.843   3.577 
  -7   3  -7  18.405   4.260 
   7  -3   7  10.247   4.662 
   7   2  -7  40.105   5.747 
   7   2  -7  36.810   7.917 
  -7  -2   7  39.463   4.461 
   6   2  -7 -0.5626  4.1391 
   6   2  -7  5.0232  4.0990 
  -6  -2   7  2.7326  1.8485 
  -6  -2   7 -0.2009  2.2906 
   5   2  -7  228.78   12.42 
   5   2  -7  237.94   15.03 
  -5  -2   7  241.44    9.89 
  -5  -2   7  219.17   11.77 
   4   2  -7  594.71   27.81 
   4   2  -7  601.66   26.44 
  -4  -2   7  605.76   29.86 
  -4  -2   7  600.26   25.04 
  -4  -2   7  565.05   27.41 
  -4  -2   7  590.13   27.65 
  -4  -2   7  595.19   25.12 
   3   2  -7  295.53   13.22 
   3   2  -7  265.83   13.78 
   3   2  -7  280.42   17.76 
   3   2  -7  270.01   11.01 
  -3  -2   7  270.37   13.54 
  -3  -2   7  273.75   11.65 
  -3  -2   7  265.55   12.02 
  -3  -2   7  274.95   14.59 
   2   2  -7 -0.7233  0.9243 
   2   2  -7  6.7512  2.3710 
   2   2  -7  2.7326  1.2056 
   2   2  -7  0.6832  0.9243 
  -2  -2   7  2.2906  0.9645 
  -2  -2   7  1.7682  1.0850 
  -2  -2   7 -0.3215  0.9645 
   1   2  -7  278.25   16.40 
   1   2  -7  275.80   11.17 
   1   2  -7  284.15   13.38 
   1   2  -7  298.82   15.35 
   1   2  -7  272.46   13.50 
   1   2  -7  299.42   13.82 
  -1  -2   7  285.16   12.74 
  -1  -2   7  285.80   13.14 
  -1  -2   7  292.63   12.54 
  -1  -2   7  287.17   14.35 
   0   2  -7  641.13   32.23 
   0   2  -7  631.36   38.90 
   0   2  -7  644.94   24.67 
   0   2  -7  642.09   34.20 
   0   2  -7  640.44   23.91 
   0   2  -7  613.28   42.36 
   0  -2   7  683.76   28.69 
   0  -2   7  672.47   31.02 
   0  -2   7  628.27   30.58 
   0  -2   7  655.95   32.07 
   0  -2   7  628.87   29.26 
  -1   2  -7  851.30   41.15 
  -1   2  -7  873.68   37.81 
  -1   2  -7  902.78   35.64 
  -1   2  -7  915.27   47.62 
  -1   2  -7  843.18   41.67 
   1  -2   7  867.41   41.91 
   1  -2   7  810.79   37.98 
   1  -2   7  887.99   48.54 
   1  -2   7  926.12   40.99 
  -2   2  -7 -0.4420  1.0448 
  -2   2  -7  1.5672  1.0448 
   2  -2   7 -0.8037  0.9645 
   2  -2   7  3.8578  1.4869 
  -3   2  -7  103.60    4.50 
  -3   2  -7  106.05    5.71 
  -3   2  -7  96.205   5.063 
   3  -2   7  107.34    5.51 
   3  -2   7  97.652   6.269 
   3  -2   7  96.205   4.621 
  -4   2  -7  107.62    7.27 
  -4   2  -7  100.14    5.26 
  -4   2  -7  97.652   5.787 
   4  -2   7  94.798   6.148 
   4  -2   7  99.219   5.827 
  -5   2  -7  60.841   4.501 
  -5   2  -7  63.011   4.862 
   5  -2   7  52.925   3.456 
   5  -2   7  62.931   5.305 
  -6   2  -7  54.171   4.420 
  -6   2  -7  55.537   4.300 
   6  -2   7  61.002   6.390 
  -7   2  -7  12.699   3.697 
  -7   2  -7  17.320   4.461 
   7  -2   7  6.6709  4.7017 
   7   1  -7  8.4390  5.7466 
   7   1  -7  6.5503  4.5812 
  -7  -1   7  6.1083  2.4513 
   6   1  -7  27.849   4.702 
   6   1  -7  32.591   5.867 
  -6  -1   7  32.551   3.295 
  -6  -1   7  35.886   2.813 
   5   1  -7  137.23    8.60 
   5   1  -7  133.66    8.64 
  -5  -1   7  129.64    6.67 
  -5  -1   7  133.98    6.83 
   4   1  -7  388.03   17.56 
   4   1  -7  379.03   16.76 
  -4  -1   7  378.75   19.13 
  -4  -1   7  392.37   15.63 
  -4  -1   7  388.16   14.51 
  -4  -1   7  390.69   15.91 
   3   1  -7  6.3494  1.7682 
   3   1  -7  7.2335  2.9738 
   3   1  -7  12.297   2.090 
   3   1  -7  9.2427  1.6476 
  -3  -1   7  10.529   1.407 
  -3  -1   7  9.5240  1.0448 
  -3  -1   7  7.8764  1.3663 
   2   1  -7  228.14   11.21 
   2   1  -7  234.36   11.90 
   2   1  -7  237.58   13.06 
   2   1  -7  228.62    9.64 
   2   1  -7  219.33   10.09 
   2   1  -7  220.30    9.40 
  -2  -1   7  230.95   12.30 
  -2  -1   7  221.54   10.73 
  -2  -1   7  223.75   11.25 
   1   1  -7 -0.0402  1.1654 
   1   1  -7  0.1607  0.9243 
   1   1  -7 -0.9243  1.2056 
   1   1  -7  0.3215  1.0448 
   1   1  -7  0.2009  1.0448 
   1   1  -7 -0.4822  1.9289 
  -1  -1   7  1.1654  1.0046 
  -1  -1   7 -0.4420  1.8485 
  -1  -1   7  0.4822  1.0448 
   0   1  -7  570.48   30.70 
   0   1  -7  577.35   29.38 
   0   1  -7  590.93   26.64 
   0   1  -7  611.67   29.38 
   0   1  -7  547.41   20.62 
   0   1  -7  536.20   32.63 
   0  -1   7  577.51   25.04 
   0  -1   7  522.90   28.61 
   0  -1   7  576.99   25.60 
   0  -1   7  570.80   28.77 
  -1   1  -7  2.7326  2.2102 
  -1   1  -7  3.6971  0.6430 
  -1   1  -7  1.8084  1.2056 
  -1   1  -7  4.2597  1.1654 
  -1   1  -7  2.1700  1.1654 
  -1   1  -7  3.8578  1.8887 
   1  -1   7  3.2952  1.4467 
   1  -1   7  5.5456  1.4467 
   1  -1   7  3.4962  1.1252 
   1  -1   7  2.2906  1.4467 
  -2   1  -7  253.13   12.38 
  -2   1  -7  252.37   11.25 
   2  -1   7  266.83    9.89 
   2  -1   7  260.65   12.58 
  -3   1  -7  3.8980  1.3261 
  -3   1  -7  2.1700  1.4065 
   3  -1   7  4.0186  1.2056 
   3  -1   7  6.6307  2.0897 
  -4   1  -7  142.98    8.64 
  -4   1  -7  134.82    8.24 
   4  -1   7  131.65    6.95 
   4  -1   7  134.62    8.00 
  -5   1  -7  3.6971  2.3710 
  -5   1  -7  3.4158  2.2504 
   5  -1   7  1.6476  2.4915 
  -6   1  -7  52.322   4.340 
  -6   1  -7  58.752   4.702 
   6  -1   7  48.866   5.626 
  -7   1  -7  6.1886  3.3756 
  -7   1  -7  3.4158  3.8177 
   7  -1   7  8.7605  4.6616 
   8   0  -7  16.838   7.274 
   8   0  -7  16.838   6.148 
  -8   0   7  12.498   4.501 
   7   0  -7  0.6028  4.9830 
   7   0  -7  0.5626  4.5008 
  -7   0   7  -3.577   3.014 
   6   0  -7  143.38    8.76 
   6   0  -7  152.30   11.01 
  -6   0   7  144.83    7.92 
  -6   0   7  154.96    6.99 
  -6   0   7  151.74    8.08 
   5   0  -7  21.901   3.697 
   5   0  -7  23.388   3.094 
  -5   0   7  22.062   2.532 
  -5   0   7  25.960   1.969 
   4   0  -7  92.628   4.983 
   4   0  -7  89.936   5.586 
  -4   0   7  95.522   4.621 
  -4   0   7  97.652   4.702 
   3   0  -7  36.850   2.773 
   3   0  -7  47.982   3.255 
   3   0  -7  41.592   3.416 
   3   0  -7  46.093   3.094 
  -3   0   7  44.285   2.210 
  -3   0   7  40.347   2.130 
   2   0  -7  603.47   27.77 
   2   0  -7  667.25   31.43 
   2   0  -7  608.05   38.50 
   2   0  -7  575.70   26.44 
   2   0  -7  608.57   23.19 
   2   0  -7  617.74   36.17 
  -2   0   7  625.25   24.15 
  -2   0   7  623.24   32.39 
  -2   0   7  606.73   25.44 
   1   0  -7  51.960   2.974 
   1   0  -7  53.086   2.733 
   1   0  -7  54.532   2.733 
   1   0  -7  43.561   3.697 
   1   0  -7  50.554   2.974 
   1   0  -7  47.902   2.451 
  -1   0   7  54.773   2.934 
  -1   0   7  48.906   2.411 
  -1   0   7  50.031   3.335 
   0   0  -7  3.4962  1.5271 
   0   0  -7  2.6121  1.1252 
   0   0  -7  1.7682  0.9243 
   0   0  -7 -0.6832  1.0046 
   0   0  -7  2.1700  1.9691 
   0   0   7  0.9645  1.2458 
   0   0   7  2.7728  1.0046 
   0   0   7 -0.8439  1.1654 
  -1   0  -7 1732.41   71.93 
  -1   0  -7 1674.71   84.19 
  -1   0  -7 1671.85   79.33 
  -1   0  -7 1646.78   79.57 
  -1   0  -7 1652.08   87.57 
   1   0   7 1646.50   89.45 
   1   0   7 1769.34   88.01 
   1   0   7 1563.15   61.08 
   1   0   7 1719.43   75.63 
  -2   0  -7  18.445   1.527 
  -2   0  -7  13.744   1.366 
   2   0   7  17.682   2.009 
   2   0   7  20.334   1.407 
  -3   0  -7  320.28   21.22 
   3   0   7  320.32   17.76 
   3   0   7  309.39   14.67 
  -4   0  -7  5.6662  2.2504 
  -4   0  -7  7.8362  2.0495 
   4   0   7  6.9923  1.4065 
   4   0   7  10.850   2.331 
  -5   0  -7  206.72   10.49 
  -5   0  -7  188.79   10.89 
   5   0   7  199.16   13.14 
  -6   0  -7  2.1299  3.2149 
   6   0   7  -2.331   3.376 
  -7   0  -7  55.657   5.184 
  -7   0  -7  51.800   5.747 
   7   0   7  61.163   6.711 
   8  -1  -7  3.7373  6.5101 
   8  -1  -7  11.131   6.550 
  -8   1   7  6.0681  4.1793 
   7  -1  -7  54.653   7.233 
   7  -1  -7  49.589   5.184 
  -7   1   7  50.433   4.943 
   6  -1  -7  5.0634  4.1793 
   6  -1  -7  12.136   3.335 
  -6   1   7  9.8455  2.4513 
  -6   1   7  8.5998  2.3308 
  -6   1   7  9.4437  2.2102 
   5  -1  -7  215.64    9.93 
   5  -1  -7  210.65   11.13 
  -5   1   7  213.71   11.49 
  -5   1   7  200.21    8.92 
   4  -1  -7  82.863   4.702 
   4  -1  -7  84.069   5.948 
  -4   1   7  91.664   5.505 
  -4   1   7  86.400   4.099 
   3  -1  -7  456.43   21.86 
   3  -1  -7  460.49   20.25 
  -3   1   7  461.53   18.28 
  -3   1   7  455.79   16.60 
   2  -1  -7  91.664   4.300 
   2  -1  -7  89.735   5.948 
   2  -1  -7  91.021   4.420 
   2  -1  -7  90.097   5.144 
   2  -1  -7  93.231   4.621 
   2  -1  -7  90.700   4.260 
  -2   1   7  91.744   3.818 
  -2   1   7  90.338   4.340 
  -2   1   7  90.900   4.662 
   1  -1  -7  324.50   15.55 
   1  -1  -7  317.83   16.28 
   1  -1  -7  374.17   17.00 
   1  -1  -7  342.71   16.07 
   1  -1  -7  321.04   12.78 
  -1   1   7  333.94   16.72 
  -1   1   7  332.98   13.62 
  -1   1   7  315.06   14.23 
   0  -1  -7  297.38   12.82 
   0  -1  -7  282.35   16.40 
   0  -1  -7  279.77   13.42 
   0  -1  -7  339.93   15.75 
   0   1   7  298.18   16.40 
   0   1   7  301.64   13.38 
   0   1   7  333.62   17.08 
   0   1   7  293.52   14.43 
  -1  -1  -7  184.69    9.81 
  -1  -1  -7  185.94   11.29 
  -1  -1  -7  181.20    9.60 
  -1  -1  -7  186.14    8.68 
  -1  -1  -7  183.81    9.89 
   1   1   7  187.59    8.08 
   1   1   7  191.41    8.96 
   1   1   7  191.97    7.64 
   1   1   7  198.04    9.56 
  -2  -1  -7  172.88    7.27 
  -2  -1  -7  177.18    8.88 
   2   1   7  176.94   10.37 
   2   1   7  182.24    6.99 
   2   1   7  172.96    9.24 
   2   1   7  168.26    9.60 
  -3  -1  -7  35.122   1.487 
  -3  -1  -7  33.314   3.054 
   3   1   7  32.510   2.090 
   3   1   7  34.399   3.376 
  -4  -1  -7  91.704   5.184 
  -4  -1  -7  97.491   6.189 
   4   1   7  82.260   5.063 
   4   1   7  91.543   6.590 
   4   1   7  93.754   5.827 
  -5  -1  -7  23.790   3.335 
  -5  -1  -7  26.402   3.858 
   5   1   7  28.733   3.818 
  -6  -1  -7  50.353   4.420 
  -6  -1  -7  48.987   4.461 
   6   1   7  38.980   5.385 
  -7  -1  -7  10.167   5.224 
  -7  -1  -7  11.734   4.541 
   7   1   7  16.275   7.515 
   7   1   7  11.614   5.063 
   8  -2  -7  9.4437  5.7466 
   8  -2  -7  6.7110  6.4297 
  -8   2   7  13.422   3.737 
   7  -2  -7  -1.607   4.220 
   7  -2  -7  0.0000  5.1036 
  -7   2   7  0.7233  3.1747 
   6  -2  -7  360.59   20.74 
   6  -2  -7  358.50   21.18 
  -6   2   7  346.92   19.29 
  -6   2   7  369.43   15.67 
  -6   2   7  368.50   15.27 
   5  -2  -7  91.142   5.385 
   5  -2  -7  99.018   6.590 
  -5   2   7  86.761   4.943 
  -5   2   7  85.556   5.184 
  -5   2   7  93.995   4.662 
   4  -2  -7  116.42    5.43 
   4  -2  -7  127.51    6.75 
  -4   2   7  118.27    5.14 
  -4   2   7  120.24    5.67 
   3  -2  -7  36.850   3.938 
   3  -2  -7  34.359   1.929 
   3  -2  -7  33.234   2.331 
  -3   2   7  35.082   2.250 
  -3   2   7  37.574   1.849 
   2  -2  -7  782.62   34.44 
   2  -2  -7  860.50   40.35 
   2  -2  -7  768.96   33.43 
   2  -2  -7  782.66   36.89 
  -2   2   7  759.87   30.34 
  -2   2   7  798.77   31.34 
  -2   2   7  771.37   34.12 
   1  -2  -7  16.516   1.969 
   1  -2  -7  16.315   2.612 
   1  -2  -7  17.119   1.407 
   1  -2  -7  17.079   1.125 
  -1   2   7  17.159   1.567 
  -1   2   7  17.240   1.648 
  -1   2   7  15.753   1.607 
   0  -2  -7  839.80   40.55 
   0  -2  -7  744.44   32.11 
   0  -2  -7  794.27   35.28 
   0  -2  -7  793.55   53.89 
   0   2   7  794.27   40.51 
   0   2   7  800.70   33.96 
   0   2   7  795.32   30.62 
   0   2   7  744.40   43.68 
  -1  -2  -7  12.498   1.326 
  -1  -2  -7  14.708   1.728 
  -1  -2  -7  13.784   2.733 
   1   2   7  9.7652  1.8485 
   1   2   7  14.025   1.326 
   1   2   7  10.649   1.527 
   1   2   7  9.9661  1.4869 
  -2  -2  -7  551.23   26.40 
  -2  -2  -7  567.42   29.38 
   2   2   7  557.98   34.08 
   2   2   7  596.44   32.23 
   2   2   7  575.34   24.15 
   2   2   7  529.17   29.46 
  -3  -2  -7  18.887   2.250 
  -3  -2  -7  23.469   1.527 
   3   2   7  19.932   1.849 
   3   2   7  17.360   2.492 
   3   2   7  20.374   1.808 
  -4  -2  -7  192.97    9.08 
  -4  -2  -7  203.06    9.52 
   4   2   7  188.67   11.45 
   4   2   7  212.54   13.30 
   4   2   7  179.35   10.81 
  -5  -2  -7  26.482   3.737 
  -5  -2  -7  22.223   3.054 
   5   2   7  16.798   3.737 
  -6  -2  -7  157.53    9.52 
  -6  -2  -7  159.82   10.25 
   6   2   7  183.61   12.66 
   8  -3  -7  13.060   9.685 
   8  -3  -7  9.6446  7.1933 
  -8   3   7  14.668   3.496 
   7  -3  -7  28.693   4.621 
   7  -3  -7  27.005   5.465 
  -7   3   7  40.146   3.657 
  -7   3   7  35.404   3.777 
  -7   3   7  35.163   4.340 
   6  -3  -7  31.425   4.380 
   6  -3  -7  30.421   3.536 
  -6   3   7  37.493   3.617 
  -6   3   7  38.297   3.376 
  -6   3   7  34.479   2.893 
   5  -3  -7  75.067   7.354 
   5  -3  -7  82.903   4.862 
  -5   3   7  92.548   4.702 
  -5   3   7  85.917   4.139 
   4  -3  -7  148.25    7.23 
   4  -3  -7  160.54    8.88 
  -4   3   7  168.34    6.95 
  -4   3   7  160.38    6.91 
   3  -3  -7  469.77   21.18 
   3  -3  -7  497.26   22.54 
   3  -3  -7  486.77   20.45 
  -3   3   7  470.54   19.09 
  -3   3   7  480.70   20.33 
  -3   3   7  468.29   19.17 
   2  -3  -7  49.830   3.617 
   2  -3  -7  47.942   2.371 
   2  -3  -7  48.625   3.215 
   2  -3  -7  45.490   2.130 
  -2   3   7  47.821   3.014 
  -2   3   7  56.501   2.853 
  -2   3   7  46.455   2.773 
   1  -3  -7  284.27   15.27 
   1  -3  -7  313.01   16.32 
   1  -3  -7  273.71   11.09 
  -1   3   7  289.94   16.92 
  -1   3   7  274.35   14.02 
  -1   3   7  305.45   13.26 
  -1   3   7  301.55   14.15 
   0  -3  -7  28.291   2.291 
   0  -3  -7  30.421   3.376 
   0   3   7  30.782   2.652 
   0   3   7  24.996   2.009 
   0   3   7  31.425   1.768 
   0   3   7  32.229   2.250 
   0   3   7  29.537   1.849 
  -1  -3  -7  488.74   25.16 
  -1  -3  -7  478.89   30.02 
   1   3   7  517.84   24.43 
   1   3   7  497.82   31.06 
   1   3   7  498.26   27.97 
   1   3   7  521.01   24.67 
   1   3   7  498.43   19.49 
  -2  -3  -7  5.8671  1.6878 
  -2  -3  -7  10.127   1.487 
   2   3   7  10.569   2.090 
   2   3   7  8.6400  2.1299 
   2   3   7  7.6353  1.5672 
   2   3   7  5.2242  1.9289 
   2   3   7  9.6044  1.4065 
  -3  -3  -7  143.83    7.35 
  -3  -3  -7  133.22    7.43 
   3   3   7  137.72    8.84 
   3   3   7  140.85    6.71 
   3   3   7  131.41    8.32 
  -4  -3  -7  33.394   2.612 
  -4  -3  -7  38.860   3.496 
   4   3   7  26.000   3.456 
   4   3   7  30.300   3.978 
   4   3   7  29.215   2.893 
  -5  -3  -7  106.29    6.91 
  -5  -3  -7  94.678   6.912 
   5   3   7  98.857   8.439 
  -6  -3  -7  22.826   4.380 
  -6  -3  -7  21.258   4.179 
   6   3   7  18.043   4.862 
   8  -4  -7  -6.832   6.108 
  -8   4   7  -1.165   3.376 
   7  -4  -7  34.640   6.108 
  -7   4   7  32.269   3.295 
  -7   4   7  35.002   4.541 
  -7   4   7  44.004   4.220 
   6  -4  -7  36.368   5.264 
   6  -4  -7  25.116   3.416 
  -6   4   7  25.639   2.853 
  -6   4   7  30.381   2.853 
   5  -4  -7  419.02   19.29 
   5  -4  -7  438.87   24.79 
  -5   4   7  428.02   19.13 
  -5   4   7  409.53   18.69 
   4  -4  -7  83.948   5.626 
   4  -4  -7  84.832   3.938 
  -4   4   7  84.069   5.063 
  -4   4   7  78.644   4.340 
   3  -4  -7  517.51   21.42 
   3  -4  -7  524.83   22.91 
   3  -4  -7  515.95   19.21 
   3  -4  -7  524.39   29.17 
  -3   4   7  503.01   20.45 
  -3   4   7  492.28   24.67 
   2  -4  -7  51.719   3.818 
   2  -4  -7  49.830   3.295 
  -2   4   7  44.486   2.934 
  -2   4   7  48.022   3.054 
  -2   4   7  40.829   2.893 
   1  -4  -7  546.49   31.59 
   1  -4  -7  538.33   27.00 
   1  -4  -7  543.80   29.46 
  -1   4   7  532.82   19.05 
  -1   4   7  538.61   35.44 
  -1   4   7  553.76   30.66 
  -1   4   7  512.89   30.02 
   0  -4  -7  227.61   11.94 
   0  -4  -7  219.25   14.07 
   0  -4  -7  239.23   11.57 
   0   4   7  221.10    8.20 
   0   4   7  211.82   12.34 
   0   4   7  227.93   12.18 
   0   4   7  218.93    9.44 
   0   4   7  230.10   12.58 
  -1  -4  -7  151.42    7.76 
  -1  -4  -7  144.03    9.32 
   1   4   7  162.71    8.20 
   1   4   7  149.81    6.39 
   1   4   7  145.23    7.68 
   1   4   7  149.85    9.44 
   1   4   7  148.97    8.52 
  -2  -4  -7  60.158   5.184 
  -2  -4  -7  59.555   3.295 
   2   4   7  66.990   5.345 
   2   4   7  66.427   5.104 
   2   4   7  60.801   3.657 
   2   4   7  61.123   3.898 
   2   4   7  62.449   4.702 
  -3  -4  -7  145.75    7.35 
  -3  -4  -7  139.40    8.20 
   3   4   7  132.41    8.00 
   3   4   7  130.89    7.88 
   3   4   7  153.35    9.89 
  -4  -4  -7  48.102   4.099 
  -4  -4  -7  40.708   4.099 
   4   4   7  46.174   5.626 
  -5  -4  -7  -1.607   3.054 
  -5  -4  -7 -0.0804  3.4158 
   5   4   7  6.4297  3.8980 
  -6  -4  -7  26.724   4.139 
  -6  -4  -7  20.294   5.264 
   6   4   7  26.081   6.068 
   8  -5  -7  22.946   7.233 
   7  -5  -7  -1.728   5.224 
  -7   5   7  1.8084  3.1747 
  -7   5   7  1.2458  2.8130 
   6  -5  -7  96.968   7.515 
  -6   5   7  92.026   6.148 
  -6   5   7  92.749   6.390 
   5  -5  -7  6.0681  3.1747 
  -5   5   7  5.4251  2.1299 
  -5   5   7  4.2597  2.2504 
   4  -5  -7  181.12    7.64 
   4  -5  -7  186.10   10.65 
  -4   5   7  172.72    9.44 
  -4   5   7  180.03    8.80 
   3  -5  -7  13.904   3.818 
   3  -5  -7  8.7203  1.8084 
  -3   5   7  8.4792  1.8887 
  -3   5   7  10.408   1.648 
   2  -5  -7  307.42   16.84 
   2  -5  -7  282.47   18.85 
   2  -5  -7  290.42   15.19 
  -2   5   7  267.04   13.74 
  -2   5   7  285.80   16.48 
  -2   5   7  274.95   15.87 
   1  -5  -7  25.397   3.335 
   1  -5  -7  25.397   2.451 
  -1   5   7  27.527   2.492 
  -1   5   7  25.237   2.210 
  -1   5   7  24.875   2.411 
   0  -5  -7  332.18   16.07 
   0  -5  -7  324.70   19.77 
   0  -5  -7  324.70   17.16 
   0   5   7  306.10   12.06 
   0   5   7  306.34   10.81 
   0   5   7  332.74   18.57 
   0   5   7  335.55   16.64 
   0   5   7  304.57   17.52 
  -1  -5  -7  4.7017  1.6074 
  -1  -5  -7  7.7559  1.8887 
   1   5   7  7.4746  2.1700 
   1   5   7  6.4297  1.5672 
   1   5   7  4.3803  1.5672 
   1   5   7  5.8671  1.6878 
   1   5   7  5.0232  1.3663 
  -2  -5  -7  89.172   5.747 
  -2  -5  -7  89.735   5.023 
   2   5   7  90.177   6.952 
   2   5   7  87.203   4.541 
   2   5   7  90.257   5.747 
  -3  -5  -7  0.1607  1.9691 
  -3  -5  -7  3.0943  2.7326 
   3   5   7 -0.1607  2.8934 
   3   5   7  1.3261  1.4869 
   3   5   7  0.7233  1.7682 
  -4  -5  -7  65.061   5.144 
   4   5   7  62.127   6.912 
  -5  -5  -7  10.850   3.456 
  -5  -5  -7  4.0588  3.0943 
   5   5   7  6.3896  4.4204 
   8  -6  -7  5.8270  8.2381 
   7  -6  -7  44.486   6.751 
  -7   6   7  44.044   4.822 
  -7   6   7  41.512   4.702 
   6  -6  -7  97.411   9.042 
  -6   6   7  89.695   6.108 
  -6   6   7  91.825   6.470 
   5  -6  -7  55.698   5.988 
  -5   6   7  67.994   4.501 
  -5   6   7  60.721   4.340 
   4  -6  -7  16.677   3.777 
  -4   6   7  15.351   2.411 
  -4   6   7  11.453   2.451 
   3  -6  -7  116.58    9.89 
   3  -6  -7  130.44    7.76 
   3  -6  -7  138.32    8.16 
  -3   6   7  130.68    7.11 
  -3   6   7  121.00    6.83 
   2  -6  -7  81.256   6.590 
   2  -6  -7  86.681   5.948 
  -2   6   7  84.993   4.903 
  -2   6   7  82.863   5.505 
  -2   6   7  81.899   5.465 
   1  -6  -7  252.81   18.24 
   1  -6  -7  252.57   15.63 
  -1   6   7  259.80   16.48 
  -1   6   7  266.27   13.66 
  -1   6   7  256.79   15.67 
   0  -6  -7  175.85   10.13 
   0  -6  -7  173.48   11.65 
   0  -6  -7  171.43   10.73 
   0   6   7  170.55   10.89 
   0   6   7  160.38    6.47 
   0   6   7  168.82    6.31 
   0   6   7  161.27   10.29 
   0   6   7  177.70   10.33 
   0   6   7  167.13    5.87 
  -1  -6  -7  130.20    7.96 
  -1  -6  -7  112.64    7.47 
   1   6   7  111.19    6.35 
   1   6   7  113.16    7.47 
   1   6   7  108.46    5.91 
   1   6   7  126.67    9.56 
  -2  -6  -7 -0.8841  2.5719 
  -2  -6  -7  -1.286   2.170 
   2   6   7  0.8037  1.7682 
   2   6   7  0.3215  2.8934 
   2   6   7  0.8439  1.7280 
  -3  -6  -7  68.879   5.666 
  -3  -6  -7  69.843   5.546 
   3   6   7  82.582   6.872 
   3   6   7  70.566   4.862 
   3   6   7  67.914   5.063 
  -4  -6  -7  37.855   4.340 
   4   6   7  34.881   5.345 
  -5  -6  -7  4.8223  4.1391 
  -5  -6  -7  9.8455  4.5812 
   5   6   7  8.5194  4.2999 
   7  -7  -7  20.816   6.872 
  -7   7   7  25.799   4.461 
  -7   7   7  19.611   4.139 
   6  -7  -7  31.988   5.586 
  -6   7   7  25.840   3.818 
   5  -7  -7  80.774   6.590 
   5  -7  -7  78.443   7.233 
  -5   7   7  77.519   4.862 
  -5   7   7  77.197   5.666 
   4  -7  -7  54.492   4.943 
   4  -7  -7  54.130   5.465 
  -4   7   7  55.055   4.179 
  -4   7   7  56.341   4.059 
   3  -7  -7  53.648   4.019 
   3  -7  -7  62.690   5.063 
  -3   7   7  66.025   4.260 
  -3   7   7  63.092   4.581 
   2  -7  -7  26.201   3.938 
   2  -7  -7  33.475   3.376 
  -2   7   7  29.215   3.054 
  -2   7   7  36.007   3.175 
   1  -7  -7  51.197   3.818 
   1  -7  -7  49.589   4.862 
  -1   7   7  49.830   4.099 
  -1   7   7  41.512   3.536 
  -1   7   7  48.464   4.099 
   0  -7  -7  287.21   20.09 
   0  -7  -7  263.70   16.76 
   0  -7  -7  295.29   14.75 
   0   7   7  280.86   19.81 
   0   7   7  275.43   16.52 
   0   7   7  268.04   15.67 
  -1  -7  -7  66.347   4.983 
  -1  -7  -7  70.928   4.983 
   1   7   7  73.982   4.019 
   1   7   7  71.933   4.662 
   1   7   7  77.157   6.349 
   1   7   7  70.245   4.983 
  -2  -7  -7  35.082   4.059 
  -2  -7  -7  39.181   4.220 
   2   7   7  36.650   3.496 
   2   7   7  39.061   3.657 
   2   7   7  48.143   3.777 
   2   7   7  39.503   4.943 
  -3  -7  -7  17.441   2.974 
  -3  -7  -7  21.017   4.340 
   3   7   7  17.642   4.380 
   3   7   7  12.176   2.934 
   3   7   7  20.656   3.737 
  -4  -7  -7  31.546   5.224 
   4   7   7  35.605   5.626 
   4   7   7  29.456   6.349 
   7  -8  -7  0.5224  6.7110 
   7  -8  -7  7.4344  4.9830 
  -7   8   7  3.5765  4.5410 
  -7   8   7 -0.2813  3.7775 
   6  -8  -7  72.897   6.631 
   6  -8  -7  59.837   7.233 
  -6   8   7  62.368   5.827 
  -6   8   7  62.610   5.305 
   5  -8  -7  -1.326   3.536 
   5  -8  -7  9.6044  4.6214 
  -5   8   7  5.7064  3.1747 
  -5   8   7  1.1252  3.0943 
   4  -8  -7  99.540   6.791 
   4  -8  -7  86.319   6.711 
  -4   8   7  83.064   6.028 
  -4   8   7  84.792   5.706 
   3  -8  -7  -2.009   2.773 
   3  -8  -7  -4.702   3.376 
  -3   8   7  1.4869  2.0093 
  -3   8   7 -0.1206  2.5719 
   2  -8  -7  91.785   7.555 
   2  -8  -7  102.03    7.47 
  -2   8   7  109.02    6.63 
  -2   8   7  100.02    5.59 
   1  -8  -7  33.274   3.577 
   1  -8  -7  34.801   3.898 
  -1   8   7  40.467   4.662 
  -1   8   7  37.132   3.134 
  -1   8   7  34.962   3.255 
   0  -8  -7  57.586   4.862 
   0  -8  -7  67.994   5.063 
   0   8   7  77.318   5.345 
   0   8   7  62.610   4.420 
   0   8   7  64.940   5.867 
  -1  -8  -7  3.7373  2.5317 
  -1  -8  -7  5.9877  2.8532 
   1   8   7  2.1700  2.4112 
   1   8   7  1.8485  3.0541 
   1   8   7  3.1345  1.8887 
  -2  -8  -7  35.725   4.662 
  -2  -8  -7  31.747   3.858 
   2   8   7  29.255   3.617 
   2   8   7  39.061   4.019 
   2   8   7  23.227   4.943 
  -3  -8  -7  2.4513  3.1747 
  -3  -8  -7  2.0495  3.1747 
   3   8   7  0.5626  4.9429 
   6  -9  -7  8.2783  4.5410 
   6  -9  -7  11.895   6.068 
  -6   9   7  6.7512  3.6971 
  -6   9   7  8.9614  4.4204 
   5  -9  -7  2.2102  5.1036 
   5  -9  -7  12.779   3.657 
  -5   9   7  15.512   3.777 
  -5   9   7  12.779   3.697 
   4  -9  -7  26.965   4.903 
   4  -9  -7  27.527   4.179 
  -4   9   7  29.336   3.697 
  -4   9   7  25.237   3.657 
   3  -9  -7  38.860   5.063 
   3  -9  -7  38.699   4.380 
  -3   9   7  37.574   4.139 
  -3   9   7  26.322   3.255 
   2  -9  -7  8.7203  3.3354 
  -2   9   7  11.332   2.853 
  -2   9   7  7.6353  2.5317 
   1  -9  -7  46.495   5.063 
   1  -9  -7  46.776   4.662 
  -1   9   7  50.473   3.737 
  -1   9   7  48.826   3.697 
   0  -9  -7  1.1252  2.8934 
   0  -9  -7  -1.366   2.934 
   0   9   7  2.0093  2.7326 
   0   9   7  1.1252  3.6167 
   0   9   7  -3.938   2.773 
  -1  -9  -7  10.931   3.456 
  -1  -9  -7  14.829   3.255 
   1   9   7  14.788   4.501 
   1   9   7  13.784   3.014 
   1   9   7  8.1979  3.0139 
  -2  -9  -7  -2.773   3.255 
  -2  -9  -7  2.4915  3.2952 
   2   9   7  3.2149  2.6925 
   2   9   7  -1.567   5.264 
   2   9   7  0.1607  3.0943 
  -3  -9  -7  23.951   5.706 
  -3  -9  -7  26.081   4.742 
   3   9   7  24.795   6.028 
   6 -10  -7  5.4251  5.3447 
  -6  10   7  7.3540  3.4560 
  -6  10   7  -4.461   4.340 
   5 -10  -7  17.642   3.777 
  -5  10   7  13.020   3.456 
  -5  10   7  9.7652  4.2597 
   4 -10  -7  10.971   3.737 
  -4  10   7  13.864   3.818 
  -4  10   7  10.247   3.818 
   3 -10  -7  32.832   5.023 
  -3  10   7  27.889   3.858 
  -3  10   7  26.322   3.818 
   2 -10  -7  77.719   6.269 
  -2  10   7  66.066   5.867 
  -2  10   7  75.549   5.907 
   1 -10  -7  7.2335  3.7775 
   1 -10  -7  17.722   3.737 
  -1  10   7  16.436   3.416 
  -1  10   7  18.968   3.496 
   0 -10  -7  3.9382  3.4560 
   0 -10  -7  3.4962  3.7373 
   0  10   7  2.0495  2.5719 
   0  10   7  0.0804  3.4560 
  -1 -10  -7  7.1129  3.8980 
  -1 -10  -7  3.9784  3.8980 
   1  10   7  3.8578  5.0634 
   1  10   7  5.9073  2.8130 
   1  10   7  2.6121  3.4158 
  -2 -10  -7  8.3587  4.5008 
  -2 -10  -7  2.9738  4.1391 
   2  10   7  5.9475  6.3092 
   2  10   7  9.0820  3.8980 
   2  10   7  3.6971  3.5765 
   5 -11  -7  5.9877  5.3447 
  -5  11   7  0.1607  4.6214 
  -5  11   7  -7.233   4.581 
   4 -11  -7  -3.617   4.782 
  -4  11   7  9.1222  4.3803 
  -4  11   7  2.8934  3.2952 
   3 -11  -7  -1.125   4.260 
  -3  11   7  0.7635  3.0943 
  -3  11   7  -3.255   3.215 
   2 -11  -7  50.232   5.264 
  -2  11   7  58.229   5.385 
  -2  11   7  55.095   6.108 
   1 -11  -7  2.5317  3.3354 
   1 -11  -7  3.9382  4.2999 
  -1  11   7  3.5364  3.9784 
  -1  11   7  4.0186  3.5765 
   0 -11  -7  21.861   4.822 
   0  11   7  12.377   4.621 
   0  11   7  12.016   4.501 
   3 -12  -7  7.9166  4.4606 
   2 -12  -7  16.356   5.586 
   2 -12  -7  7.3942  4.7419 
   0  12  -8  15.472   4.782 
   0  12  -8  13.382   5.586 
   0 -12   8  11.815   5.305 
   0 -12   8  5.7868  4.2999 
  -1  12  -8  13.261   4.621 
  -1  12  -8  3.3354  4.7419 
   1 -12   8  4.9429  5.0232 
   1 -12   8  4.0186  4.0186 
  -2  12  -8  31.666   5.305 
  -2  12  -8  37.735   5.144 
   2 -12   8  23.710   4.943 
   2 -12   8  18.606   4.420 
  -3  12  -8  -5.023   4.862 
  -3  12  -8  1.5672  4.3401 
   3 -12   8  0.0402  5.3447 
   2  11  -8  41.432   6.711 
   2  11  -8  47.660   5.907 
  -2 -11   8  35.524   5.626 
   1  11  -8  9.3231  4.7419 
   1  11  -8  4.7017  4.2999 
  -1 -11   8  3.9382  4.0588 
  -1 -11   8  10.569   5.023 
   0  11  -8  120.36    9.81 
   0  11  -8  116.94   10.09 
   0 -11   8  117.87    9.93 
   0 -11   8  131.17    9.56 
  -1  11  -8  51.076   6.349 
  -1  11  -8  58.752   5.907 
   1 -11   8  47.058   5.626 
   1 -11   8  54.171   6.872 
  -2  11  -8  24.152   4.461 
  -2  11  -8  28.733   4.420 
   2 -11   8  25.759   4.742 
   2 -11   8  22.946   4.220 
  -3  11  -8  75.308   6.309 
  -3  11  -8  62.690   6.992 
   3 -11   8  79.247   7.274 
  -4  11  -8  75.991   6.470 
  -4  11  -8  75.268   6.832 
   4 -11   8  77.719   7.193 
   3  10  -8  47.701   6.108 
   3  10  -8  35.042   5.706 
  -3 -10   8  45.892   5.907 
   2  10  -8  -3.536   4.220 
   2  10  -8  -3.295   4.059 
  -2 -10   8  -3.215   3.295 
   1  10  -8  84.913   6.229 
   1  10  -8  72.736   6.992 
  -1 -10   8  74.906   5.867 
  -1 -10   8  83.627   7.756 
   0  10  -8  1.0850  3.2551 
   0  10  -8  1.2859  3.6971 
   0 -10   8  5.5858  3.5364 
   0 -10   8 -0.1607  2.6523 
  -1  10  -8  143.74   10.01 
  -1  10  -8  141.70   11.13 
   1 -10   8  141.45   10.21 
   1 -10   8  162.87    9.93 
  -2  10  -8  31.144   4.099 
  -2  10  -8  31.425   4.581 
   2 -10   8  20.575   3.014 
   2 -10   8  26.764   4.621 
  -3  10  -8  43.039   4.581 
  -3  10  -8  44.325   5.184 
   3 -10   8  45.289   5.747 
  -4  10  -8  57.426   5.666 
   4 -10   8  48.223   5.264 
  -5  10  -8  8.3587  3.8177 
   5 -10   8  7.7961  4.1793 
   4   9  -8  58.631   6.631 
   4   9  -8  60.038   7.113 
  -4  -9   8  57.345   6.229 
   3   9  -8  45.089   5.264 
   3   9  -8  50.313   5.546 
  -3  -9   8  58.229   5.706 
   2   9  -8  79.608   5.747 
   2   9  -8  82.502   7.113 
  -2  -9   8  72.777   6.349 
  -2  -9   8  75.951   6.269 
   1   9  -8  17.200   3.456 
   1   9  -8  17.601   6.631 
   1   9  -8  15.552   3.898 
  -1  -9   8  19.530   3.215 
  -1  -9   8  17.682   3.777 
   0   9  -8  267.56   15.99 
   0   9  -8  255.86   15.07 
   0  -9   8  263.78   14.23 
   0  -9   8  248.15   14.71 
  -1   9  -8  27.286   3.697 
  -1   9  -8  28.411   3.577 
   1  -9   8  26.603   3.737 
   1  -9   8  29.617   3.215 
  -2   9  -8  85.475   6.470 
  -2   9  -8  80.532   5.264 
   2  -9   8  94.035   7.434 
   2  -9   8  76.594   5.305 
  -3   9  -8  30.662   4.019 
  -3   9  -8  26.884   3.858 
   3  -9   8  27.969   3.617 
  -4   9  -8  66.990   5.305 
   4  -9   8  77.679   7.555 
  -5   9  -8  1.7682  3.4560 
   5  -9   8  1.6878  4.0186 
  -6   9  -8  14.145   4.862 
   6  -9   8  22.745   5.747 
   4   8  -8  74.987   6.751 
  -4  -8   8  80.291   7.274 
   3   8  -8  74.384   5.827 
   3   8  -8  70.084  10.368 
   3   8  -8  66.909   6.189 
  -3  -8   8  65.342   5.626 
   2   8  -8  75.911   6.952 
   2   8  -8  65.624   5.465 
   2   8  -8  64.137   5.104 
  -2  -8   8  68.316   5.184 
  -2  -8   8  79.729   6.430 
   1   8  -8  110.19    6.95 
   1   8  -8  110.95    6.79 
   1   8  -8  87.886   7.434 
  -1  -8   8  108.78    7.31 
  -1  -8   8  107.10    6.19 
   0   8  -8  60.239   5.224 
   0   8  -8  57.385   4.501 
   0  -8   8  62.127   4.340 
   0  -8   8  50.554   4.300 
  -1   8  -8  109.71    8.32 
  -1   8  -8  111.60    8.08 
   1  -8   8  118.07    7.35 
   1  -8   8  107.70    7.19 
  -2   8  -8  6.9522  2.8130 
  -2   8  -8  11.694   2.692 
   2  -8   8  11.533   2.451 
   2  -8   8  10.890   2.009 
  -3   8  -8  63.574   4.501 
  -3   8  -8  67.352   5.144 
   3  -8   8  60.640   5.505 
  -4   8  -8  20.013   3.134 
   4  -8   8  17.200   3.697 
  -5   8  -8  32.470   4.059 
   5  -8   8  35.364   5.104 
  -6   8  -8  5.7466  3.8578 
   6  -8   8 -0.5224  4.1793 
   5   7  -8  61.203   6.952 
  -5  -7   8  62.650   6.068 
   4   7  -8  9.5240  4.6616 
   4   7  -8  6.4297  3.9784 
  -4  -7   8  0.5626  3.5765 
   3   7  -8  286.77   15.99 
   3   7  -8  320.48   19.01 
   3   7  -8  300.79   16.07 
  -3  -7   8  287.13   17.60 
  -3  -7   8  298.02   17.56 
   2   7  -8  41.592   4.139 
   2   7  -8  37.172   4.943 
   2   7  -8  40.990   3.737 
  -2  -7   8  46.616   4.099 
  -2  -7   8  41.472   3.818 
   1   7  -8  53.688   4.179 
   1   7  -8  59.877   4.581 
   1   7  -8  63.413   5.505 
  -1  -7   8  58.912   4.461 
  -1  -7   8  55.818   4.461 
   0   7  -8  235.57   14.51 
   0   7  -8  237.90   14.19 
   0   7  -8  237.94   10.69 
   0  -7   8  235.29   16.44 
   0  -7   8  255.78   12.86 
  -1   7  -8  107.06    6.75 
  -1   7  -8  91.021   5.264 
   1  -7   8  83.506   5.505 
   1  -7   8  86.721   5.827 
  -2   7  -8  285.24   12.54 
  -2   7  -8  291.23   19.57 
   2  -7   8  269.85   15.59 
   2  -7   8  284.32   15.07 
  -3   7  -8  58.551   4.260 
  -3   7  -8  60.962   4.702 
   3  -7   8  55.617   5.706 
  -4   7  -8  14.105   2.773 
   4  -7   8  17.400   3.617 
  -5   7  -8  45.732   4.019 
   5  -7   8  47.178   5.505 
  -6   7  -8  83.426   6.028 
   6  -7   8  66.869   7.957 
   6   6  -8  38.297   6.912 
   6   6  -8  59.515   9.323 
   5   6  -8  9.3633  5.4653 
   5   6  -8  6.7914  4.5812 
  -5  -6   8  5.2643  3.0943 
  -5  -6   8  8.8811  3.1345 
   4   6  -8  158.89   10.89 
   4   6  -8  153.31   10.05 
  -4  -6   8  157.29    9.48 
  -4  -6   8  168.66   11.65 
  -4  -6   8  163.23    9.85 
   3   6  -8  5.9475  3.1345 
   3   6  -8  2.8934  3.7373 
   3   6  -8  7.3942  2.8130 
  -3  -6   8  5.7064  2.4915 
  -3  -6   8  1.2859  1.7682 
   2   6  -8  392.90   21.06 
   2   6  -8  359.62   17.08 
   2   6  -8  364.41   17.44 
  -2  -6   8  386.55   20.09 
  -2  -6   8  356.53   24.23 
   1   6  -8  1.8485  3.0139 
   1   6  -8  6.9120  2.3308 
   1   6  -8  7.2335  2.6121 
  -1  -6   8  8.6400  1.6476 
  -1  -6   8  7.9568  2.0495 
   0   6  -8  236.17   13.70 
   0   6  -8  239.87   12.22 
   0   6  -8  228.26   12.58 
   0  -6   8  243.65   12.22 
   0  -6   8  224.48   13.30 
  -1   6  -8  3.6167  1.9691 
  -1   6  -8  6.2288  2.8934 
  -1   6  -8  6.3896  2.2504 
   1  -6   8  6.1484  1.2056 
   1  -6   8  7.3138  2.0897 
  -2   6  -8  4.5812  2.3308 
  -2   6  -8  -1.808   1.929 
  -2   6  -8  1.7682  2.0897 
   2  -6   8  5.1036  2.4513 
   2  -6   8  2.8532  1.0850 
  -3   6  -8  50.112   4.139 
  -3   6  -8  37.614   2.652 
  -3   6  -8  47.500   3.818 
  -3   6  -8  45.611   2.612 
   3  -6   8  43.200   4.099 
  -4   6  -8  245.13   14.11 
  -4   6  -8  255.58   16.24 
  -4   6  -8  256.47   12.06 
   4  -6   8  259.48   15.99 
  -5   6  -8  5.9877  2.5719 
  -5   6  -8  2.5317  2.2906 
  -5   6  -8  5.3045  2.5719 
   5  -6   8  4.2195  3.4962 
  -6   6  -8  50.875   4.862 
  -6   6  -8  45.973   4.822 
  -6   6  -8  45.812   4.702 
   6  -6   8  61.525   6.510 
   7  -6   8  22.625   5.747 
   6   5  -8  87.284   8.921 
   6   5  -8  96.406   8.801 
  -6  -5   8  96.004   8.519 
   5   5  -8  35.042   5.626 
   5   5  -8  37.493   5.224 
  -5  -5   8  30.782   3.697 
  -5  -5   8  34.721   4.380 
   4   5  -8  23.870   4.059 
  -4  -5   8  20.374   2.371 
  -4  -5   8  23.629   3.014 
  -4  -5   8  25.478   3.134 
  -4  -5   8  24.232   2.853 
   3   5  -8  468.17   25.16 
   3   5  -8  487.82   25.88 
  -3  -5   8  431.48   19.65 
  -3  -5   8  495.53   22.46 
  -3  -5   8  459.61   25.64 
  -3  -5   8  511.28   28.81 
   2   5  -8  32.872   3.255 
   2   5  -8  43.401   4.420 
   2   5  -8  31.144   2.170 
   2   5  -8  38.699   3.335 
  -2  -5   8  34.841   2.773 
  -2  -5   8  36.007   2.773 
   1   5  -8  114.17    6.55 
   1   5  -8  125.14    7.07 
   1   5  -8  124.50    8.00 
  -1  -5   8  119.19    7.31 
  -1  -5   8  117.95    6.19 
   0   5  -8  103.68    5.95 
   0   5  -8  81.095   6.430 
   0   5  -8  102.03    5.99 
   0   5  -8  94.919   6.550 
   0  -5   8  98.254   5.184 
   0  -5   8  87.846   5.626 
  -1   5  -8  246.10   15.51 
  -1   5  -8  288.90   16.52 
  -1   5  -8  282.39   12.34 
   1  -5   8  248.67   15.39 
   1  -5   8  277.60   13.06 
  -2   5  -8  0.2813  1.8887 
  -2   5  -8  1.7682  0.7233 
  -2   5  -8  1.8485  1.6074 
  -2   5  -8  0.3617  1.8887 
  -2   5  -8  2.4112  0.8439 
   2  -5   8  3.3756  0.8841 
   2  -5   8  3.2551  2.0897 
  -3   5  -8 1020.72   49.23 
  -3   5  -8 1015.30   52.72 
  -3   5  -8 1074.93   57.95 
   3  -5   8  983.31   52.84 
  -4   5  -8  10.489   1.849 
  -4   5  -8  10.087   1.728 
  -4   5  -8  11.212   2.371 
   4  -5   8  9.2829  2.6121 
  -5   5  -8  151.54    9.40 
  -5   5  -8  158.09   10.37 
  -5   5  -8  160.50    8.40 
   5  -5   8  152.59    9.56 
  -6   5  -8  0.3617  3.0943 
  -6   5  -8  5.6662  3.1747 
   6  -5   8  2.4112  4.0990 
  -7   5  -8  11.292   4.179 
  -7   5  -8  8.9614  4.2195 
   7  -5   8  13.663   5.063 
   6   4  -8 -0.8439  4.5410 
  -6  -4   8  7.8362  3.7775 
  -6  -4   8  6.9923  2.6925 
   5   4  -8  153.03   10.77 
   5   4  -8  144.31    9.56 
  -5  -4   8  145.31    8.28 
  -5  -4   8  130.36    7.92 
  -5  -4   8  144.39    8.96 
   4   4  -8  90.016   6.631 
   4   4  -8  82.301   5.867 
  -4  -4   8  91.262   5.706 
  -4  -4   8  92.709   4.742 
  -4  -4   8  79.488   4.782 
  -4  -4   8  88.369   4.862 
   3   4  -8  158.89    8.12 
   3   4  -8  152.38    7.88 
   3   4  -8  164.60   10.61 
   3   4  -8  163.15    8.96 
  -3  -4   8  159.78    8.12 
  -3  -4   8  175.45    9.56 
  -3  -4   8  170.75    8.96 
  -3  -4   8  168.34    8.04 
   2   4  -8  84.953   5.586 
   2   4  -8  80.653   4.179 
   2   4  -8  90.539   6.148 
   2   4  -8  83.506   4.380 
   2   4  -8  87.605   4.943 
  -2  -4   8  93.392   5.104 
  -2  -4   8  85.274   4.662 
  -2  -4   8  92.146   5.305 
   1   4  -8  127.87    5.51 
   1   4  -8  129.48    5.43 
   1   4  -8  138.84    8.04 
   1   4  -8  128.31    6.71 
   1   4  -8  130.89    6.47 
  -1  -4   8  142.74    7.23 
  -1  -4   8  124.38    7.39 
   0   4  -8  271.09   16.40 
   0   4  -8  296.37   14.91 
   0   4  -8  273.26   13.38 
   0   4  -8  284.48   13.58 
   0  -4   8  261.29   11.61 
   0  -4   8  264.99   15.23 
  -1   4  -8  511.65   26.24 
  -1   4  -8  462.86   28.33 
  -1   4  -8  572.05   31.30 
  -1   4  -8  566.46   20.74 
  -1   4  -8  527.28   23.15 
  -1   4  -8  527.76   24.83 
   1  -4   8  536.64   27.17 
   1  -4   8  544.04   23.95 
  -2   4  -8  111.56    5.38 
  -2   4  -8  103.76    4.74 
  -2   4  -8  101.87    6.07 
  -2   4  -8  102.11    5.34 
  -2   4  -8  102.88    5.43 
   2  -4   8  87.967   5.827 
   2  -4   8  93.191   5.104 
  -3   4  -8  10.730   1.326 
  -3   4  -8  9.0418  1.5672 
  -3   4  -8  11.413   1.808 
   3  -4   8  10.448   2.371 
   3  -4   8  11.774   3.215 
  -4   4  -8  169.42    9.89 
  -4   4  -8  175.49    9.77 
  -4   4  -8  166.29    8.88 
   4  -4   8  160.70   10.49 
   4  -4   8  168.14    9.85 
  -5   4  -8  26.563   2.853 
  -5   4  -8  29.617   3.014 
  -5   4  -8  29.979   3.054 
   5  -4   8  32.631   4.300 
   5  -4   8  25.719   2.853 
  -6   4  -8  57.988   5.264 
  -6   4  -8  71.290   5.063 
   6  -4   8  61.886   6.751 
  -7   4  -8  48.504   5.425 
  -7   4  -8  47.218   5.345 
   7  -4   8  44.446   6.349 
   7   3  -8  7.4344  5.9877 
   7   3  -8  3.8578  7.7559 
  -7  -3   8  5.5858  3.8578 
   6   3  -8  148.49    9.97 
   6   3  -8  140.45   11.98 
  -6  -3   8  125.78    8.72 
   5   3  -8  1.2056  4.2195 
   5   3  -8  5.2242  3.2551 
  -5  -3   8  2.2906  2.5317 
  -5  -3   8  1.2458  2.2504 
  -5  -3   8  2.4915  2.1299 
   4   3  -8  869.02   42.76 
   4   3  -8  897.55   42.92 
  -4  -3   8  890.88   46.13 
  -4  -3   8  905.79   43.20 
  -4  -3   8  888.47   44.16 
  -4  -3   8  845.23   41.03 
   3   3  -8  -1.125   3.335 
   3   3  -8  3.1345  1.6878 
   3   3  -8  3.0139  2.5317 
   3   3  -8  4.7017  1.8887 
  -3  -3   8  7.3942  1.9289 
  -3  -3   8  4.9429  1.2859 
  -3  -3   8  3.7373  1.3261 
  -3  -3   8  2.2504  1.3261 
   2   3  -8  175.37   10.57 
   2   3  -8  168.78    9.85 
   2   3  -8  164.48   10.61 
   2   3  -8  171.96    7.43 
   2   3  -8  164.32    9.28 
  -2  -3   8  171.43    9.08 
  -2  -3   8  169.79    7.84 
  -2  -3   8  175.33    9.04 
   1   3  -8  21.580   1.607 
   1   3  -8  21.620   2.331 
   1   3  -8  24.674   3.376 
   1   3  -8  21.620   1.567 
   1   3  -8  24.594   2.049 
   1   3  -8  18.124   2.291 
  -1  -3   8  22.142   1.889 
  -1  -3   8  21.861   1.768 
  -1  -3   8  25.116   2.009 
   0   3  -8  968.52   37.61 
   0   3  -8  955.86   37.65 
   0   3  -8 1002.07   54.37 
   0   3  -8  970.45   48.54 
   0   3  -8  986.68   51.92 
   0   3  -8  915.88   58.19 
   0  -3   8  881.72   42.72 
   0  -3   8  943.60   44.41 
   0  -3   8  980.66   48.02 
  -1   3  -8  32.631   2.451 
  -1   3  -8  24.835   1.728 
  -1   3  -8  30.782   2.371 
  -1   3  -8  24.875   1.808 
  -1   3  -8  26.925   3.215 
   1  -3   8  27.608   1.929 
   1  -3   8  30.903   2.411 
  -2   3  -8  196.39    8.84 
  -2   3  -8  196.27   10.57 
  -2   3  -8  194.18   10.41 
  -2   3  -8  211.22   12.22 
   2  -3   8  218.89   10.65 
   2  -3   8  206.11   10.29 
  -3   3  -8  6.6709  1.3261 
  -3   3  -8  3.0943  1.4467 
  -3   3  -8  6.1484  1.6878 
   3  -3   8  4.2597  2.1299 
   3  -3   8  6.4297  2.6121 
   3  -3   8  5.8671  1.5271 
  -4   3  -8  371.88   20.45 
  -4   3  -8  353.47   18.97 
  -4   3  -8  355.81   19.57 
   4  -3   8  381.48   22.83 
   4  -3   8  352.07   21.10 
  -5   3  -8  27.768   3.014 
  -5   3  -8  27.206   3.255 
   5  -3   8  27.125   3.898 
   5  -3   8  24.192   2.572 
  -6   3  -8  51.237   4.621 
  -6   3  -8  57.988   4.501 
   6  -3   8  49.830   6.349 
  -7   3  -8  3.0139  3.6971 
  -7   3  -8  1.4065  4.0990 
   7  -3   8  6.3494  4.6214 
   7   2  -8  60.198   7.515 
   7   2  -8  50.554   7.394 
  -7  -2   8  44.285   4.742 
   6   2  -8  25.880   5.907 
   6   2  -8  32.792   4.943 
  -6  -2   8  19.088   2.974 
  -6  -2   8  26.442   2.974 
   5   2  -8  87.605   6.631 
   5   2  -8  91.865   7.394 
  -5  -2   8  90.177   5.023 
  -5  -2   8  90.539   5.546 
   4   2  -8  62.368   5.505 
   4   2  -8  61.806   4.501 
  -4  -2   8  52.804   3.657 
  -4  -2   8  64.699   3.818 
  -4  -2   8  56.863   3.536 
  -4  -2   8  68.758   3.175 
   3   2  -8  357.90   17.72 
   3   2  -8  350.90   15.15 
   3   2  -8  355.08   16.40 
   3   2  -8  357.69   18.28 
  -3  -2   8  361.15   15.31 
  -3  -2   8  362.56   18.28 
   2   2  -8  457.76   18.61 
   2   2  -8  467.12   25.48 
   2   2  -8  457.15   22.14 
   2   2  -8  449.40   24.67 
   2   2  -8  483.84   23.51 
  -2  -2   8  459.45   27.65 
  -2  -2   8  423.92   19.29 
   1   2  -8  428.86   15.55 
   1   2  -8  440.00   21.42 
   1   2  -8  436.74   25.48 
   1   2  -8  434.09   23.43 
   1   2  -8  424.60   23.83 
  -1  -2   8  444.66   24.31 
  -1  -2   8  435.86   19.45 
   0   2  -8  18.244   2.934 
   0   2  -8  15.271   1.648 
   0   2  -8  16.356   1.849 
   0   2  -8  16.074   1.849 
   0   2  -8  14.145   1.366 
   0  -2   8  18.445   1.849 
   0  -2   8  13.985   1.326 
  -1   2  -8  331.01   16.40 
  -1   2  -8  322.65   15.67 
  -1   2  -8  344.96   14.63 
  -1   2  -8  356.73   18.97 
  -1   2  -8  335.35   15.59 
   1  -2   8  366.17   15.59 
   1  -2   8  354.28   17.12 
  -2   2  -8  2.7728  1.3663 
  -2   2  -8  2.0897  1.1654 
   2  -2   8  1.1252  1.1654 
   2  -2   8 -0.8841  1.6878 
  -3   2  -8  198.16    8.12 
  -3   2  -8  206.23   12.82 
  -3   2  -8  198.88   10.37 
   3  -2   8  220.70   11.41 
   3  -2   8  196.03    9.60 
  -4   2  -8  0.8037  1.8084 
  -4   2  -8  -1.447   1.607 
  -4   2  -8 -0.7635  1.7682 
   4  -2   8  5.6662  2.7728 
   4  -2   8  3.4158  1.6476 
  -5   2  -8  70.044   4.340 
  -5   2  -8  71.933   5.104 
   5  -2   8  65.543   6.028 
  -6   2  -8  3.8177  2.6121 
  -6   2  -8  1.2859  2.6523 
   6  -2   8  5.9877  4.3803 
  -7   2  -8  22.705   4.943 
  -7   2  -8  25.518   4.621 
   7  -2   8  22.102   5.706 
   7   1  -8  54.693   6.470 
   7   1  -8  61.645   9.002 
  -7  -1   8  45.209   4.581 
   6   1  -8  2.7326  3.3756 
   6   1  -8  1.5672  4.3401 
  -6  -1   8  4.0990  1.8485 
  -6  -1   8  -1.648   2.532 
   5   1  -8  18.807   4.943 
   5   1  -8  14.909   3.496 
  -5  -1   8  22.625   2.692 
  -5  -1   8  17.320   2.371 
   4   1  -8  193.74    9.04 
   4   1  -8  212.50   10.13 
  -4  -1   8  192.09    8.16 
  -4  -1   8  198.64    9.12 
  -4  -1   8  202.46    7.92 
  -4  -1   8  199.92    9.20 
   3   1  -8 1358.64   58.47 
   3   1  -8 1326.54   54.09 
  -3  -1   8 1346.75   62.37 
  -3  -1   8 1449.06   76.35 
   2   1  -8  44.727   2.733 
   2   1  -8  44.084   4.059 
   2   1  -8  40.306   2.451 
   2   1  -8  43.642   2.612 
   2   1  -8  43.803   2.893 
  -2  -1   8  42.959   2.612 
  -2  -1   8  44.646   2.652 
   1   1  -8  358.98   16.07 
   1   1  -8  310.11   17.32 
   1   1  -8  341.98   17.64 
   1   1  -8  366.54   22.02 
   1   1  -8  347.29   15.03 
   1   1  -8  358.78   19.01 
  -1  -1   8  311.12   16.92 
  -1  -1   8  343.47   18.28 
  -1  -1   8  336.92   15.11 
   0   1  -8  399.29   23.87 
   0   1  -8  378.07   22.30 
   0   1  -8  371.00   14.63 
   0   1  -8  366.37   21.70 
   0   1  -8  390.77   17.64 
   0   1  -8  390.73   18.36 
   0  -1   8  359.54   20.70 
   0  -1   8  398.52   18.12 
   0  -1   8  362.11   15.55 
   0  -1   8  369.27   17.28 
  -1   1  -8  10.569   2.853 
  -1   1  -8  12.257   1.688 
  -1   1  -8  9.5642  1.4065 
  -1   1  -8  9.6446  1.3663 
  -1   1  -8  10.127   1.045 
   1  -1   8  12.096   1.407 
   1  -1   8  13.101   1.808 
  -2   1  -8  132.01    6.35 
  -2   1  -8  124.05    6.35 
   2  -1   8  141.78    7.39 
   2  -1   8  140.17    5.51 
  -3   1  -8  61.083   3.617 
  -3   1  -8  57.345   4.099 
  -3   1  -8  59.234   3.938 
   3  -1   8  61.163   3.175 
   3  -1   8  65.624   4.300 
  -4   1  -8  46.455   3.617 
  -4   1  -8  46.334   3.376 
   4  -1   8  50.594   3.295 
   4  -1   8  53.809   4.983 
  -5   1  -8  27.648   3.134 
  -5   1  -8  29.215   3.376 
   5  -1   8  21.901   4.099 
  -6   1  -8  45.732   4.019 
  -6   1  -8  43.320   4.862 
   6  -1   8  40.748   6.028 
  -7   1  -8  17.843   5.465 
  -7   1  -8  4.3803  4.4606 
   7  -1   8  0.0000  4.9830 
   7   0  -8  -6.671   5.626 
   7   0  -8  1.7280  4.9830 
  -7   0   8  -4.903   3.255 
   6   0  -8  150.42   12.06 
   6   0  -8  160.42   10.37 
  -6   0   8  146.64    8.32 
  -6   0   8  160.26    7.55 
   5   0  -8  4.6616  4.2597 
   5   0  -8  3.0541  2.8934 
  -5   0   8  9.3231  1.9289 
  -5   0   8  9.0820  2.2504 
   4   0  -8  93.553   6.430 
   4   0  -8  90.619   5.063 
  -4   0   8  95.040   4.782 
   3   0  -8  479.38   22.22 
   3   0  -8  488.54   23.19 
  -3   0   8  515.18   22.75 
  -3   0   8  493.72   18.69 
   2   0  -8  506.10   21.02 
   2   0  -8  518.52   25.00 
   2   0  -8  489.14   22.46 
   2   0  -8  507.55   27.37 
   2   0  -8  513.41   27.89 
  -2   0   8  500.56   23.27 
  -2   0   8  502.81   20.94 
  -2   0   8  520.89   27.57 
   1   0  -8  78.965   4.662 
   1   0  -8  78.483   5.425 
   1   0  -8  91.905   4.621 
   1   0  -8  94.718   5.104 
   1   0  -8  83.185   5.184 
   1   0  -8  84.591   3.818 
  -1   0   8  84.189   3.697 
  -1   0   8  92.427   4.581 
  -1   0   8  78.965   4.903 
   0   0  -8  727.93   37.81 
   0   0  -8  767.87   34.08 
   0   0  -8  708.03   30.18 
   0   0  -8  714.22   37.13 
   0   0  -8  761.56   44.73 
   0   0  -8  700.08   42.24 
   0   0   8  710.16   38.50 
   0   0   8  682.11   28.53 
   0   0   8  712.46   33.35 
   0   0   8  694.41   40.91 
  -1   0  -8  89.574   4.220 
  -1   0  -8  93.713   4.099 
  -1   0  -8  78.925   4.380 
  -1   0  -8  89.454   5.465 
  -1   0  -8  83.185   4.621 
   1   0   8  85.676   5.184 
   1   0   8  83.988   4.300 
   1   0   8  83.667   4.260 
   1   0   8  80.573   3.737 
  -2   0  -8  71.330   3.175 
  -2   0  -8  66.146   4.260 
   2   0   8  71.812   3.376 
   2   0   8  74.987   4.461 
  -3   0  -8  53.487   4.220 
   3   0   8  51.599   3.134 
   3   0   8  55.256   3.978 
  -4   0  -8  67.151   4.420 
  -4   0  -8  71.169   4.702 
   4   0   8  69.240   5.104 
   4   0   8  67.512   4.380 
  -5   0  -8  5.1036  2.6925 
  -5   0  -8  -1.728   2.451 
   5   0   8  10.529   3.496 
  -6   0  -8  45.048   5.023 
  -6   0  -8  44.245   4.742 
   6   0   8  41.070   5.706 
   7  -1  -8  57.908   6.269 
   7  -1  -8  57.345   7.354 
  -7   1   8  50.031   4.983 
   6  -1  -8  97.210   7.073 
   6  -1  -8  90.700   8.198 
  -6   1   8  113.00    5.59 
  -6   1   8  91.423   6.631 
  -6   1   8  101.51    5.67 
   5  -1  -8  101.87    6.27 
   5  -1  -8  112.64    7.19 
  -5   1   8  106.25    6.11 
  -5   1   8  115.37    6.35 
   4  -1  -8  9.9661  3.5765 
   4  -1  -8  4.3401  2.0897 
  -4   1   8  8.2381  1.6878 
   3  -1  -8  302.28   12.42 
   3  -1  -8  299.83   15.03 
   3  -1  -8  294.64   13.14 
  -3   1   8  298.94   12.38 
  -3   1   8  303.12   12.58 
   2  -1  -8  76.152   4.380 
   2  -1  -8  73.018   5.184 
   2  -1  -8  73.580   3.456 
   2  -1  -8  69.401   4.461 
  -2   1   8  76.233   4.220 
  -2   1   8  82.140   3.737 
  -2   1   8  75.429   3.335 
   1  -1  -8  325.26   18.41 
   1  -1  -8  326.27   13.78 
   1  -1  -8  344.75   17.76 
   1  -1  -8  364.16   18.49 
   1  -1  -8  312.73   18.28 
  -1   1   8  339.93   16.44 
  -1   1   8  317.79   15.15 
  -1   1   8  342.95   13.54 
   0  -1  -8  48.183   2.773 
   0  -1  -8  57.466   3.054 
   0  -1  -8  49.429   3.255 
   0  -1  -8  51.880   3.215 
   0  -1  -8  51.317   4.581 
   0   1   8  45.973   3.175 
   0   1   8  52.523   2.813 
   0   1   8  47.580   3.054 
   0   1   8  60.279   3.376 
  -1  -1  -8  404.99   22.18 
  -1  -1  -8  425.61   22.54 
  -1  -1  -8  425.89   18.28 
  -1  -1  -8  389.52   18.28 
  -1  -1  -8  422.31   20.25 
   1   1   8  415.24   20.74 
   1   1   8  417.05   17.28 
   1   1   8  432.28   16.44 
   1   1   8  428.78   20.78 
  -2  -1  -8  3.1345  0.6028 
  -2  -1  -8  3.3756  0.7233 
  -2  -1  -8  3.8177  1.0850 
  -2  -1  -8  5.7064  1.6476 
   2   1   8  5.6260  1.2859 
   2   1   8  4.1793  2.1299 
  -3  -1  -8  92.588   6.229 
   3   1   8  95.120   5.104 
   3   1   8  102.39    6.99 
  -4  -1  -8  4.0990  2.3308 
  -4  -1  -8 -0.0804  2.1299 
   4   1   8  1.7682  1.4065 
   4   1   8 -0.8037  2.4915 
   4   1   8  0.0402  1.4869 
  -5  -1  -8  107.18    7.07 
  -5  -1  -8  116.74    7.27 
   5   1   8  112.48    8.84 
  -6  -1  -8  0.5626  3.6569 
  -6  -1  -8  -1.045   4.300 
   6   1   8 -0.7635  4.5410 
   8  -2  -8  -1.607   7.233 
  -8   2   8  -3.215   4.380 
   7  -2  -8  40.467   6.912 
   7  -2  -8  33.716   5.465 
  -7   2   8  41.592   4.581 
  -7   2   8  39.543   4.139 
  -7   2   8  45.330   6.390 
   6  -2  -8  20.374   5.144 
   6  -2  -8  31.144   4.139 
  -6   2   8  35.605   3.376 
  -6   2   8  37.051   3.295 
  -6   2   8  30.581   3.536 
   5  -2  -8  95.763   6.832 
   5  -2  -8  104.44    5.95 
  -5   2   8  110.03    5.91 
  -5   2   8  101.95    5.75 
   4  -2  -8  178.51    8.60 
   4  -2  -8  169.46   10.49 
  -4   2   8  174.65    8.88 
  -4   2   8  172.92    7.80 
   3  -2  -8  213.99   10.29 
   3  -2  -8  216.92   11.41 
   3  -2  -8  217.49   10.09 
   3  -2  -8  211.46   10.85 
  -3   2   8  222.27    9.97 
  -3   2   8  230.14    8.76 
   2  -2  -8  192.29   10.81 
   2  -2  -8  178.02    7.84 
   2  -2  -8  195.46    9.81 
   2  -2  -8  180.64    9.24 
  -2   2   8  191.53    7.96 
  -2   2   8  178.91    8.32 
  -2   2   8  191.77    8.24 
   1  -2  -8  81.939   4.139 
   1  -2  -8  83.466   5.706 
   1  -2  -8  80.131   4.059 
   1  -2  -8  83.225   4.742 
  -1   2   8  79.568   4.662 
  -1   2   8  87.525   4.340 
  -1   2   8  83.948   4.581 
   0  -2  -8  189.48    9.40 
   0  -2  -8  177.22    9.24 
   0  -2  -8  188.31   12.02 
   0  -2  -8  186.78   10.05 
   0   2   8  189.84    8.88 
   0   2   8  176.78   10.09 
   0   2   8  181.60    8.72 
   0   2   8  177.34    9.77 
  -1  -2  -8  119.15    6.67 
  -1  -2  -8  126.46    6.67 
  -1  -2  -8  116.42    8.08 
  -1  -2  -8  112.00    6.91 
   1   2   8  120.16    5.18 
   1   2   8  116.10    5.43 
   1   2   8  119.91    7.84 
   1   2   8  120.00    6.03 
  -2  -2  -8  -1.366   1.688 
  -2  -2  -8  2.5719  1.1252 
   2   2   8  0.7233  1.9691 
   2   2   8  0.5626  1.4065 
  -3  -2  -8  126.91    6.95 
  -3  -2  -8  130.32    6.47 
   3   2   8  126.38    7.15 
   3   2   8  128.43    6.71 
   3   2   8  134.06    8.00 
  -4  -2  -8  23.629   3.134 
   4   2   8  20.615   2.170 
   4   2   8  22.625   2.210 
   4   2   8  26.121   3.697 
  -5  -2  -8  22.745   3.858 
  -5  -2  -8  18.526   4.139 
   5   2   8  12.940   4.179 
  -6  -2  -8  0.2813  3.4560 
  -6  -2  -8  5.2643  4.3401 
   6   2   8  -1.607   4.702 
   8  -3  -8  31.506   8.118 
  -8   3   8  23.388   4.903 
   7  -3  -8  7.0325  5.7868 
  -7   3   8  2.5317  2.6925 
  -7   3   8  3.1345  3.4560 
  -7   3   8 -0.8037  2.8934 
   6  -3  -8  110.67    7.92 
   6  -3  -8  91.785   5.948 
  -6   3   8  89.976   5.706 
  -6   3   8  100.34    5.87 
   5  -3  -8  14.708   3.456 
   5  -3  -8  16.999   2.853 
  -5   3   8  20.254   2.250 
  -5   3   8  19.289   2.733 
   4  -3  -8  187.23   10.05 
   4  -3  -8  184.49    8.92 
  -4   3   8  183.89    8.92 
  -4   3   8  183.93    8.72 
   3  -3  -8  4.6616  3.0139 
   3  -3  -8  1.0046  1.1252 
   3  -3  -8  2.5317  1.0046 
   3  -3  -8  -1.085   1.366 
  -3   3   8  1.5672  1.4065 
  -3   3   8  0.2009  1.5672 
  -3   3   8  4.1793  1.2458 
   2  -3  -8  224.00   11.21 
   2  -3  -8  198.84    9.44 
   2  -3  -8  207.72   10.53 
   2  -3  -8  202.38    8.96 
  -2   3   8  210.09   10.05 
  -2   3   8  207.32   10.49 
  -2   3   8  211.54    9.60 
   1  -3  -8  3.3354  1.7682 
   1  -3  -8  3.0943  0.7233 
   1  -3  -8  -1.005   2.652 
   1  -3  -8  3.8177  1.4467 
  -1   3   8  1.9289  1.5672 
  -1   3   8  6.2288  1.4869 
  -1   3   8  2.3308  1.5672 
  -1   3   8 -0.0402  1.5271 
   0  -3  -8  198.28    9.81 
   0  -3  -8  191.57    9.32 
   0  -3  -8  189.76   11.01 
   0   3   8  168.98   10.45 
   0   3   8  173.84    8.08 
   0   3   8  170.87    7.60 
   0   3   8  186.22    9.52 
   0   3   8  176.30    9.64 
  -1  -3  -8  20.856   2.572 
  -1  -3  -8  15.914   1.849 
   1   3   8  18.686   1.849 
   1   3   8  18.204   2.331 
   1   3   8  19.691   2.049 
   1   3   8  20.053   2.331 
   1   3   8  17.521   2.170 
  -2  -3  -8  126.10    6.07 
  -2  -3  -8  138.68    7.64 
   2   3   8  128.43    7.19 
   2   3   8  130.72    7.15 
   2   3   8  130.97    7.68 
  -3  -3  -8  -2.411   2.250 
  -3  -3  -8 -0.9243  1.3261 
   3   3   8  0.0402  2.4915 
   3   3   8  1.4065  1.6074 
   3   3   8  3.3756  1.5271 
  -4  -3  -8  100.38    6.71 
   4   3   8  90.900   8.359 
  -5  -3  -8  21.540   3.777 
  -5  -3  -8  24.031   3.536 
   5   3   8  21.982   5.224 
  -6  -3  -8  54.532   6.390 
  -6  -3  -8  55.095   6.550 
   6   3   8  47.138   7.595 
   7  -4  -8  76.675   9.283 
  -7   4   8  61.525   4.782 
  -7   4   8  64.619   5.144 
   6  -4  -8  53.086   5.626 
  -6   4   8  52.563   4.019 
  -6   4   8  55.055   4.380 
   5  -4  -8  0.8439  3.6167 
   5  -4  -8  -1.889   3.295 
  -5   4   8  0.4420  2.0897 
  -5   4   8  2.2102  2.3710 
   4  -4  -8  -3.215   3.295 
   4  -4  -8  0.0402  1.2859 
  -4   4   8 -0.0804  1.9691 
  -4   4   8  0.6028  2.0093 
   3  -4  -8  84.350   3.697 
   3  -4  -8  89.815   5.586 
   3  -4  -8  81.055   3.335 
   3  -4  -8  79.930   5.546 
  -3   4   8  81.417   5.224 
  -3   4   8  91.021   4.420 
  -3   4   8  80.854   4.782 
   2  -4  -8  54.934   4.662 
   2  -4  -8  52.804   2.090 
   2  -4  -8  59.676   5.505 
  -2   4   8  67.593   3.737 
  -2   4   8  61.484   3.737 
  -2   4   8  59.797   3.777 
   1  -4  -8  125.14    8.52 
   1  -4  -8  121.28    7.11 
  -1   4   8  130.80    7.68 
  -1   4   8  119.87    6.51 
  -1   4   8  119.47    7.11 
  -1   4   8  114.85    5.10 
   0  -4  -8  32.189   3.456 
   0  -4  -8  27.929   2.612 
   0  -4  -8  33.796   3.054 
   0   4   8  30.541   2.009 
   0   4   8  27.608   2.451 
   0   4   8  28.371   2.210 
   0   4   8  35.203   3.054 
   0   4   8  29.898   2.451 
  -1  -4  -8  6.3896  2.4513 
  -1  -4  -8  4.1391  1.5271 
   1   4   8  4.8625  2.2102 
   1   4   8  3.4158  2.0093 
   1   4   8  4.3803  1.4065 
   1   4   8  4.0588  1.8084 
   1   4   8  4.0588  1.7280 
  -2  -4  -8  11.453   2.813 
  -2  -4  -8  17.400   2.009 
   2   4   8  11.212   2.170 
   2   4   8  12.337   2.009 
   2   4   8  13.944   2.652 
  -3  -4  -8  36.248   2.853 
  -3  -4  -8  43.481   4.019 
   3   4   8  31.023   3.014 
   3   4   8  37.654   4.822 
   3   4   8  28.974   2.652 
  -4  -4  -8  4.9027  2.6121 
   4   4   8  4.1793  3.6569 
  -5  -4  -8  51.478   5.184 
  -5  -4  -8  49.429   5.546 
   5   4   8  59.837   6.912 
   7  -5  -8  37.895   7.153 
  -7   5   8  38.337   4.581 
  -7   5   8  46.294   4.662 
   6  -5  -8  5.5055  4.7017 
  -6   5   8  3.8177  2.7326 
  -6   5   8  11.212   3.496 
   5  -5  -8  62.288   5.666 
  -5   5   8  60.078   4.501 
  -5   5   8  57.426   4.340 
   4  -5  -8  39.422   4.380 
  -4   5   8  40.548   3.416 
  -4   5   8  43.039   3.456 
   3  -5  -8  26.643   3.938 
  -3   5   8  31.023   2.612 
  -3   5   8  29.295   2.572 
  -3   5   8  28.371   2.853 
   2  -5  -8  3.1747  3.4560 
   2  -5  -8  7.4746  1.9289 
  -2   5   8  11.774   2.130 
  -2   5   8  7.7157  1.8084 
  -2   5   8  6.7512  2.0897 
   1  -5  -8  129.40    8.04 
   1  -5  -8  121.32    9.72 
  -1   5   8  137.48    8.52 
  -1   5   8  138.12    8.04 
  -1   5   8  136.87    7.84 
   0  -5  -8  67.311   4.420 
   0  -5  -8  64.579   5.345 
   0  -5  -8  68.075   4.662 
   0   5   8  73.138   4.501 
   0   5   8  63.253   3.215 
   0   5   8  60.480   2.733 
   0   5   8  70.607   4.380 
   0   5   8  72.978   5.546 
  -1  -5  -8  33.435   3.416 
  -1  -5  -8  30.983   3.335 
   1   5   8  32.711   3.536 
   1   5   8  35.203   2.893 
   1   5   8  31.466   2.813 
   1   5   8  33.475   2.773 
  -2  -5  -8  42.396   3.818 
  -2  -5  -8  41.673   3.335 
   2   5   8  43.240   3.175 
   2   5   8  51.036   4.662 
   2   5   8  42.235   3.456 
  -3  -5  -8  24.594   2.532 
  -3  -5  -8  18.767   2.974 
   3   5   8  20.856   2.652 
   3   5   8  22.705   3.938 
   3   5   8  23.790   2.492 
  -4  -5  -8  23.911   3.657 
   4   5   8  29.496   4.822 
  -5  -5  -8  -9.966   4.461 
  -5  -5  -8  2.8934  4.1793 
   5   5   8  6.5101  5.0232 
   7  -6  -8  5.0634  6.6709 
  -7   6   8  5.5456  4.3401 
  -7   6   8  2.9738  3.7775 
   6  -6  -8  58.470   7.475 
  -6   6   8  65.423   4.662 
  -6   6   8  58.229   4.742 
   5  -6  -8  -3.094   4.179 
  -5   6   8  1.0046  2.0495 
  -5   6   8 -0.0402  2.5317 
   4  -6  -8  2.8532  3.3354 
  -4   6   8  4.2195  1.9691 
  -4   6   8  3.6971  2.3308 
   3  -6  -8  6.5503  3.0541 
   3  -6  -8  2.3710  1.9691 
  -3   6   8  5.4251  2.3710 
  -3   6   8  7.6353  2.4112 
   2  -6  -8  16.999   2.893 
   2  -6  -8  11.533   3.697 
  -2   6   8  14.989   2.492 
  -2   6   8  13.422   2.411 
  -2   6   8  14.105   2.572 
   1  -6  -8  4.0990  1.9691 
   1  -6  -8  4.0588  2.9336 
  -1   6   8  2.2906  1.8887 
  -1   6   8  1.0046  2.4513 
  -1   6   8 -0.3215  1.8485 
   0  -6  -8  2.5317  2.1299 
   0  -6  -8  2.0093  2.2102 
   0  -6  -8  5.0232  2.4915 
   0   6   8  1.3663  2.0897 
   0   6   8  3.2551  1.6476 
   0   6   8  0.5626  1.6476 
   0   6   8  0.0402  2.2504 
  -1  -6  -8  16.315   3.014 
  -1  -6  -8  14.025   2.572 
   1   6   8  15.632   2.331 
   1   6   8  14.748   3.295 
   1   6   8  16.838   2.331 
  -2  -6  -8  93.633   7.595 
  -2  -6  -8  87.002   5.787 
   2   6   8  89.856   5.867 
   2   6   8  95.241   7.555 
   2   6   8  95.040   6.631 
  -3  -6  -8  28.090   3.697 
   3   6   8  27.728   4.903 
   3   6   8  21.821   3.014 
   3   6   8  25.759   3.175 
  -4  -6  -8  26.804   4.501 
   4   6   8  25.237   5.827 
   7  -7  -8  6.5905  6.3896 
  -7   7   8  10.850   4.380 
  -7   7   8  17.119   4.380 
   6  -7  -8  5.2643  5.5858 
  -6   7   8  5.8270  3.6569 
  -6   7   8  3.4158  3.4560 
   5  -7  -8  20.414   3.777 
   5  -7  -8  18.325   4.461 
  -5   7   8  14.105   3.094 
  -5   7   8  14.869   3.335 
   4  -7  -8  14.427   4.541 
   4  -7  -8  16.838   3.777 
  -4   7   8  15.472   2.934 
  -4   7   8  13.261   2.572 
   3  -7  -8  49.228   4.220 
   3  -7  -8  54.010   5.425 
  -3   7   8  57.305   4.340 
  -3   7   8  50.393   4.059 
   2  -7  -8  10.890   2.532 
   2  -7  -8  5.5055  3.2551 
  -2   7   8  8.2381  2.4513 
  -2   7   8  8.5194  2.4112 
  -2   7   8  12.859   2.652 
   1  -7  -8  52.201   4.139 
   1  -7  -8  42.718   5.063 
  -1   7   8  55.256   4.179 
  -1   7   8  57.305   4.943 
  -1   7   8  46.214   3.978 
   0  -7  -8  37.935   3.777 
   0  -7  -8  40.065   3.858 
   0  -7  -8  37.092   4.340 
   0   7   8  42.195   4.019 
   0   7   8  35.283   3.295 
   0   7   8  38.418   3.697 
  -1  -7  -8  89.775   6.671 
  -1  -7  -8  77.237   6.550 
   1   7   8  83.265   6.349 
   1   7   8  93.432   7.555 
   1   7   8  90.137   5.465 
  -2  -7  -8  15.472   3.617 
  -2  -7  -8  9.0820  2.6925 
   2   7   8  9.0820  3.6971 
   2   7   8  9.4035  2.8532 
   2   7   8  13.824   2.692 
  -3  -7  -8  27.889   4.822 
   3   7   8  41.874   5.626 
  -4  -7  -8  27.166   5.385 
   4   7   8  33.676   6.751 
   7  -8  -8  0.0402  6.8718 
   6  -8  -8  -4.099   4.260 
   6  -8  -8  -5.948   6.028 
  -6   8   8  2.2102  3.6569 
  -6   8   8  9.3633  3.8177 
   5  -8  -8  9.0016  6.0681 
   5  -8  -8  8.2381  3.7775 
  -5   8   8  -1.125   3.175 
  -5   8   8  -2.009   3.215 
   4  -8  -8  0.0402  2.6523 
   4  -8  -8  6.1484  4.2999 
  -4   8   8  1.4467  2.9738 
  -4   8   8  0.2009  3.0943 
   3  -8  -8  17.883   3.737 
   3  -8  -8  13.302   4.420 
  -3   8   8  13.502   3.376 
  -3   8   8  10.207   2.612 
   2  -8  -8  61.967   6.148 
   2  -8  -8  53.729   4.782 
  -2   8   8  59.314   4.179 
  -2   8   8  52.161   5.104 
   1  -8  -8  64.378   5.747 
   1  -8  -8  55.256   5.104 
   1  -8  -8  56.662   5.586 
  -1   8   8  66.869   4.983 
  -1   8   8  67.191   6.631 
  -1   8   8  66.508   4.501 
   0  -8  -8  21.901   3.818 
   0  -8  -8  24.835   3.577 
   0   8   8  19.048   3.416 
   0   8   8  23.469   4.340 
   0   8   8  24.554   3.496 
  -1  -8  -8  12.458   3.295 
  -1  -8  -8  16.074   3.456 
   1   8   8  12.377   4.179 
   1   8   8  9.8455  2.7728 
   1   8   8  12.458   3.054 
  -2  -8  -8  40.909   4.501 
  -2  -8  -8  35.364   4.420 
   2   8   8  31.626   3.938 
   2   8   8  35.605   4.059 
  -3  -8  -8  0.8037  4.5812 
   3   8   8  -3.416   5.505 
   6  -9  -8  14.266   5.907 
   6  -9  -8  15.351   4.943 
  -6   9   8  5.1840  4.0990 
  -6   9   8  5.0232  4.0186 
   5  -9  -8  3.2149  5.3447 
   5  -9  -8  0.2009  3.4560 
  -5   9   8  0.9243  3.3756 
  -5   9   8  0.7233  3.8578 
   4  -9  -8  23.790   3.938 
   4  -9  -8  15.150   5.023 
  -4   9   8  26.402   3.858 
  -4   9   8  20.937   4.340 
   3  -9  -8  2.2504  4.7017 
   3  -9  -8  0.0804  3.5364 
  -3   9   8  2.5317  3.2551 
  -3   9   8  1.5271  2.4915 
   2  -9  -8  56.823   5.104 
  -2   9   8  53.568   4.983 
  -2   9   8  54.010   4.943 
   1  -9  -8  27.286   4.019 
   1  -9  -8  27.768   4.822 
  -1   9   8  25.840   4.019 
  -1   9   8  20.897   3.697 
   0  -9  -8  29.295   4.260 
   0  -9  -8  37.252   4.862 
   0   9   8  42.919   4.179 
   0   9   8  46.294   6.349 
   0   9   8  32.470   3.858 
  -1  -9  -8  -2.853   3.255 
  -1  -9  -8  5.0634  3.7373 
   1   9   8  0.8841  3.0139 
   1   9   8  4.0990  3.2149 
   1   9   8 -0.8037  4.2999 
  -2  -9  -8  4.6214  4.7419 
  -2  -9  -8  9.9661  3.8177 
   2   9   8  9.7652  5.6260 
   2   9   8  5.7064  3.2551 
   2   9   8  8.3988  3.4962 
   5 -10  -8  15.150   5.144 
  -5  10   8  18.606   5.063 
  -5  10   8  22.303   4.742 
   4 -10  -8  13.221   4.059 
  -4  10   8  5.9073  3.8980 
  -4  10   8  11.694   3.255 
   3 -10  -8  12.900   4.501 
  -3  10   8  10.529   3.617 
  -3  10   8  8.4792  3.4962 
   2 -10  -8  7.5951  4.5008 
  -2  10   8  2.5719  3.5765 
  -2  10   8  3.0943  3.2149 
   1 -10  -8  57.988   5.907 
   1 -10  -8  50.353   6.309 
  -1  10   8  62.208   5.546 
  -1  10   8  61.083   5.827 
   0 -10  -8  -2.813   3.938 
   0 -10  -8 -0.5224  3.8177 
   0  10   8  1.9691  3.5364 
   0  10   8  0.8841  3.3354 
   0  10   8  2.6523  3.7775 
  -1 -10  -8  10.931   3.416 
  -1 -10  -8  -5.827   3.777 
   1  10   8  3.4560  3.8177 
   1  10   8  4.0186  3.4560 
   1  10   8  17.280   5.988 
   4 -11  -8  20.213   5.546 
  -4  11   8  23.428   5.385 
  -4  11   8  19.490   4.380 
   3 -11  -8 -0.7233  4.9830 
  -3  11   8  -5.184   4.461 
  -3  11   8  0.6028  3.7373 
   2 -11  -8  72.415   7.394 
   2 -11  -8  64.016   7.354 
  -2  11   8  74.545   6.470 
  -2  11   8  75.027   6.832 
   1 -11  -8  6.0681  4.7419 
   1 -11  -8  3.9784  4.9429 
  -1  11   8  2.6925  4.2999 
  -1  11   8  2.0093  3.6971 
   1  11  -9  0.9243  4.7419 
   1  11  -9  1.4869  4.7017 
  -1 -11   9  0.7635  4.7419 
  -1 -11   9  0.4822  3.6971 
   0  11  -9  28.693   5.264 
   0  11  -9  24.996   5.063 
   0 -11   9  28.612   6.189 
   0 -11   9  28.371   4.501 
  -1  11  -9 -0.7233  4.9027 
  -1  11  -9  -6.952   4.139 
   1 -11   9  -10.41    4.50 
   1 -11   9  2.7326  3.8578 
  -2  11  -9  33.435   5.063 
  -2  11  -9  35.765   5.505 
   2 -11   9  33.716   5.465 
  -3  11  -9  16.315   4.581 
  -3  11  -9  13.382   4.943 
   2  10  -9  5.9475  4.7017 
   2  10  -9  5.9877  4.3401 
  -2 -10   9  11.453   5.104 
  -2 -10   9  4.5410  4.3401 
   1  10  -9  79.086   6.510 
   1  10  -9  86.882   7.676 
  -1 -10   9  76.916   8.118 
  -1 -10   9  73.058   6.832 
   0  10  -9  40.789   5.224 
   0  10  -9  34.560   4.903 
   0 -10   9  44.365   5.505 
   0 -10   9  45.089   4.943 
  -1  10  -9  147.76   12.46 
  -1  10  -9  159.22   10.41 
   1 -10   9  148.77   10.93 
   1 -10   9  158.81   12.58 
  -2  10  -9  11.855   4.099 
  -2  10  -9  4.4204  3.4158 
   2 -10   9  15.431   4.220 
  -3  10  -9  100.79    8.48 
  -3  10  -9  92.548   7.997 
   3 -10   9  98.656   9.564 
  -4  10  -9  -1.567   2.733 
  -4  10  -9  0.2411  3.8177 
   4 -10   9  0.2009  4.4204 
   3   9  -9  61.605   7.033 
   3   9  -9  57.184   6.148 
  -3  -9   9  61.846   5.666 
  -3  -9   9  60.600   6.390 
   2   9  -9  7.6353  3.9382 
   2   9  -9  7.4746  4.3803 
  -2  -9   9  6.8316  4.0186 
  -2  -9   9  2.3308  3.0943 
   1   9  -9  39.824   4.501 
   1   9  -9  53.246   5.586 
  -1  -9   9  51.840   5.465 
  -1  -9   9  57.988   4.983 
   0   9  -9  61.163   6.550 
   0   9  -9  67.472   5.505 
   0  -9   9  60.198   4.702 
   0  -9   9  64.177   5.425 
  -1   9  -9  28.974   4.220 
  -1   9  -9  31.385   3.818 
   1  -9   9  25.116   3.215 
   1  -9   9  28.251   3.858 
  -2   9  -9  71.089   5.827 
  -2   9  -9  70.526   6.028 
   2  -9   9  75.630   6.751 
  -3   9  -9  60.962   5.988 
  -3   9  -9  63.011   5.264 
   3  -9   9  75.750   7.957 
  -4   9  -9  13.502   3.094 
   4  -9   9  9.9661  3.9382 
  -5   9  -9  0.8439  3.8578 
   5  -9   9  -1.728   4.822 
   4   8  -9  98.978   8.881 
   4   8  -9  105.69    8.64 
  -4  -8   9  97.853   8.600 
  -4  -8   9  100.22    8.00 
   3   8  -9  10.730   4.179 
   3   8  -9  2.9738  4.5008 
  -3  -8   9  6.7512  3.7775 
  -3  -8   9  13.462   3.818 
   2   8  -9  172.44   12.42 
   2   8  -9  165.57    9.93 
   2   8  -9  162.71   10.81 
  -2  -8   9  163.88   10.53 
  -2  -8   9  173.92   12.30 
   1   8  -9  3.9784  3.1345 
   1   8  -9  3.2551  3.0943 
   1   8  -9  -4.139   3.858 
  -1  -8   9  2.2504  2.4513 
  -1  -8   9  6.0279  3.0541 
   0   8  -9  255.22   14.47 
   0   8  -9  250.28   15.19 
   0  -8   9  251.97   15.23 
   0  -8   9  247.63   16.72 
  -1   8  -9  9.8455  3.0139 
  -1   8  -9  9.9661  2.9336 
   1  -8   9  10.087   2.291 
   1  -8   9  11.292   2.934 
  -2   8  -9  80.733   6.269 
  -2   8  -9  75.630   6.148 
   2  -8   9  86.279   7.635 
   2  -8   9  68.437   7.635 
  -3   8  -9  14.186   3.416 
  -3   8  -9  6.7914  3.3354 
   3  -8   9  12.578   4.019 
  -4   8  -9  48.303   3.938 
   4  -8   9  38.177   4.983 
  -5   8  -9  1.7280  3.5364 
   5  -8   9  0.2411  3.8980 
   6  -8   9  37.976   6.791 
   5   7  -9  21.499   6.550 
  -5  -7   9  24.232   5.224 
   4   7  -9  -5.184   5.264 
   4   7  -9  12.940   4.541 
   4   7  -9  5.4653  3.9784 
  -4  -7   9  3.4560  3.5765 
  -4  -7   9  5.4251  3.8177 
   3   7  -9  97.732   8.359 
   3   7  -9  107.14    7.76 
   3   7  -9  105.53    6.75 
  -3  -7   9  101.87    6.99 
  -3  -7   9  95.803   7.555 
   2   7  -9  2.2102  3.1345 
   2   7  -9  5.4653  3.7775 
   2   7  -9  3.0541  3.0139 
  -2  -7   9  4.2999  2.5719 
  -2  -7   9  4.4204  2.4915 
   1   7  -9  245.33   15.27 
   1   7  -9  255.74   15.27 
   1   7  -9  256.59   12.38 
  -1  -7   9  250.64   17.20 
  -1  -7   9  248.79   14.83 
   0   7  -9  37.534   4.019 
   0   7  -9  38.378   3.617 
   0   7  -9  41.351   4.702 
   0  -7   9  36.650   3.657 
   0  -7   9  30.340   3.175 
  -1   7  -9  155.12    8.20 
  -1   7  -9  146.40    8.24 
   1  -7   9  149.29    8.84 
   1  -7   9  126.55    7.72 
  -2   7  -9  -4.621   2.492 
  -2   7  -9  1.4869  2.4915 
   2  -7   9 -0.3617  1.4869 
   2  -7   9 -0.7635  2.8532 
  -3   7  -9  59.636   4.260 
  -3   7  -9  55.135   4.541 
   3  -7   9  45.008   4.420 
  -4   7  -9  21.017   3.255 
   4  -7   9  20.856   4.461 
  -5   7  -9  70.727   5.144 
   5  -7   9  65.624   6.269 
  -6   7  -9  9.6848  4.0588 
   6  -7   9  4.6214  5.3447 
   5   6  -9  85.797   8.801 
   5   6  -9  73.379   7.635 
  -5  -6   9  79.930   7.876 
  -5  -6   9  97.250   6.791 
   4   6  -9  45.450   6.510 
   4   6  -9  40.869   5.264 
  -4  -6   9  36.127   3.978 
  -4  -6   9  44.164   4.059 
   3   6  -9  130.97    9.08 
   3   6  -9  125.26    9.16 
   3   6  -9  122.04    7.60 
  -3  -6   9  113.48    7.51 
  -3  -6   9  123.81    7.11 
  -3  -6   9  131.73    8.08 
   2   6  -9  37.453   3.737 
   2   6  -9  36.408   4.903 
   2   6  -9  38.217   3.898 
  -2  -6   9  34.279   3.496 
  -2  -6   9  32.149   3.094 
   1   6  -9  183.57    9.56 
   1   6  -9  180.07   11.33 
   1   6  -9  177.58   11.65 
  -1  -6   9  188.07   10.45 
  -1  -6   9  169.91   11.25 
   0   6  -9  243.97   16.03 
   0   6  -9  255.54   13.70 
   0   6  -9  249.76   14.11 
   0  -6   9  237.10   13.58 
   0  -6   9  253.41   13.22 
  -1   6  -9  86.279   6.189 
  -1   6  -9  86.159   5.465 
   1  -6   9  84.310   5.305 
   1  -6   9  76.916   5.465 
  -2   6  -9  134.10    7.35 
  -2   6  -9  137.23    7.35 
   2  -6   9  142.30    8.72 
   2  -6   9  127.15    7.51 
  -3   6  -9  23.227   3.014 
  -3   6  -9  19.691   3.175 
   3  -6   9  14.989   2.612 
  -4   6  -9  35.765   3.617 
   4  -6   9  37.694   5.385 
  -5   6  -9  29.858   4.059 
   5  -6   9  27.326   4.822 
  -6   6  -9  65.543   5.546 
   6  -6   9  65.222   7.434 
   6   5  -9  66.307   9.645 
   6   5  -9  65.583   8.600 
  -6  -5   9  65.784   7.113 
   5   5  -9  1.8485  4.2597 
   5   5  -9  4.3803  5.8270 
  -5  -5   9  10.810   3.295 
  -5  -5   9  3.8177  3.6569 
   4   5  -9  252.77   14.79 
   4   5  -9  239.35   13.10 
  -4  -5   9  222.07   15.23 
  -4  -5   9  235.73   18.89 
  -4  -5   9  249.35   12.18 
   3   5  -9  7.3138  2.7326 
   3   5  -9  3.6167  3.9382 
   3   5  -9  0.2813  2.4915 
  -3  -5   9  6.6307  2.2102 
  -3  -5   9  3.1747  2.1299 
  -3  -5   9  0.9243  1.7280 
   2   5  -9  108.62    7.23 
   2   5  -9  99.098   5.666 
   2   5  -9  102.59    6.67 
  -2  -5   9  103.16    5.87 
  -2  -5   9  99.179   5.787 
  -2  -5   9  101.59    5.67 
   1   5  -9  151.90    6.91 
   1   5  -9  148.45    9.60 
   1   5  -9  152.47    8.28 
  -1  -5   9  145.96    7.72 
  -1  -5   9  149.93    7.80 
   0   5  -9  366.70   23.51 
   0   5  -9  400.05   21.42 
   0   5  -9  389.72   19.85 
   0  -5   9  362.60   21.14 
   0  -5   9  397.96   19.29 
  -1   5  -9  6.4699  2.3308 
  -1   5  -9  10.971   2.813 
  -1   5  -9  12.056   2.049 
   1  -5   9  8.7203  1.3261 
   1  -5   9  11.131   2.291 
  -2   5  -9  233.76   21.22 
  -2   5  -9  297.82   14.63 
  -2   5  -9  320.72   17.52 
  -2   5  -9  303.81   12.26 
  -2   5  -9  307.78   18.04 
   2  -5   9  287.97   15.43 
   2  -5   9  290.26   16.48 
  -3   5  -9  198.96    9.12 
  -3   5  -9  197.03    9.12 
  -3   5  -9  188.83   10.69 
   3  -5   9  199.36   11.41 
  -4   5  -9  83.788   4.822 
  -4   5  -9  85.315   5.104 
  -4   5  -9  90.137   5.626 
   4  -5   9  93.111   6.631 
  -5   5  -9  64.378   4.943 
  -5   5  -9  61.163   4.702 
  -5   5  -9  64.659   5.063 
   5  -5   9  58.792   6.631 
   5  -5   9  54.010   4.501 
  -6   5  -9  28.371   3.617 
   6  -5   9  33.194   5.345 
   6   4  -9  40.548   7.394 
   6   4  -9  36.248   6.189 
   5   4  -9  110.51    8.36 
   5   4  -9  117.18    9.12 
  -5  -4   9  112.24    7.43 
  -5  -4   9  116.34    7.55 
   4   4  -9  22.062   3.737 
   4   4  -9  28.452   5.144 
  -4  -4   9  14.507   2.451 
  -4  -4   9  19.008   2.974 
  -4  -4   9  20.093   3.014 
  -4  -4   9  22.665   2.451 
   3   4  -9  273.02   15.51 
   3   4  -9  258.03   12.02 
   3   4  -9  249.80   12.62 
  -3  -4   9  282.23   13.42 
  -3  -4   9  255.98   13.66 
  -3  -4   9  261.41   12.94 
   2   4  -9  21.258   2.934 
   2   4  -9  20.535   1.768 
   2   4  -9  25.639   4.260 
   2   4  -9  20.334   2.572 
   2   4  -9  16.637   1.728 
  -2  -4   9  24.795   2.331 
  -2  -4   9  25.759   2.532 
  -2  -4   9  18.365   2.170 
   1   4  -9  159.10    8.76 
   1   4  -9  153.75    7.60 
   1   4  -9  159.94    9.89 
   1   4  -9  150.17    7.31 
   1   4  -9  171.55    7.35 
  -1  -4   9  158.45    7.80 
  -1  -4   9  159.82    7.68 
  -1  -4   9  152.91    7.03 
   0   4  -9  33.515   1.447 
   0   4  -9  24.192   3.777 
   0   4  -9  28.371   1.286 
   0   4  -9  30.742   2.853 
   0   4  -9  30.099   2.773 
   0   4  -9  34.158   2.934 
   0   4  -9  29.095   1.487 
   0  -4   9  29.738   2.572 
   0  -4   9  34.801   2.733 
   0  -4   9  31.224   2.331 
  -1   4  -9  189.32   11.33 
  -1   4  -9  200.37    9.60 
  -1   4  -9  169.10   13.22 
  -1   4  -9  214.99   11.29 
  -1   4  -9  200.77    9.68 
  -1   4  -9  198.56    9.81 
   1  -4   9  218.61   10.17 
   1  -4   9  214.03   10.45 
  -2   4  -9  50.072   3.858 
  -2   4  -9  48.545   3.496 
  -2   4  -9  45.330   3.175 
  -2   4  -9  44.325   2.974 
  -2   4  -9  46.374   2.652 
   2  -4   9  48.062   3.014 
   2  -4   9  52.161   4.019 
  -3   4  -9  730.90   42.80 
  -3   4  -9  694.81   38.14 
  -3   4  -9  713.82   45.41 
   3  -4   9  719.13   43.80 
   3  -4   9  751.60   44.37 
  -4   4  -9  -1.728   1.929 
  -4   4  -9 -0.4420  1.7682 
  -4   4  -9  -2.492   2.130 
   4  -4   9  -2.049   1.849 
   4  -4   9  1.0850  3.1345 
  -5   4  -9  61.725   4.621 
  -5   4  -9  65.945   4.340 
  -5   4  -9  58.470   4.742 
   5  -4   9  60.198   6.068 
   5  -4   9  56.341   4.179 
  -6   4  -9  4.3401  2.8532 
  -6   4  -9  -3.657   3.456 
   6  -4   9  -1.607   4.179 
   6   3  -9  5.7466  5.4653 
   6   3  -9  12.257   5.546 
  -6  -3   9  6.5905  3.3354 
   5   3  -9  58.028   5.626 
   5   3  -9  55.617   6.631 
  -5  -3   9  60.198   4.621 
  -5  -3   9  62.770   4.179 
   4   3  -9  81.939   7.113 
   4   3  -9  72.455   5.586 
  -4  -3   9  80.693   5.144 
  -4  -3   9  85.234   4.501 
  -4  -3   9  72.174   4.300 
   3   3  -9  126.14    7.03 
   3   3  -9  132.85    6.51 
   3   3  -9  140.89    8.28 
  -3  -3   9  135.43    7.35 
  -3  -3   9  134.14    6.83 
  -3  -3   9  149.33    7.47 
   2   3  -9  21.218   2.130 
   2   3  -9  22.343   2.130 
   2   3  -9  21.218   2.934 
   2   3  -9  19.450   2.612 
  -2  -3   9  24.071   2.210 
  -2  -3   9  24.312   2.049 
  -2  -3   9  19.892   2.049 
   1   3  -9  347.77   18.00 
   1   3  -9  354.68   15.31 
   1   3  -9  342.30   16.28 
   1   3  -9  349.54   17.68 
   1   3  -9  342.14   20.53 
  -1  -3   9  345.44   16.19 
  -1  -3   9  346.52   18.28 
  -1  -3   9  330.85   17.20 
   0   3  -9  44.646   3.898 
   0   3  -9  41.914   2.210 
   0   3  -9  41.231   2.733 
   0   3  -9  44.687   2.692 
   0   3  -9  36.810   3.215 
   0   3  -9  47.379   3.577 
   0  -3   9  42.476   3.094 
   0  -3   9  45.812   2.692 
  -1   3  -9  53.487   3.536 
  -1   3  -9  58.712   3.898 
  -1   3  -9  57.345   3.255 
  -1   3  -9  63.775   5.184 
  -1   3  -9  53.769   3.938 
   1  -3   9  54.572   3.456 
   1  -3   9  47.701   2.974 
  -2   3  -9  211.82   11.81 
  -2   3  -9  206.92   12.02 
  -2   3  -9  205.11   12.74 
  -2   3  -9  213.07   11.45 
   2  -3   9  214.99   11.45 
   2  -3   9  196.63    9.20 
  -3   3  -9  228.30   14.35 
  -3   3  -9  215.56   11.53 
  -3   3  -9  227.45   13.90 
   3  -3   9  224.20   12.78 
   3  -3   9  204.43   11.94 
  -4   3  -9  5.0232  2.3308 
  -4   3  -9  1.2458  1.8887 
  -4   3  -9  5.1840  2.3308 
   4  -3   9  6.9522  1.8887 
   4  -3   9  6.9120  3.0541 
  -5   3  -9 -0.4822  2.4915 
  -5   3  -9  6.9522  2.8130 
   5  -3   9  5.6260  3.3756 
  -6   3  -9  19.892   3.858 
  -6   3  -9  13.422   3.175 
   6  -3   9  6.2690  4.5008 
   7   2  -9  7.5549  7.5148 
   7   2  -9  -7.394   5.586 
  -7  -2   9  6.7512  3.7373 
   6   2  -9  140.61   11.77 
   6   2  -9  129.72    9.40 
  -6  -2   9  129.92    8.20 
  -6  -2   9  131.49    9.16 
   5   2  -9  7.0325  3.6167 
   5   2  -9  10.890   4.420 
  -5  -2   9  3.8177  2.2102 
  -5  -2   9  7.4344  2.0897 
   4   2  -9  155.12    8.16 
   4   2  -9  172.40   10.29 
  -4  -2   9  182.12    8.20 
  -4  -2   9  168.30    7.88 
   3   2  -9  -1.246   2.974 
   3   2  -9  2.1700  2.2504 
   3   2  -9  -1.366   2.130 
  -3  -2   9  5.0634  1.6476 
  -3  -2   9  0.6832  1.2859 
   2   2  -9  233.56    9.93 
   2   2  -9  239.87   13.54 
   2   2  -9  228.05   12.94 
   2   2  -9  235.53   10.49 
   2   2  -9  237.22   13.02 
  -2  -2   9  235.17   13.06 
  -2  -2   9  246.06   12.06 
   1   2  -9  4.8223  1.6074 
   1   2  -9  4.6616  1.9289 
   1   2  -9  1.6878  1.2056 
   1   2  -9  4.3401  1.5271 
   1   2  -9  5.1438  3.0943 
  -1  -2   9  4.0990  1.5672 
  -1  -2   9  6.2690  1.7280 
   0   2  -9  455.27   22.75 
   0   2  -9  474.68   24.63 
   0   2  -9  486.69   28.61 
   0   2  -9  482.23   25.52 
   0   2  -9  516.03   23.47 
   0  -2   9  502.56   25.44 
   0  -2   9  494.25   20.74 
  -1   2  -9  5.9475  1.0850 
  -1   2  -9  9.2026  1.8887 
  -1   2  -9  6.7914  1.5672 
  -1   2  -9  8.1175  1.2859 
  -1   2  -9  8.7203  3.0139 
   1  -2   9  6.5503  1.6476 
   1  -2   9  6.4297  1.6074 
  -2   2  -9  125.82    6.71 
  -2   2  -9  124.50    7.51 
   2  -2   9  148.29    7.47 
   2  -2   9  143.95    7.27 
  -3   2  -9  33.033   2.692 
  -3   2  -9  33.877   2.612 
  -3   2  -9  35.082   3.134 
   3  -2   9  34.359   3.416 
   3  -2   9  38.136   2.652 
  -4   2  -9  190.56   13.38 
  -4   2  -9  195.46   10.37 
  -4   2  -9  191.08   11.29 
   4  -2   9  176.90   11.85 
   4  -2   9  187.15   13.90 
  -5   2  -9  46.133   3.858 
  -5   2  -9  49.388   4.340 
   5  -2   9  33.234   4.903 
  -6   2  -9  28.291   3.777 
  -6   2  -9  17.159   4.862 
   6  -2   9  19.892   4.862 
   7   1  -9  152.95   11.37 
   7   1  -9  182.77   13.62 
  -7  -1   9  150.30   10.05 
   6   1  -9  34.399   4.662 
   6   1  -9  34.359   5.787 
  -6  -1   9  42.597   3.536 
  -6  -1   9  32.510   3.777 
   5   1  -9  40.507   4.260 
   5   1  -9  48.786   5.827 
  -5  -1   9  41.391   3.215 
  -5  -1   9  43.401   3.617 
   4   1  -9  48.745   4.782 
   4   1  -9  42.195   3.536 
  -4  -1   9  54.171   3.416 
   3   1  -9  93.392   5.184 
   3   1  -9  107.70    7.55 
   3   1  -9  91.785   5.425 
  -3  -1   9  95.200   4.461 
  -3  -1   9  98.415   5.586 
   2   1  -9  23.951   3.818 
   2   1  -9  24.554   2.411 
   2   1  -9  28.492   2.652 
   2   1  -9  25.197   2.130 
   2   1  -9  24.795   2.331 
  -2  -1   9  24.312   2.170 
  -2  -1   9  27.929   2.331 
   1   1  -9  485.24   26.68 
   1   1  -9  485.73   27.33 
   1   1  -9  487.70   24.31 
   1   1  -9  483.32   25.00 
   1   1  -9  487.82   20.45 
   1   1  -9  485.89   27.85 
  -1  -1   9  511.65   22.50 
  -1  -1   9  497.42   27.53 
   0   1  -9  21.660   2.170 
   0   1  -9  19.209   2.210 
   0   1  -9  21.941   1.969 
   0   1  -9  22.062   2.049 
   0   1  -9  23.991   3.697 
   0  -1   9  20.535   1.849 
   0  -1   9  24.513   2.532 
  -1   1  -9  310.64   14.75 
  -1   1  -9  296.05   14.79 
  -1   1  -9  308.91   18.20 
  -1   1  -9  328.04   14.51 
  -1   1  -9  303.52   16.19 
   1  -1   9  334.02   11.85 
   1  -1   9  311.76   15.27 
  -2   1  -9  2.0897  1.6476 
  -2   1  -9  1.4869  1.4065 
   2  -1   9  0.1607  1.4869 
   2  -1   9  0.7635  1.9691 
  -3   1  -9  79.407   5.546 
  -3   1  -9  83.546   5.425 
   3  -1   9  87.002   4.581 
   3  -1   9  78.041   4.822 
  -4   1  -9  5.6662  2.3710 
  -4   1  -9  5.6662  2.2102 
   4  -1   9  4.0588  1.8887 
   4  -1   9  10.087   3.134 
  -5   1  -9  36.730   3.536 
  -5   1  -9  36.368   4.220 
   5  -1   9  35.564   4.581 
  -6   1  -9  7.6755  3.9382 
  -6   1  -9  10.850   4.019 
   6  -1   9  4.7017  4.2597 
   7   0  -9  12.498   6.470 
   7   0  -9  8.1577  4.9027 
  -7   0   9  11.975   3.577 
   6   0  -9  16.597   5.425 
   6   0  -9  10.288   4.300 
  -6   0   9  14.668   3.094 
  -6   0   9  15.632   2.934 
   5   0  -9  55.537   6.550 
   5   0  -9  51.036   4.822 
  -5   0   9  51.920   3.858 
   4   0  -9  40.266   3.416 
   4   0  -9  43.119   5.144 
  -4   0   9  45.129   2.893 
   3   0  -9  919.37   48.38 
   3   0  -9  888.95   38.78 
   3   0  -9  915.07   44.45 
  -3   0   9  900.08   35.28 
  -3   0   9  901.45   44.93 
   2   0  -9  72.535   4.742 
   2   0  -9  77.719   3.577 
   2   0  -9  68.999   4.862 
   2   0  -9  68.919   5.907 
  -2   0   9  79.568   4.983 
  -2   0   9  74.022   3.898 
  -2   0   9  72.535   5.063 
   1   0  -9  45.249   3.094 
   1   0  -9  45.892   3.376 
   1   0  -9  42.718   2.893 
   1   0  -9  40.266   3.456 
   1   0  -9  45.089   2.652 
   1   0  -9  48.705   4.541 
  -1   0   9  34.479   3.818 
  -1   0   9  46.053   2.853 
  -1   0   9  47.098   3.014 
   0   0  -9  189.11    8.40 
   0   0  -9  215.11   10.33 
   0   0  -9  190.24    9.93 
   0   0  -9  182.16   11.17 
   0   0  -9  186.62    8.36 
   0   0   9  180.88    7.92 
   0   0   9  199.12    9.32 
   0   0   9  177.94    8.48 
   0   0   9  178.34    9.93 
  -1   0  -9  3.2551  3.0139 
  -1   0  -9  0.4420  1.1252 
  -1   0  -9  2.4915  1.0046 
  -1   0  -9  3.6971  1.7682 
  -1   0  -9  1.1252  0.9243 
   1   0   9  6.4297  2.0495 
   1   0   9 -0.3617  1.5672 
  -2   0  -9  246.26   12.18 
  -2   0  -9  251.60   13.10 
   2   0   9  235.13   13.02 
   2   0   9  244.09   10.93 
  -3   0  -9  53.286   3.898 
   3   0   9  45.852   4.541 
   3   0   9  48.062   3.376 
  -4   0  -9  89.976   6.028 
  -4   0  -9  87.565   5.907 
   4   0   9  93.754   5.385 
   4   0   9  96.687   8.399 
  -5   0  -9  -1.969   2.974 
  -5   0  -9  2.6925  2.2504 
   5   0   9  5.1036  3.2952 
  -6   0  -9  34.037   4.782 
  -6   0  -9  29.738   4.099 
   6   0   9  20.575   5.345 
   7  -1  -9  1.0850  5.2242 
   7  -1  -9  -15.51    6.71 
  -7   1   9 -0.6832  3.2149 
   6  -1  -9  28.130   4.541 
   6  -1  -9  47.218   6.430 
  -6   1   9  39.503   3.777 
  -6   1   9  37.976   3.536 
   5  -1  -9  2.4513  3.9784 
   5  -1  -9 -0.1206  2.6523 
  -5   1   9  1.8887  2.1700 
   4  -1  -9  317.19   16.88 
   4  -1  -9  327.39   15.75 
  -4   1   9  332.22   14.51 
   3  -1  -9  10.649   3.335 
   3  -1  -9  8.1175  1.5271 
   3  -1  -9  2.8130  1.7280 
  -3   1   9  8.8409  1.8485 
  -3   1   9  5.0634  1.3261 
   2  -1  -9  7.7961  1.9691 
   2  -1  -9  9.3633  3.5364 
   2  -1  -9  6.3896  1.3663 
   2  -1  -9  7.0727  1.5271 
  -2   1   9  3.8578  2.1299 
  -2   1   9  9.4035  1.4869 
  -2   1   9  11.413   1.768 
   1  -1  -9  18.244   1.768 
   1  -1  -9  21.781   2.411 
   1  -1  -9  28.050   4.059 
   1  -1  -9  15.914   2.974 
   1  -1  -9  22.062   1.768 
  -1   1   9  20.816   2.492 
  -1   1   9  26.040   2.090 
  -1   1   9  25.156   2.250 
   0  -1  -9  57.466   3.416 
   0  -1  -9  61.806   5.023 
   0  -1  -9  52.925   3.335 
   0  -1  -9  59.837   3.697 
   0  -1  -9  56.823   3.496 
   0   1   9  53.568   4.019 
   0   1   9  58.631   3.697 
   0   1   9  60.801   3.536 
   0   1   9  52.402   3.858 
  -1  -1  -9  179.27   10.41 
  -1  -1  -9  190.32    8.88 
  -1  -1  -9  192.73   10.01 
  -1  -1  -9  193.90   11.17 
  -1  -1  -9  186.42    9.97 
   1   1   9  191.85    9.81 
   1   1   9  196.03    7.68 
  -2  -1  -9  357.73   19.29 
  -2  -1  -9  354.60   13.94 
  -2  -1  -9  381.52   21.10 
  -2  -1  -9  370.75   15.11 
   2   1   9  338.49   20.21 
   2   1   9  339.09   16.24 
  -3  -1  -9  36.288   3.617 
   3   1   9  38.056   2.612 
   3   1   9  36.931   3.697 
  -4  -1  -9  57.305   4.059 
  -4  -1  -9  45.691   4.019 
   4   1   9  44.928   3.697 
   4   1   9  44.968   5.666 
   4   1   9  43.923   3.456 
  -5  -1  -9  57.586   5.023 
  -5  -1  -9  53.889   5.063 
   5   1   9  51.920   5.948 
  -6  -1  -9  14.226   4.782 
  -6  -1  -9  11.815   3.617 
   6   1   9  10.127   5.224 
   7  -2  -9  25.598   6.872 
  -7   2   9  17.521   4.461 
  -7   2   9  23.509   6.068 
   6  -2  -9  30.300   6.148 
   6  -2  -9  31.104   4.260 
  -6   2   9  35.163   3.376 
  -6   2   9  26.884   3.094 
   5  -2  -9  79.970   5.264 
   5  -2  -9  78.724   7.274 
  -5   2   9  82.260   4.742 
  -5   2   9  83.627   4.983 
   4  -2  -9  19.530   4.380 
   4  -2  -9  9.3633  1.9289 
  -4   2   9  14.788   2.210 
   3  -2  -9  327.68   18.45 
   3  -2  -9  322.33   15.87 
   3  -2  -9  320.84   16.56 
  -3   2   9  325.55   14.95 
  -3   2   9  336.40   14.27 
   2  -2  -9  137.32    7.92 
   2  -2  -9  142.98    8.88 
   2  -2  -9  134.90    8.24 
   2  -2  -9  134.14    6.51 
  -2   2   9  135.47    7.55 
  -2   2   9  147.64    6.87 
  -2   2   9  141.66    7.31 
   1  -2  -9  410.38   20.70 
   1  -2  -9  368.62   22.54 
   1  -2  -9  383.01   19.65 
   1  -2  -9  383.82   18.93 
  -1   2   9  393.06   18.24 
  -1   2   9  412.55   18.61 
  -1   2   9  366.29   21.14 
   0  -2  -9  0.4822  1.2859 
   0  -2  -9  0.2411  1.0448 
   0  -2  -9  1.6074  2.9336 
   0  -2  -9  -1.286   1.969 
   0   2   9  0.5224  1.6878 
   0   2   9  1.0448  1.6476 
   0   2   9  0.2009  2.0495 
   0   2   9  2.5719  1.8485 
  -1  -2  -9  49.107   3.295 
  -1  -2  -9  59.355   2.813 
  -1  -2  -9  55.256   4.702 
  -1  -2  -9  58.109   3.938 
   1   2   9  45.651   3.978 
   1   2   9  54.331   3.376 
   1   2   9  51.358   4.220 
   1   2   9  56.019   3.617 
  -2  -2  -9  95.441   4.420 
  -2  -2  -9  103.80    6.79 
   2   2   9  101.03    5.99 
   2   2   9  106.61    6.59 
  -3  -2  -9  178.95   10.05 
   3   2   9  177.26   13.38 
   3   2   9  181.88   11.01 
   3   2   9  167.09   11.21 
  -4  -2  -9  21.741   3.376 
   4   2   9  19.771   4.139 
  -5  -2  -9  42.597   4.461 
  -5  -2  -9  49.750   4.501 
   5   2   9  38.820   6.309 
   7  -3  -9  64.860   9.162 
  -7   3   9  52.804   5.264 
  -7   3   9  51.277   5.345 
   6  -3  -9  27.728   5.546 
  -6   3   9  24.594   3.777 
   5  -3  -9  86.520   7.193 
  -5   3   9  92.910   5.104 
  -5   3   9  93.432   4.822 
   4  -3  -9  44.285   3.014 
   4  -3  -9  42.557   3.094 
   4  -3  -9  48.705   5.104 
  -4   3   9  49.268   3.456 
  -4   3   9  42.838   3.376 
   3  -3  -9  30.823   2.130 
   3  -3  -9  34.399   2.371 
   3  -3  -9  34.158   4.179 
  -3   3   9  34.118   2.652 
  -3   3   9  38.619   2.934 
  -3   3   9  37.775   2.572 
   2  -3  -9  256.79   12.18 
   2  -3  -9  258.23   11.29 
   2  -3  -9  269.37   13.54 
   2  -3  -9  284.07   15.75 
  -2   3   9  285.40   11.81 
  -2   3   9  273.71   13.58 
  -2   3   9  274.71   12.78 
  -2   3   9  275.68   13.82 
   1  -3  -9  70.767   3.657 
   1  -3  -9  79.447   4.662 
   1  -3  -9  90.860   6.229 
  -1   3   9  72.294   4.903 
  -1   3   9  81.055   5.144 
  -1   3   9  88.409   4.943 
  -1   3   9  81.899   5.063 
   0  -3  -9  146.48    6.79 
   0  -3  -9  161.15   10.21 
   0  -3  -9  162.15    9.08 
   0   3   9  130.93    6.95 
   0   3   9  144.23    8.40 
   0   3   9  157.05    7.64 
   0   3   9  150.58    7.43 
   0   3   9  133.78    6.39 
  -1  -3  -9  -3.094   2.090 
  -1  -3  -9  -2.250   1.487 
  -1  -3  -9  -3.697   2.009 
   1   3   9  0.6832  1.6074 
   1   3   9  3.1747  2.6925 
   1   3   9  3.3354  1.5271 
   1   3   9 -0.0402  2.2906 
  -2  -3  -9  71.370   5.104 
  -2  -3  -9  64.900   3.737 
   2   3   9  72.134   4.420 
   2   3   9  72.093   4.662 
   2   3   9  67.271   5.586 
  -3  -3  -9  49.268   4.019 
   3   3   9  48.625   3.617 
   3   3   9  46.415   4.139 
   3   3   9  50.674   5.345 
  -4  -3  -9  68.035   5.626 
   4   3   9  66.990   6.229 
  -5  -3  -9  8.4390  3.6971 
  -5  -3  -9  3.9784  3.9784 
   5   3   9  4.6616  4.8223 
   7  -4  -9  -6.470   5.867 
  -7   4   9  -6.108   3.456 
  -7   4   9  7.3942  4.0588 
   6  -4  -9  78.081   7.957 
  -6   4   9  81.055   5.546 
  -6   4   9  72.736   5.063 
   5  -4  -9  57.586   6.470 
  -5   4   9  65.061   4.621 
  -5   4   9  57.627   4.461 
   4  -4  -9  116.94    9.00 
  -4   4   9  118.75    6.71 
  -4   4   9  117.70    6.43 
   3  -4  -9 -0.8037  3.4158 
  -3   4   9 -0.8841  2.1299 
  -3   4   9  2.3710  1.7280 
  -3   4   9  1.0448  1.9691 
   2  -4  -9  134.70    9.93 
  -2   4   9  131.41    6.79 
  -2   4   9  143.66    7.72 
  -2   4   9  139.36    8.00 
   1  -4  -9  115.61    7.76 
   1  -4  -9  125.10    7.80 
  -1   4   9  116.54    6.55 
  -1   4   9  121.88    6.67 
  -1   4   9  96.968   4.983 
  -1   4   9  115.90    6.67 
   0  -4  -9  52.443   3.617 
   0  -4  -9  53.729   4.139 
   0  -4  -9  54.613   4.782 
   0   4   9  45.370   3.215 
   0   4   9  44.566   3.255 
   0   4   9  52.844   3.376 
   0   4   9  50.112   4.019 
   0   4   9  48.585   4.019 
  -1  -4  -9  86.078   5.948 
  -1  -4  -9  76.594   5.586 
   1   4   9  85.234   4.541 
   1   4   9  87.244   6.349 
   1   4   9  81.376   5.546 
  -2  -4  -9  53.528   4.139 
  -2  -4  -9  50.956   3.617 
   2   4   9  59.676   3.978 
   2   4   9  60.198   3.858 
   2   4   9  58.028   4.983 
  -3  -4  -9  122.08    7.43 
   3   4   9  99.581   7.595 
   3   4   9  114.53    8.44 
   3   4   9  108.54    6.71 
  -4  -4  -9  9.2829  3.7775 
   4   4   9  8.5596  4.0588 
  -5  -4  -9  29.938   5.345 
  -5  -4  -9  24.152   4.501 
   5   4   9  26.322   6.590 
   7  -5  -9  25.317   6.671 
  -7   5   9  30.300   4.380 
  -7   5   9  25.920   4.662 
   6  -5  -9  -1.527   5.264 
  -6   5   9  -5.264   3.295 
  -6   5   9  1.2056  2.9738 
   5  -5  -9  88.128   8.761 
  -5   5   9  90.338   5.907 
  -5   5   9  93.472   5.425 
   4  -5  -9  22.142   5.023 
  -4   5   9  23.790   3.175 
  -4   5   9  22.705   3.134 
   3  -5  -9  105.93    7.68 
  -3   5   9  108.74    6.35 
  -3   5   9  108.86    6.59 
  -3   5   9  111.44    6.15 
   2  -5  -9  7.9166  3.5765 
   2  -5  -9  6.0681  2.2906 
  -2   5   9  2.0897  2.0897 
  -2   5   9  8.8409  2.2504 
  -2   5   9  4.9027  1.9289 
   1  -5  -9  116.06    7.27 
   1  -5  -9  112.80    8.72 
  -1   5   9  118.35    7.60 
  -1   5   9  113.40    7.27 
  -1   5   9  121.40    6.91 
   0  -5  -9  3.3756  1.9289 
   0  -5  -9  3.7775  2.6523 
   0  -5  -9  2.8934  3.0943 
   0   5   9  3.6971  2.1700 
   0   5   9  1.4467  2.0495 
  -1  -5  -9  94.196   6.992 
  -1  -5  -9  89.253   6.631 
   1   5   9  95.401   6.229 
   1   5   9  100.50    6.19 
   1   5   9  100.46    7.23 
  -2  -5  -9  9.1222  2.7728 
  -2  -5  -9  8.1175  2.1700 
   2   5   9  11.815   2.492 
   2   5   9  14.065   3.376 
   2   5   9  14.266   2.170 
  -3  -5  -9  46.656   5.063 
   3   5   9  31.345   3.376 
   3   5   9  45.089   5.907 
   3   5   9  40.105   3.657 
  -4  -5  -9  7.5951  3.3756 
   4   5   9  9.4437  5.1438 
   7  -6  -9  16.918   6.912 
  -7   6   9  12.900   4.621 
  -7   6   9  5.7064  4.6616 
   6  -6  -9  19.048   6.349 
  -6   6   9  12.136   3.938 
  -6   6   9  12.297   4.019 
   5  -6  -9  4.6616  5.1036 
  -5   6   9  7.7157  2.9336 
  -5   6   9  1.2458  3.1345 
   4  -6  -9  234.97   15.19 
  -4   6   9  236.21   11.98 
  -4   6   9  219.05   12.66 
   3  -6  -9  19.892   4.862 
   3  -6  -9  19.169   3.215 
  -3   6   9  23.147   3.175 
  -3   6   9  16.838   2.893 
   2  -6  -9  209.61   12.42 
   2  -6  -9  200.77   14.63 
  -2   6   9  208.89   12.62 
  -2   6   9  194.86   11.94 
  -2   6   9  196.31   12.62 
   1  -6  -9  5.9073  2.4513 
   1  -6  -9  3.2551  3.3354 
  -1   6   9  4.9027  2.3710 
  -1   6   9  6.4297  1.8887 
  -1   6   9  4.1391  2.3308 
   0  -6  -9  120.60    9.40 
   0  -6  -9  142.38    8.80 
   0  -6  -9  121.76    8.72 
   0   6   9  121.88    8.44 
   0   6   9  132.21    8.64 
   0   6   9  133.14    8.96 
  -1  -6  -9  4.2999  3.2149 
  -1  -6  -9  3.4962  2.5719 
   1   6   9  6.0681  2.2102 
   1   6   9  2.3308  2.2504 
   1   6   9  7.0325  3.2551 
  -2  -6  -9  125.02    8.08 
  -2  -6  -9  129.40    9.48 
   2   6   9  137.27    9.12 
   2   6   9  121.72    9.00 
   2   6   9  136.83   12.38 
  -3  -6  -9  3.9784  3.8177 
   3   6   9  4.8223  4.1793 
  -4  -6  -9  44.486   5.948 
   4   6   9  60.239   8.439 
   6  -7  -9  29.577   6.590 
  -6   7   9  19.611   4.260 
  -6   7   9  18.968   4.179 
   5  -7  -9  2.4513  5.5858 
   5  -7  -9  12.819   3.295 
  -5   7   9  10.087   3.577 
  -5   7   9  9.8455  3.6971 
   4  -7  -9  32.470   5.546 
   4  -7  -9  20.696   3.697 
  -4   7   9  29.175   3.496 
  -4   7   9  22.504   3.295 
   3  -7  -9  41.070   4.662 
   3  -7  -9  36.007   5.787 
  -3   7   9  33.676   3.496 
  -3   7   9  37.333   3.818 
   2  -7  -9  57.627   4.983 
   2  -7  -9  52.041   5.546 
  -2   7   9  54.733   4.742 
  -2   7   9  55.738   4.300 
  -2   7   9  59.716   5.626 
   1  -7  -9  31.948   3.577 
   1  -7  -9  38.820   5.305 
  -1   7   9  39.583   4.662 
  -1   7   9  37.534   3.737 
  -1   7   9  39.422   3.818 
   0  -7  -9  15.472   3.858 
   0  -7  -9  12.699   3.175 
   0  -7  -9  13.663   3.335 
   0   7   9  15.110   3.456 
   0   7   9  11.654   2.652 
   0   7   9  19.892   3.175 
  -1  -7  -9  21.941   3.496 
  -1  -7  -9  27.929   3.938 
   1   7   9  25.076   3.255 
   1   7   9  27.367   3.577 
   1   7   9  25.518   4.461 
  -2  -7  -9  29.376   4.822 
   2   7   9  27.849   3.898 
   2   7   9  36.489   5.706 
   2   7   9  35.122   3.938 
  -3  -7  -9  39.583   4.943 
   3   7   9  31.064   6.430 
   6  -8  -9 -0.2009  5.9073 
   6  -8  -9  0.4019  4.2195 
  -6   8   9  0.2411  3.4560 
  -6   8   9  -3.818   4.260 
   5  -8  -9  51.920   5.425 
   5  -8  -9  51.317   7.555 
  -5   8   9  43.521   4.903 
  -5   8   9  53.487   5.224 
   4  -8  -9  -7.515   5.224 
   4  -8  -9  0.3617  3.7373 
  -4   8   9  -3.898   3.215 
  -4   8   9  -1.085   2.532 
   3  -8  -9  136.87    9.68 
   3  -8  -9  133.86   11.05 
  -3   8   9  113.04    8.84 
  -3   8   9  137.03    8.04 
   2  -8  -9  12.699   4.702 
   2  -8  -9  4.3803  3.6167 
  -2   8   9  11.131   3.014 
  -2   8   9  4.7419  3.0541 
  -2   8   9  6.0681  2.5317 
   1  -8  -9  109.83    9.08 
   1  -8  -9  121.72    8.36 
   1  -8  -9  108.78    9.08 
  -1   8   9  125.94    7.60 
  -1   8   9  127.43   10.09 
  -1   8   9  113.16    7.27 
   0  -8  -9  17.481   3.858 
   0  -8  -9  15.954   3.777 
   0   8   9  18.767   4.300 
   0   8   9  18.124   3.255 
   0   8   9  16.235   3.175 
  -1  -8  -9  158.94   10.17 
  -1  -8  -9  147.76   10.89 
   1   8   9  158.94   10.05 
   1   8   9  158.94    9.56 
   1   8   9  170.19   17.04 
  -2  -8  -9  -4.943   4.019 
   2   8   9  0.7233  3.0139 
   2   8   9  0.8439  3.2149 
   2   8   9 -0.5224  5.1438 
   5  -9  -9  6.8718  4.1793 
   5  -9  -9  7.1933  6.1083 
  -5   9   9  1.3663  4.7017 
  -5   9   9  3.5765  4.0186 
   4  -9  -9  22.464   6.711 
   4  -9  -9  21.419   5.345 
  -4   9   9  12.779   4.380 
  -4   9   9  20.897   3.978 
   3  -9  -9  2.7326  4.1793 
  -3   9   9  2.0495  3.6167 
  -3   9   9  1.0046  3.6167 
   2  -9  -9  45.289   5.345 
  -2   9   9  41.432   5.264 
  -2   9   9  46.174   4.822 
   1  -9  -9  7.5951  4.0186 
   1  -9  -9  4.6214  4.3401 
  -1   9   9  4.5812  4.4204 
  -1   9   9  4.0186  3.4560 
  -1   9   9  8.9614  3.2149 
   0  -9  -9  43.401   5.425 
   0  -9  -9  47.500   5.546 
   0   9   9  50.313   4.782 
   0   9   9  46.977   5.063 
   0   9   9  43.682   6.229 
  -1  -9  -9  11.091   4.139 
  -1  -9  -9  8.2783  3.9382 
   1   9   9  7.6755  3.4560 
   1   9   9  8.1979  3.9382 
   1   9   9  6.2690  5.3045 
   4 -10  -9  25.598   4.782 
  -4  10   9  27.206   5.023 
  -4  10   9  26.724   4.943 
   3 -10  -9  9.0820  4.9830 
  -3  10   9  3.8980  3.7373 
  -3  10   9  13.342   4.220 
   2 -10  -9  22.745   5.586 
  -2  10   9  34.439   4.822 
  -2  10   9  19.329   3.577 
   1 -10  -9  12.739   4.702 
   1 -10  -9  5.8671  4.5410 
  -1  10   9  9.8455  4.5410 
  -1  10   9  12.498   4.420 
   0 -10  -9 -0.6832  3.9784 
   0 -10  -9  4.7821  5.0232 
   0  10   9  0.4822  5.2643 
   0  10   9  3.2952  3.9382 
   0  10   9  0.2009  3.9784 
  -1  11 -10  15.833   5.305 
  -1  11 -10  20.656   5.747 
   1 -11  10  25.197   5.385 
  -2  11 -10  29.738   6.470 
  -2  11 -10  37.574   5.546 
   2 -11  10  42.195   6.470 
   1  10 -10  3.7775  5.0634 
   1  10 -10  6.5905  4.5410 
  -1 -10  10  12.779   4.300 
  -1 -10  10  1.9289  4.0990 
   0  10 -10  77.679   6.872 
   0  10 -10  79.488   7.475 
   0 -10  10  67.432   7.193 
   0 -10  10  68.597   6.430 
  -1  10 -10  12.176   4.380 
  -1  10 -10  2.7326  3.8578 
   1 -10  10  -3.376   4.581 
  -2  10 -10  82.944   7.033 
  -2  10 -10  89.856   8.359 
   2 -10  10  96.888   9.966 
  -3  10 -10  -4.300   3.938 
  -3  10 -10  5.9877  4.4204 
   3 -10  10 -0.4822  4.0186 
   4 -10  10  51.358   6.711 
   3   9 -10  39.864   5.867 
   3   9 -10  44.285   6.269 
  -3  -9  10  36.408   7.595 
  -3  -9  10  36.529   5.827 
   2   9 -10  18.526   4.702 
   2   9 -10  24.031   4.903 
  -2  -9  10  15.472   4.220 
  -2  -9  10  11.975   3.697 
   1   9 -10  132.25   10.05 
   1   9 -10  143.95   11.85 
  -1  -9  10  145.23   10.41 
  -1  -9  10  148.77   10.81 
   0   9 -10  15.230   3.818 
   0   9 -10  11.815   3.858 
   0  -9  10  16.476   4.179 
   0  -9  10  9.5642  3.1345 
  -1   9 -10  165.89   11.37 
  -1   9 -10  163.36   11.21 
   1  -9  10  174.77   13.06 
  -2   9 -10  1.2056  3.8980 
  -2   9 -10 -0.2009  3.4158 
   2  -9  10  3.3756  4.0186 
  -3   9 -10  76.675   6.108 
  -3   9 -10  77.478   7.515 
   3  -9  10  91.423   9.765 
  -4   9 -10  9.5240  3.6971 
   4  -9  10  0.0402  4.3803 
   3   8 -10  56.783   5.827 
   3   8 -10  56.622   6.590 
  -3  -8  10  50.634   6.309 
  -3  -8  10  68.959   7.515 
   2   8 -10  21.339   5.747 
   2   8 -10  21.620   4.903 
   2   8 -10  16.476   4.943 
  -2  -8  10  16.557   3.777 
  -2  -8  10  20.414   3.134 
   1   8 -10  102.80    7.88 
   1   8 -10  103.84    7.07 
   1   8 -10  96.406   8.399 
  -1  -8  10  100.02    7.88 
  -1  -8  10  109.47    7.80 
   0   8 -10  69.763   6.671 
   0   8 -10  70.968   5.345 
   0  -8  10  66.990   5.385 
   0  -8  10  74.344   6.349 
  -1   8 -10  27.166   4.380 
  -1   8 -10  18.928   3.496 
   1  -8  10  24.112   3.777 
   1  -8  10  24.112   2.974 
  -2   8 -10  39.663   4.501 
  -2   8 -10  34.158   4.220 
   2  -8  10  32.591   4.662 
  -3   8 -10  2.8532  3.3354 
  -3   8 -10  2.3710  3.5364 
   3  -8  10  5.9073  3.3756 
  -4   8 -10  55.657   5.465 
   4  -8  10  51.518   6.028 
  -5   8 -10  6.1886  4.0186 
   5  -8  10  -2.853   5.144 
   4   7 -10  74.464   7.033 
   4   7 -10  90.740  10.087 
   4   7 -10  83.265   7.033 
  -4  -7  10  78.644   6.832 
  -4  -7  10  73.821   6.872 
   3   7 -10  -5.063   6.108 
   3   7 -10  0.8841  3.8177 
   3   7 -10  3.8578  3.4962 
  -3  -7  10  -1.969   3.376 
  -3  -7  10  0.2813  3.7373 
  -3  -7  10  0.1607  3.4158 
   2   7 -10  157.29    9.36 
   2   7 -10  165.93   10.53 
   2   7 -10  183.93   12.46 
  -2  -7  10  178.30   11.05 
  -2  -7  10  176.50   10.09 
   1   7 -10  23.991   4.662 
   1   7 -10  22.866   3.858 
   1   7 -10  17.923   3.376 
  -1  -7  10  21.660   3.536 
  -1  -7  10  18.003   2.853 
   0   7 -10  234.40   14.07 
   0   7 -10  229.86   17.04 
   0   7 -10  225.36   13.02 
   0  -7  10  210.41   14.27 
   0  -7  10  209.21   13.54 
  -1   7 -10  109.75    7.60 
  -1   7 -10  109.79    7.35 
   1  -7  10  105.21    7.55 
   1  -7  10  91.342   6.872 
  -2   7 -10  108.78    6.71 
  -2   7 -10  94.758   7.997 
   2  -7  10  124.42    8.36 
  -3   7 -10  21.821   3.416 
  -3   7 -10  17.200   3.335 
   3  -7  10  20.736   4.300 
  -4   7 -10  0.6430  2.9336 
   4  -7  10  6.4699  4.3803 
  -5   7 -10  45.089   5.023 
   5  -7  10  36.207   6.028 
   5   6 -10  12.337   6.108 
   5   6 -10  22.785   7.716 
  -5  -6  10  15.632   4.461 
  -5  -6  10  7.7559  4.4204 
   4   6 -10  7.8362  4.3401 
   4   6 -10  9.8054  5.2643 
   4   6 -10  14.065   4.420 
  -4  -6  10  8.2783  3.3354 
  -4  -6  10  3.1747  3.6167 
   3   6 -10  124.25    7.76 
   3   6 -10  124.34    7.96 
   3   6 -10  119.87    9.60 
  -3  -6  10  108.10    6.83 
  -3  -6  10  119.59    6.83 
  -3  -6  10  120.56    7.84 
   2   6 -10  8.1979  3.8980 
   2   6 -10  10.046   3.134 
   2   6 -10  4.9830  3.2551 
  -2  -6  10  6.4297  2.7728 
  -2  -6  10  13.261   2.492 
  -2  -6  10  9.8857  2.0495 
   1   6 -10  103.52    7.51 
   1   6 -10  118.91    8.16 
   1   6 -10  114.69    6.63 
  -1  -6  10  103.36    6.91 
  -1  -6  10  116.34    6.99 
   0   6 -10  16.396   3.054 
   0   6 -10  14.427   2.652 
   0   6 -10  12.900   3.818 
   0  -6  10  16.155   2.170 
   0  -6  10  18.686   3.094 
  -1   6 -10  222.79   15.51 
  -1   6 -10  236.41   10.73 
   1  -6  10  220.38   13.90 
   1  -6  10  217.97   13.06 
  -2   6 -10  1.0448  3.0541 
  -2   6 -10  -1.005   2.250 
   2  -6  10  1.0046  2.7326 
  -3   6 -10  98.737   7.475 
  -3   6 -10  87.686   6.832 
   3  -6  10  103.52    8.24 
  -4   6 -10  13.904   2.934 
   4  -6  10  14.025   4.300 
  -5   6 -10  69.964   5.546 
   5  -6  10  67.030   5.224 
   5  -6  10  69.923   8.198 
   6  -6  10  4.5410  5.9073 
   5   5 -10  133.86   11.21 
   5   5 -10  115.86    8.48 
  -5  -5  10  108.70    8.96 
  -5  -5  10  112.96    7.92 
   4   5 -10  99.219   6.550 
   4   5 -10  102.31    8.96 
   4   5 -10  97.531   6.992 
  -4  -5  10  102.19    7.11 
  -4  -5  10  102.92    6.15 
   3   5 -10  107.10    7.43 
   3   5 -10  116.62    8.76 
   3   5 -10  101.27    5.83 
  -3  -5  10  117.02    6.11 
  -3  -5  10  111.07    6.63 
  -3  -5  10  96.727   7.434 
   2   5 -10  241.96   12.86 
   2   5 -10  255.62   14.99 
   2   5 -10  248.03   13.62 
  -2  -5  10  250.32   13.18 
  -2  -5  10  224.36   13.42 
  -2  -5  10  257.23   12.14 
   1   5 -10  269.81   16.76 
   1   5 -10  267.24   14.31 
   1   5 -10  294.64   18.32 
  -1  -5  10  262.74   13.30 
  -1  -5  10  255.38   14.31 
  -1  -5  10  257.91   17.36 
   0   5 -10  137.84    9.04 
   0   5 -10  136.59    9.44 
   0   5 -10  146.12    8.24 
   0  -5  10  132.93    7.31 
   0  -5  10  144.99    9.24 
  -1   5 -10  5.3849  2.3308 
  -1   5 -10  3.2952  2.6121 
   1  -5  10  11.493   2.773 
   1  -5  10  7.8362  1.4065 
  -2   5 -10  110.19    6.67 
  -2   5 -10  109.23    6.31 
   2  -5  10  106.13    7.31 
  -3   5 -10  -1.286   2.291 
   3  -5  10 -0.9645  3.0139 
   3  -5  10  0.3215  2.0897 
  -4   5 -10  182.44   10.45 
   4  -5  10  181.68   13.54 
   4  -5  10  167.70   10.45 
  -5   5 -10  -1.929   3.134 
   5  -5  10  -1.648   2.692 
   5  -5  10  1.8887  4.0186 
   6  -5  10  22.866   6.028 
   6   4 -10  58.229   7.153 
   6   4 -10  55.979   8.439 
   5   4 -10  12.257   5.465 
   5   4 -10  12.980   4.420 
  -5  -4  10  13.302   3.054 
   4   4 -10  93.593   7.595 
   4   4 -10  77.559   5.827 
   4   4 -10  85.917   7.153 
  -4  -4  10  87.726   6.269 
  -4  -4  10  84.189   6.148 
   3   4 -10  52.161   6.631 
   3   4 -10  48.183   4.220 
   3   4 -10  54.371   4.822 
  -3  -4  10  66.829   4.380 
  -3  -4  10  55.215   3.818 
  -3  -4  10  62.047   4.300 
   2   4 -10  365.01   18.28 
   2   4 -10  398.16   24.43 
   2   4 -10  364.41   20.21 
  -2  -4  10  394.99   17.92 
  -2  -4  10  377.87   19.65 
  -2  -4  10  363.40   20.90 
   1   4 -10  144.79   11.13 
   1   4 -10  144.75    6.31 
   1   4 -10  154.03   10.57 
   1   4 -10  161.47    7.47 
  -1  -4  10  157.09    7.43 
  -1  -4  10  157.17    8.64 
  -1  -4  10  142.22    7.64 
   0   4 -10  13.703   2.612 
   0   4 -10  13.663   1.085 
   0   4 -10  16.034   3.054 
   0   4 -10  16.396   2.652 
   0  -4  10  17.601   2.049 
   0  -4  10  16.315   2.331 
   0  -4  10  15.391   1.688 
  -1   4 -10  42.075   2.572 
  -1   4 -10  37.855   5.224 
  -1   4 -10  50.313   4.019 
  -1   4 -10  44.968   2.652 
  -1   4 -10  44.405   3.496 
   1  -4  10  41.673   3.456 
   1  -4  10  46.214   3.777 
  -2   4 -10  124.38    6.59 
  -2   4 -10  124.74    7.03 
  -2   4 -10  131.33    7.39 
  -2   4 -10  117.30    7.11 
   2  -4  10  120.68    7.11 
   2  -4  10  130.40    6.99 
  -3   4 -10  10.850   2.291 
  -3   4 -10  7.4344  1.7280 
  -3   4 -10  7.5951  1.9289 
   3  -4  10  8.1979  2.2102 
   3  -4  10  6.5503  3.0943 
  -4   4 -10  126.63    6.63 
  -4   4 -10  112.68    6.95 
  -4   4 -10  119.35    8.60 
   4  -4  10  116.98    7.68 
   4  -4  10  107.66    8.52 
  -5   4 -10  109.27    8.16 
  -5   4 -10  118.71    7.43 
  -5   4 -10  91.383   6.189 
   5  -4  10  114.45    8.40 
   6  -4  10  8.1979  5.1840 
   6   3 -10  17.601   5.505 
   6   3 -10  10.328   5.907 
  -6  -3  10  21.540   6.349 
   5   3 -10  174.57   13.46 
   5   3 -10  156.60    9.85 
  -5  -3  10  167.70    9.16 
   4   3 -10  10.689   2.853 
   4   3 -10  8.4792  3.4560 
   4   3 -10  10.167   4.461 
  -4  -3  10  14.949   2.853 
   3   3 -10  138.16    7.11 
   3   3 -10  142.82    9.89 
   3   3 -10  138.32    9.00 
  -3  -3  10  147.56    7.72 
  -3  -3  10  151.10    8.12 
   2   3 -10  15.713   4.220 
   2   3 -10  17.843   2.692 
   2   3 -10  18.807   2.692 
  -2  -3  10  23.469   2.210 
  -2  -3  10  22.183   2.532 
   1   3 -10  420.10   19.37 
   1   3 -10  411.66   22.30 
   1   3 -10  396.31   22.02 
   1   3 -10  398.32   18.16 
   1   3 -10  370.67   19.73 
  -1  -3  10  420.55   23.31 
  -1  -3  10  401.46   19.45 
   0   3 -10  1.4467  1.1654 
   0   3 -10  2.7326  3.2149 
   0   3 -10  2.9336  2.0093 
   0   3 -10  3.2952  1.4065 
   0   3 -10  0.4019  1.7280 
   0   3 -10  -1.487   2.331 
   0  -3  10  2.0495  1.3261 
   0  -3  10  0.6028  1.8485 
  -1   3 -10  166.61    8.12 
  -1   3 -10  170.39   10.41 
  -1   3 -10  144.99    8.84 
  -1   3 -10  171.71   11.53 
  -1   3 -10  148.21    9.89 
   1  -3  10  160.86    8.56 
   1  -3  10  169.34    9.12 
  -2   3 -10  1.5672  1.4467 
  -2   3 -10  0.7635  1.2458 
  -2   3 -10 -0.4019  1.8485 
  -2   3 -10 -0.0804  1.8485 
   2  -3  10  2.5317  2.4112 
   2  -3  10  2.0495  1.5271 
  -3   3 -10  38.056   3.054 
  -3   3 -10  40.467   3.577 
  -3   3 -10  35.082   3.215 
   3  -3  10  44.325   4.179 
   3  -3  10  41.592   3.134 
  -4   3 -10  458.84   27.49 
  -4   3 -10  474.03   27.00 
  -4   3 -10  460.53   22.42 
   4  -3  10  477.65   30.54 
   4  -3  10  521.81   26.44 
  -5   3 -10  86.520   5.666 
  -5   3 -10  76.835   5.666 
   5  -3  10  76.916   7.957 
  -6   3 -10  3.1747  3.8578 
  -6   3 -10  3.2149  3.4962 
   6  -3  10  11.091   5.586 
   6   2 -10  59.998   6.470 
   6   2 -10  68.075   8.479 
  -6  -2  10  73.058   5.465 
  -6  -2  10  71.089   5.827 
   5   2 -10  31.224   4.822 
   5   2 -10  22.866   5.546 
  -5  -2  10  28.572   3.456 
   4   2 -10  84.873   6.028 
   4   2 -10  97.089   6.028 
   4   2 -10  105.57    8.04 
  -4  -2  10  96.406   5.345 
   3   2 -10  56.300   6.711 
   3   2 -10  60.078   4.782 
   3   2 -10  50.393   3.617 
  -3  -2  10  56.662   3.898 
  -3  -2  10  62.168   3.577 
   2   2 -10  157.53    7.15 
   2   2 -10  159.26   10.21 
   2   2 -10  171.71   10.17 
   2   2 -10  157.09    8.32 
  -2  -2  10  162.59    9.36 
  -2  -2  10  158.81    8.12 
   1   2 -10  22.263   2.371 
   1   2 -10  27.929   3.938 
   1   2 -10  28.331   2.572 
   1   2 -10  29.175   2.492 
  -1  -2  10  27.527   2.612 
  -1  -2  10  26.322   2.451 
   0   2 -10  233.32   14.99 
   0   2 -10  227.97   10.97 
   0   2 -10  242.92   11.13 
   0   2 -10  206.19   12.18 
   0   2 -10  223.31   12.86 
   0   2 -10  237.06   12.22 
   0  -2  10  239.83   13.26 
   0  -2  10  236.17   10.13 
  -1   2 -10  11.774   3.617 
  -1   2 -10  6.2288  1.4467 
  -1   2 -10  9.7652  1.4467 
  -1   2 -10  8.7605  1.7682 
  -1   2 -10  11.654   2.250 
   1  -2  10  7.4746  1.8084 
   1  -2  10  8.2783  2.2906 
  -2   2 -10  255.50   16.24 
  -2   2 -10  259.68   15.07 
   2  -2  10  245.09   13.50 
   2  -2  10  265.67   14.59 
  -3   2 -10  4.5812  2.2906 
  -3   2 -10  0.7635  1.6878 
  -3   2 -10  1.5271  1.9289 
   3  -2  10  4.8625  1.9691 
   3  -2  10 -0.1206  2.1299 
  -4   2 -10  6.5905  2.7326 
  -4   2 -10  4.2195  2.3308 
  -4   2 -10  7.0727  2.6121 
   4  -2  10  7.5951  2.3308 
   4  -2  10  10.006   3.536 
  -5   2 -10  5.0232  3.1747 
  -5   2 -10  1.0046  3.0139 
   5  -2  10  0.6832  3.3756 
  -6   2 -10  30.059   4.420 
  -6   2 -10  26.241   4.943 
   6  -2  10  25.759   6.510 
   6   1 -10  49.710   6.068 
   6   1 -10  62.368   8.921 
  -6  -1  10  52.885   4.702 
   5   1 -10  82.662   7.595 
   5   1 -10  82.301   6.470 
  -5  -1  10  92.829   5.666 
   4   1 -10  44.767   5.706 
   4   1 -10  42.597   4.059 
   4   1 -10  50.594   3.818 
  -4  -1  10  49.308   3.657 
   3   1 -10  344.55   15.83 
   3   1 -10  336.07   17.56 
   3   1 -10  359.10   19.45 
  -3  -1  10  336.56   21.02 
  -3  -1  10  332.50   17.04 
   2   1 -10  251.56   13.06 
   2   1 -10  224.64   12.34 
   2   1 -10  231.59   12.70 
  -2  -1  10  236.29   10.97 
  -2  -1  10  228.50   14.79 
   1   1 -10  37.413   2.652 
   1   1 -10  42.959   3.938 
   1   1 -10  43.642   3.014 
   1   1 -10  42.878   4.782 
  -1  -1  10  39.503   3.134 
  -1  -1  10  37.092   2.813 
   0   1 -10  38.297   3.054 
   0   1 -10  42.919   3.215 
   0   1 -10  38.699   3.858 
   0   1 -10  38.056   3.215 
   0   1 -10  43.119   2.934 
   0  -1  10  41.914   2.974 
   0  -1  10  46.937   3.376 
  -1   1 -10  427.02   19.37 
  -1   1 -10  478.49   23.75 
  -1   1 -10  419.66   22.62 
  -1   1 -10  448.39   21.94 
  -1   1 -10  423.60   25.28 
   1  -1  10  416.65   19.05 
   1  -1  10  478.33   23.31 
  -2   1 -10  82.703   6.148 
  -2   1 -10  93.030   5.104 
   2  -1  10  94.236   5.023 
   2  -1  10  103.36    6.35 
  -3   1 -10  73.379   5.144 
  -3   1 -10  71.129   4.581 
   3  -1  10  70.767   5.345 
   3  -1  10  73.862   4.662 
  -4   1 -10  2.5317  2.4915 
  -4   1 -10  1.7280  2.5719 
   4  -1  10  1.4869  2.2906 
   4  -1  10  4.6214  3.5364 
  -5   1 -10  183.77   10.65 
  -5   1 -10  193.62   13.18 
   5  -1  10  202.54   14.27 
  -6   1 -10  0.5224  3.8578 
  -6   1 -10 -0.2813  4.5812 
   6  -1  10 -0.4822  5.6260 
   7   0 -10  90.981  12.136 
   7   0 -10  88.690   8.961 
   6   0 -10  11.734   5.827 
   6   0 -10  7.3138  4.5410 
  -6   0  10  4.0990  2.8130 
   5   0 -10  37.333   5.706 
   5   0 -10  37.976   4.059 
  -5   0  10  38.177   3.496 
   4   0 -10  1.9691  4.0588 
   4   0 -10  11.734   2.411 
   4   0 -10  5.5456  2.6523 
  -4   0  10  11.574   2.411 
   3   0 -10  115.57    7.76 
   3   0 -10  106.13    6.79 
   3   0 -10  100.10    5.87 
  -3   0  10  113.12    6.15 
  -3   0  10  104.08    5.02 
   2   0 -10  0.1607  2.2504 
   2   0 -10  -2.049   1.567 
   2   0 -10  1.0850  3.6971 
   2   0 -10 -0.1206  1.4467 
  -2   0  10 -0.1607  1.4065 
  -2   0  10  2.4112  2.0093 
   1   0 -10  363.04   19.33 
   1   0 -10  391.17   19.77 
   1   0 -10  346.92   22.34 
  -1   0  10  363.04   17.24 
  -1   0  10  385.50   18.41 
   0   0 -10  74.022   4.621 
   0   0 -10  76.233   4.581 
   0   0 -10  70.165   5.787 
   0   0 -10  71.290   5.104 
   0   0 -10  72.937   4.139 
   0   0  10  76.554   4.139 
   0   0  10  79.689   4.621 
  -1   0 -10  160.22   10.97 
  -1   0 -10  178.71    9.28 
  -1   0 -10  174.93   12.14 
  -1   0 -10  178.83    8.72 
  -1   0 -10  168.78    9.20 
   1   0  10  190.88    7.92 
   1   0  10  187.63    9.81 
  -2   0 -10  48.504   3.335 
  -2   0 -10  49.670   3.657 
   2   0  10  52.001   4.501 
   2   0  10  48.102   3.496 
  -3   0 -10  85.033   5.465 
   3   0  10  90.619   6.952 
   3   0  10  82.903   5.023 
  -4   0 -10  47.339   4.621 
  -4   0 -10  50.473   4.179 
   4   0  10  50.152   3.496 
   4   0  10  57.586   5.787 
  -5   0 -10  11.373   3.175 
  -5   0 -10  3.6569  3.2149 
   5   0  10  11.212   4.420 
   7  -1 -10  -1.165   7.193 
   6  -1 -10  26.523   6.430 
   6  -1 -10  19.410   4.099 
  -6   1  10  30.461   3.536 
  -6   1  10  24.232   3.577 
   5  -1 -10  39.583   6.711 
   5  -1 -10  28.411   3.818 
  -5   1  10  36.529   3.175 
   4  -1 -10  36.931   3.376 
   4  -1 -10  41.472   3.295 
   4  -1 -10  47.701   5.706 
  -4   1  10  39.221   3.134 
   3  -1 -10  12.498   3.978 
   3  -1 -10  13.141   2.451 
   3  -1 -10  7.4746  1.8084 
  -3   1  10  11.855   1.728 
  -3   1  10  11.493   2.170 
   2  -1 -10 1999.89  100.95 
   2  -1 -10 1928.52  102.23 
   2  -1 -10 1905.25  105.53 
  -2   1  10 1902.48   76.71 
  -2   1  10 1982.21  108.98 
   1  -1 -10  44.486   2.813 
   1  -1 -10  50.634   5.385 
   1  -1 -10  46.093   3.376 
  -1   1  10  53.327   3.577 
  -1   1  10  51.076   3.054 
   0  -1 -10  209.81   11.94 
   0  -1 -10  214.03   12.62 
   0  -1 -10  234.89   11.57 
   0  -1 -10  228.30   12.82 
   0   1  10  216.96    8.92 
   0   1  10  229.14   11.37 
  -1  -1 -10 -0.0402  1.0850 
  -1  -1 -10  0.6430  1.4869 
  -1  -1 -10  1.7682  1.9691 
  -1  -1 -10  2.5317  3.4962 
  -1  -1 -10 -0.1607  1.4869 
   1   1  10 -0.2411  2.0897 
   1   1  10  1.0046  1.6476 
  -2  -1 -10  40.829   3.496 
  -2  -1 -10  43.200   3.175 
   2   1  10  46.736   3.456 
   2   1  10  40.306   3.818 
  -3  -1 -10  -2.451   2.532 
   3   1  10  -2.652   2.853 
   3   1  10  -3.657   1.889 
  -4  -1 -10  134.70    8.84 
  -4  -1 -10  124.54    8.00 
   4   1  10  130.93    9.56 
  -5  -1 -10  -1.326   3.215 
  -5  -1 -10  -1.246   3.818 
   5   1  10 -0.6832  4.5410 
   7  -2 -10  26.683   7.796 
  -7   2  10  20.133   5.385 
  -7   2  10  17.360   6.108 
   6  -2 -10  68.035   7.515 
  -6   2  10  69.401   5.063 
  -6   2  10  66.146   4.943 
   5  -2 -10  10.288   3.496 
   5  -2 -10  21.057   5.305 
  -5   2  10  17.802   3.014 
  -5   2  10  20.535   2.974 
   4  -2 -10  94.798   7.997 
   4  -2 -10  84.431   4.702 
   4  -2 -10  80.452   5.706 
  -4   2  10  102.72    5.22 
   3  -2 -10  99.621   7.434 
   3  -2 -10  110.11    6.07 
   3  -2 -10  101.55    5.67 
  -3   2  10  110.71    6.03 
  -3   2  10  114.13    5.99 
   2  -2 -10  3.2952  1.4065 
   2  -2 -10  2.6523  1.4467 
   2  -2 -10  -4.862   3.978 
  -2   2  10  5.1840  1.8084 
  -2   2  10  2.8934  2.1299 
  -2   2  10  5.5456  2.4915 
   1  -2 -10  194.90   11.25 
   1  -2 -10  200.09   10.33 
   1  -2 -10  206.68   13.38 
  -1   2  10  226.65   10.53 
  -1   2  10  180.72   11.81 
  -1   2  10  220.34    9.81 
   0  -2 -10  25.920   2.411 
   0  -2 -10  23.509   2.974 
   0  -2 -10  17.200   4.179 
   0  -2 -10  20.696   1.808 
   0   2  10  22.826   2.170 
   0   2  10  26.804   2.692 
  -1  -2 -10  118.19    9.08 
  -1  -2 -10  106.13    7.07 
  -1  -2 -10  105.29    6.03 
  -1  -2 -10  110.63    6.43 
   1   2  10  106.93    6.63 
   1   2  10  112.32    5.55 
  -2  -2 -10  217.00   12.46 
   2   2  10  216.44   13.42 
   2   2  10  206.80   12.22 
  -3  -2 -10  43.119   3.737 
   3   2  10  41.833   3.456 
   3   2  10  39.061   4.420 
   3   2  10  41.110   3.456 
  -4  -2 -10  6.4297  3.4560 
   4   2  10  4.5812  3.7373 
  -5  -2 -10  19.209   3.657 
  -5  -2 -10  15.753   4.300 
   5   2  10  25.478   5.546 
   7  -3 -10  19.651   6.992 
  -7   3  10  21.258   4.099 
  -7   3  10  16.155   3.818 
   6  -3 -10  16.637   6.430 
  -6   3  10  10.649   3.777 
  -6   3  10  5.1438  3.2149 
   5  -3 -10  198.32   15.31 
  -5   3  10  228.26   11.21 
  -5   3  10  225.16   10.57 
   4  -3 -10  8.0774  4.9429 
  -4   3  10  1.1252  2.4513 
  -4   3  10  -1.407   1.889 
   3  -3 -10  88.449   7.033 
  -3   3  10  98.335   4.943 
  -3   3  10  86.319   4.742 
  -3   3  10  88.007   5.505 
   2  -3 -10  37.092   2.974 
   2  -3 -10  39.302   5.305 
   2  -3 -10  40.869   2.853 
  -2   3  10  48.344   3.255 
  -2   3  10  39.945   3.295 
  -2   3  10  46.013   3.456 
   1  -3 -10  402.78   20.21 
   1  -3 -10  420.83   22.06 
   1  -3 -10  423.48   23.47 
  -1   3  10  450.08   22.66 
  -1   3  10  361.47   26.28 
  -1   3  10  396.88   19.65 
  -1   3  10  419.66   22.42 
   0  -3 -10  40.146   3.777 
   0  -3 -10  45.691   4.903 
   0  -3 -10  45.129   3.697 
   0   3  10  49.710   3.938 
   0   3  10  49.067   3.577 
   0   3  10  40.909   3.376 
  -1  -3 -10  143.30    8.24 
  -1  -3 -10  135.75    9.60 
   1   3  10  152.14    8.28 
   1   3  10  156.97    7.92 
   1   3  10  156.72    9.68 
  -2  -3 -10  2.6925  2.6925 
   2   3  10  0.7635  2.0897 
   2   3  10  0.7233  2.6121 
   2   3  10 -0.1206  2.0093 
  -3  -3 -10  1.2458  3.1345 
   3   3  10  1.6878  2.4112 
   3   3  10 -0.4019  2.2102 
   3   3  10 -0.2411  3.0541 
  -4  -3 -10  5.5055  2.9336 
   4   3  10  10.247   4.179 
  -5  -3 -10  12.739   3.898 
  -5  -3 -10  4.2195  4.7017 
   5   3  10  12.096   5.827 
   7  -4 -10  30.581   7.917 
  -7   4  10  13.663   5.104 
  -7   4  10  20.455   4.702 
   6  -4 -10  58.430   8.318 
  -6   4  10  75.389   5.907 
  -6   4  10  69.722   5.988 
   5  -4 -10  -5.305   4.621 
  -5   4  10  3.7775  2.6925 
  -5   4  10  9.9259  3.0541 
   4  -4 -10  81.939   7.957 
  -4   4  10  94.316   5.586 
  -4   4  10  85.435   5.586 
   3  -4 -10  1.0850  4.4606 
  -3   4  10 -0.3617  2.4513 
  -3   4  10  0.9645  1.8084 
  -3   4  10  -3.215   2.291 
   2  -4 -10  136.79    8.56 
   2  -4 -10  139.65    9.00 
  -2   4  10  143.46    7.88 
  -2   4  10  133.14    7.47 
  -2   4  10  147.60    8.44 
   1  -4 -10  3.7775  2.2504 
   1  -4 -10  5.5858  4.0588 
  -1   4  10  3.4560  1.8485 
  -1   4  10  3.8177  2.0495 
  -1   4  10  1.7280  2.2504 
   0  -4 -10  29.818   3.898 
   0  -4 -10  33.274   3.376 
   0  -4 -10  34.359   4.501 
   0   4  10  35.203   3.175 
   0   4  10  35.484   3.737 
   0   4  10  41.512   3.175 
  -1  -4 -10  0.4822  2.0093 
  -1  -4 -10  -2.250   2.652 
   1   4  10  -3.335   2.250 
   1   4  10  2.2906  2.0495 
   1   4  10  0.3215  2.5719 
  -2  -4 -10  109.99    8.24 
   2   4  10  105.85    7.39 
   2   4  10  116.94    8.08 
   2   4  10  119.11    8.00 
  -3  -4 -10  19.972   3.898 
   3   4  10  16.717   2.733 
   3   4  10  17.159   4.461 
   3   4  10  12.618   2.974 
  -4  -4 -10  19.892   4.019 
   4   4  10  13.583   5.023 
   6  -5 -10  28.773   6.631 
  -6   5  10  27.809   4.340 
  -6   5  10  33.957   4.019 
   5  -5 -10  15.954   5.546 
  -5   5  10  20.736   3.577 
  -5   5  10  11.051   3.094 
   4  -5 -10  -2.974   4.019 
  -4   5  10  4.1793  3.0541 
  -4   5  10  0.7233  2.8130 
   3  -5 -10  110.07    8.08 
  -3   5  10  108.66    7.03 
  -3   5  10  102.59    6.19 
  -3   5  10  101.59    6.67 
   2  -5 -10  34.037   5.385 
   2  -5 -10  43.602   3.938 
  -2   5  10  41.713   3.858 
  -2   5  10  38.337   3.657 
  -2   5  10  40.789   3.617 
   1  -5 -10  15.351   3.456 
   1  -5 -10  18.204   4.862 
  -1   5  10  18.124   2.934 
  -1   5  10  13.824   2.411 
  -1   5  10  13.864   2.733 
   0  -5 -10  15.512   3.456 
   0  -5 -10  15.994   2.733 
   0  -5 -10  8.6801  3.6167 
   0   5  10  13.944   2.572 
   0   5  10  17.883   3.134 
   0   5  10  15.190   2.692 
  -1  -5 -10  33.475   3.416 
  -1  -5 -10  43.160   3.938 
   1   5  10  33.234   3.215 
   1   5  10  33.113   4.300 
   1   5  10  35.082   3.697 
  -2  -5 -10  14.989   3.978 
   2   5  10  10.529   2.492 
   2   5  10  10.046   4.019 
   2   5  10  16.878   2.853 
  -3  -5 -10  41.311   5.063 
   3   5  10  29.416   4.702 
  -4  -5 -10  4.0990  5.3045 
   4   5  10  -1.045   4.903 
   6  -6 -10  2.5317  7.3138 
  -6   6  10  6.1886  3.8177 
  -6   6  10  10.529   3.818 
   5  -6 -10  40.266   6.590 
  -5   6  10  38.699   4.340 
  -5   6  10  44.807   4.581 
   4  -6 -10  11.975   5.063 
   4  -6 -10  6.2690  3.5364 
  -4   6  10  15.592   2.692 
  -4   6  10  14.547   3.255 
   3  -6 -10  33.394   5.626 
   3  -6 -10  37.172   4.220 
  -3   6  10  39.463   3.456 
  -3   6  10  33.796   3.818 
  -3   6  10  43.401   4.461 
   2  -6 -10  37.413   3.898 
   2  -6 -10  35.846   5.747 
  -2   6  10  35.725   4.139 
  -2   6  10  39.583   4.099 
  -2   6  10  39.985   4.662 
   1  -6 -10  31.666   5.023 
   1  -6 -10  33.314   3.898 
  -1   6  10  31.224   3.577 
  -1   6  10  30.019   3.818 
  -1   6  10  34.359   3.456 
   0  -6 -10  -3.456   3.456 
   0  -6 -10 -0.7233  2.7326 
   0  -6 -10  2.2102  2.5317 
   0   6  10  -2.813   2.733 
   0   6  10  0.7233  2.5317 
   0   6  10  0.9243  2.4915 
  -1  -6 -10  45.973   5.063 
  -1  -6 -10  43.883   4.742 
   1   6  10  42.677   4.260 
   1   6  10  47.058   4.903 
   1   6  10  44.486   4.420 
  -2  -6 -10  0.2411  3.8980 
   2   6  10  -1.567   2.934 
   2   6  10  -2.572   4.139 
   2   6  10 -0.0402  2.4513 
  -3  -6 -10  30.541   5.546 
   3   6  10  34.439   6.309 
   6  -7 -10  37.011   7.635 
  -6   7  10  31.305   5.465 
  -6   7  10  34.479   5.666 
   5  -7 -10  17.843   5.224 
   5  -7 -10  10.609   4.983 
  -5   7  10  17.722   4.059 
  -5   7  10  15.110   3.376 
   4  -7 -10  11.172   4.380 
   4  -7 -10  13.502   5.063 
  -4   7  10  11.855   3.376 
  -4   7  10  10.408   3.536 
   3  -7 -10  7.3540  5.7868 
   3  -7 -10  11.453   3.818 
  -3   7  10  14.025   3.134 
  -3   7  10  16.315   3.416 
   2  -7 -10  40.427   4.742 
   2  -7 -10  36.328   6.068 
  -2   7  10  33.877   3.777 
  -2   7  10  38.820   4.260 
  -2   7  10  41.311   5.184 
   1  -7 -10 -0.2009  3.5765 
   1  -7 -10  -1.125   4.019 
   1  -7 -10  2.4112  3.1747 
  -1   7  10  2.0093  3.0139 
  -1   7  10 -0.2411  2.7728 
  -1   7  10  1.4467  2.5317 
   0  -7 -10  39.382   5.224 
   0  -7 -10  40.588   4.903 
   0   7  10  43.320   4.139 
   0   7  10  32.350   3.898 
   0   7  10  45.330   4.862 
  -1  -7 -10  -4.420   3.134 
  -1  -7 -10  5.3849  4.1391 
   1   7  10  5.6662  3.2551 
   1   7  10  2.6121  3.1747 
   1   7  10  2.8130  3.8177 
  -2  -7 -10  23.308   4.983 
   2   7  10  27.688   3.898 
   2   7  10  26.764   4.662 
   2   7  10  29.215   5.465 
   5  -8 -10  18.566   5.264 
   5  -8 -10  13.261   7.394 
  -5   8  10  8.2783  4.9027 
  -5   8  10  14.186   3.577 
   4  -8 -10  26.402   4.742 
   4  -8 -10  15.793   6.068 
  -4   8  10  18.325   4.139 
  -4   8  10  30.340   5.023 
   3  -8 -10  10.569   4.300 
   3  -8 -10 -0.9645  4.7821 
  -3   8  10  5.7064  3.6569 
  -3   8  10  1.6476  3.5364 
   2  -8 -10  32.872   6.711 
   2  -8 -10  30.220   4.943 
  -2   8  10  29.295   4.541 
  -2   8  10  29.617   4.420 
  -2   8  10  33.435   4.340 
   1  -8 -10  -3.335   4.420 
   1  -8 -10  2.3308  3.6569 
   1  -8 -10  1.2458  4.0990 
  -1   8  10  5.1840  3.2149 
  -1   8  10  7.5951  3.4560 
  -1   8  10  6.2690  4.2195 
   0  -8 -10  6.5905  3.9382 
   0  -8 -10  15.351   3.858 
   0   8  10  14.266   4.662 
   0   8  10  10.569   3.456 
   0   8  10  5.6662  3.7373 
  -1  -8 -10  7.2736  4.3401 
   1   8  10  -1.447   4.822 
   1   8  10  -5.827   3.697 
   1   8  10  0.0402  3.6167 
   4  -9 -10 -0.1206  4.2999 
   4  -9 -10  -3.496   6.590 
  -4   9  10  0.2813  4.3401 
  -4   9  10  -4.059   3.978 
   3  -9 -10  4.7017  4.1391 
  -3   9  10  11.332   4.420 
  -3   9  10  19.812   3.898 
   2  -9 -10  2.6523  4.3803 
  -2   9  10 -0.5224  3.0541 
  -2   9  10  -2.532   4.019 
   1  -9 -10  29.617   4.862 
   1  -9 -10  20.213   5.827 
  -1   9  10  29.697   5.063 
  -1   9  10  18.204   4.662 
  -1   9  10  28.050   5.626 
   0  -9 -10  4.5812  5.1036 
   0  -9 -10 -0.9645  4.4606 
   0   9  10  2.7326  4.7017 
   0   9  10  0.4420  4.0990 
   0   9  10  4.3803  4.0588 
   2 -10 -10  0.3215  5.5858 
   2 -10 -10  1.1252  5.9475 
   0  10 -11  24.674   5.907 
   0  10 -11  24.272   5.787 
   0 -10  11  33.435   6.269 
  -1  10 -11  18.445   5.385 
  -1  10 -11  7.1129  4.5812 
   1 -10  11  5.0232  5.0232 
  -2  10 -11  28.371   5.988 
  -2  10 -11  37.212   5.546 
   2 -10  11  27.407   6.631 
   2   9 -11  32.832   6.189 
   2   9 -11  30.823   5.345 
  -2  -9  11  33.435   5.948 
  -2  -9  11  28.050   5.425 
   1   9 -11  39.864   5.465 
   1   9 -11  38.056   6.108 
  -1  -9  11  27.246   4.099 
  -1  -9  11  39.221   5.747 
   0   9 -11  23.027   5.184 
   0   9 -11  34.841   4.822 
   0  -9  11  31.626   5.224 
  -1   9 -11  5.8671  3.9784 
  -1   9 -11  -1.045   4.300 
   1  -9  11  11.694   4.461 
  -2   9 -11  40.146   5.505 
  -2   9 -11  50.514   6.349 
   2  -9  11  57.104   6.349 
  -3   9 -11  10.529   3.938 
  -3   9 -11  7.0325  4.0990 
   3  -9  11  14.025   4.340 
   3   8 -11  45.008   6.309 
   3   8 -11  40.628   6.791 
  -3  -8  11  48.504   5.988 
  -3  -8  11  42.436   5.425 
   2   8 -11  3.4962  4.8625 
   2   8 -11  -2.492   4.179 
   2   8 -11  -2.692   6.068 
  -2  -8  11  -2.009   3.617 
  -2  -8  11  -3.335   3.456 
   1   8 -11  64.619   6.269 
   1   8 -11  61.083   7.555 
   1   8 -11  64.699   6.068 
  -1  -8  11  62.690   6.952 
  -1  -8  11  57.667   5.546 
   0   8 -11  16.717   4.621 
   0   8 -11  22.303   4.139 
   0  -8  11  23.428   4.019 
   0  -8  11  18.445   3.094 
  -1   8 -11  107.54   10.09 
  -1   8 -11  116.30    8.12 
   1  -8  11  123.69   10.13 
  -2   8 -11  51.157   6.148 
  -2   8 -11  52.201   5.184 
   2  -8  11  59.716   6.510 
  -3   8 -11  44.968   5.184 
  -3   8 -11  43.079   5.626 
   3  -8  11  36.408   6.229 
  -4   8 -11  30.220   4.903 
   4  -8  11  37.815   6.711 
   4   7 -11  72.978   9.403 
   4   7 -11  69.562   6.229 
   4   7 -11  68.919   7.716 
  -4  -7  11  54.130   6.229 
  -4  -7  11  61.926   6.510 
   3   7 -11  10.328   4.461 
   3   7 -11  5.7466  4.0588 
   3   7 -11  3.7775  5.5858 
  -3  -7  11  17.079   4.300 
  -3  -7  11  10.207   3.818 
   2   7 -11  71.129   5.907 
   2   7 -11  68.798   8.439 
   2   7 -11  70.727   5.988 
  -2  -7  11  60.520   5.948 
  -2  -7  11  73.942   5.948 
  -2  -7  11  72.214   6.189 
   1   7 -11  11.292   4.099 
   1   7 -11  11.453   3.657 
   1   7 -11  10.649   4.742 
  -1  -7  11  14.346   2.652 
  -1  -7  11  15.230   3.295 
   0   7 -11  114.89    9.40 
   0   7 -11  114.37    7.55 
   0   7 -11  103.88    8.64 
   0  -7  11  108.02    9.93 
   0  -7  11  99.018   6.309 
  -1   7 -11  3.2551  2.9738 
  -1   7 -11  -4.621   2.893 
   1  -7  11  0.3215  3.1747 
  -2   7 -11  70.767   6.992 
  -2   7 -11  62.288   5.948 
   2  -7  11  69.280   6.470 
  -3   7 -11  3.5364  4.0990 
  -3   7 -11  -1.889   3.215 
   3  -7  11 -0.2411  3.4158 
  -4   7 -11  79.568   6.872 
   4  -7  11  86.801   9.122 
   5  -7  11  -2.250   5.063 
   5  -7  11  -2.974   3.898 
   4   6 -11  25.639   5.787 
   4   6 -11  22.102   4.621 
   4   6 -11  27.929   8.158 
  -4  -6  11  20.133   4.581 
   3   6 -11  99.982   6.992 
   3   6 -11  100.67    9.20 
   3   6 -11  84.310   7.676 
  -3  -6  11  96.928   6.631 
  -3  -6  11  90.137   6.751 
   2   6 -11  145.07    9.36 
   2   6 -11  172.72   11.61 
   2   6 -11  143.54    8.88 
  -2  -6  11  146.00    9.16 
  -2  -6  11  138.52    8.96 
  -2  -6  11  159.62   10.25 
   1   6 -11  126.67    7.76 
   1   6 -11  135.79   10.49 
   1   6 -11  144.23    8.44 
  -1  -6  11  142.98    8.52 
  -1  -6  11  142.78    8.40 
  -1  -6  11  151.14    9.56 
   0   6 -11  19.691   4.581 
   0   6 -11  18.405   3.175 
   0   6 -11  16.758   3.496 
   0  -6  11  21.339   3.496 
   0  -6  11  20.013   2.451 
   0  -6  11  19.370   2.853 
  -1   6 -11  159.42    9.64 
  -1   6 -11  152.38    9.89 
   1  -6  11  172.24   12.78 
  -2   6 -11  42.155   4.621 
  -2   6 -11  44.847   4.862 
   2  -6  11  50.112   4.862 
  -3   6 -11  143.42    8.24 
   3  -6  11  140.69    8.84 
   3  -6  11  160.94   10.93 
  -4   6 -11  12.458   3.456 
   4  -6  11  6.2690  3.5765 
   4  -6  11  5.5858  3.2952 
  -5   6 -11  13.784   4.179 
   5  -6  11  15.552   5.063 
   5   5 -11  17.762   5.063 
   5   5 -11  7.2335  5.7064 
   5   5 -11  18.124   7.796 
  -5  -5  11  14.226   4.340 
   4   5 -11  5.7064  5.5858 
   4   5 -11  4.2999  4.0588 
   4   5 -11  -2.532   4.420 
  -4  -5  11  -4.139   2.974 
  -4  -5  11 -0.5626  3.3354 
   3   5 -11  142.90   10.37 
   3   5 -11  119.47    8.72 
   3   5 -11  127.23    7.60 
  -3  -5  11  121.64    7.51 
  -3  -5  11  129.40    8.48 
  -3  -5  11  116.86    8.16 
   2   5 -11  13.864   5.144 
   2   5 -11  23.549   3.697 
   2   5 -11  15.110   3.255 
  -2  -5  11  17.642   2.572 
  -2  -5  11  12.377   2.733 
  -2  -5  11  11.815   2.813 
   1   5 -11  113.97    9.72 
   1   5 -11  122.21    8.36 
   1   5 -11  126.99    7.11 
  -1  -5  11  127.83    8.04 
  -1  -5  11  117.22    7.03 
  -1  -5  11  116.10    7.23 
   0   5 -11  94.236   6.510 
   0   5 -11  89.012   7.113 
   0   5 -11  93.070   6.550 
   0  -5  11  86.761   5.546 
   0  -5  11  86.199   5.747 
   0  -5  11  88.128   6.510 
  -1   5 -11  127.39    7.92 
  -1   5 -11  131.97    9.48 
   1  -5  11  145.67    8.72 
   1  -5  11  129.36    7.68 
  -2   5 -11  2.5719  2.4112 
  -2   5 -11  3.1345  2.6925 
   2  -5  11 -0.6430  2.3710 
   2  -5  11  -3.456   2.974 
  -3   5 -11  81.457   6.108 
   3  -5  11  69.200   5.747 
   3  -5  11  72.093   6.671 
   4  -5  11  23.187   4.541 
   4  -5  11  19.731   3.376 
  -5   5 -11  57.988   5.305 
   5  -5  11  60.440   6.952 
   5   4 -11  20.374   6.390 
   5   4 -11  13.824   4.139 
   5   4 -11  21.017   5.465 
  -5  -4  11  16.637   3.657 
   4   4 -11  159.78   11.90 
   4   4 -11  145.59    8.88 
   4   4 -11  155.92    9.89 
  -4  -4  11  151.18    9.04 
   3   4 -11  20.776   4.099 
   3   4 -11  25.598   5.948 
   3   4 -11  16.637   3.295 
  -3  -4  11  22.745   2.893 
  -3  -4  11  22.946   2.974 
   2   4 -11  348.97   21.38 
   2   4 -11  343.75   18.28 
   2   4 -11  356.49   17.80 
  -2  -4  11  337.40   19.13 
  -2  -4  11  338.28   17.76 
   1   4 -11  5.8671  2.4915 
   1   4 -11  -1.286   3.978 
   1   4 -11  6.2288  2.9336 
  -1  -4  11  1.8084  2.2102 
  -1  -4  11  0.8037  2.1700 
   0   4 -11  343.71   18.93 
   0   4 -11  368.02   22.95 
   0   4 -11  339.05   19.65 
   0  -4  11  378.15   22.14 
   0  -4  11  359.70   17.04 
  -1   4 -11  2.2102  2.4915 
  -1   4 -11  6.7914  2.7728 
   1  -4  11  0.9243  2.1299 
   1  -4  11  2.2906  2.4513 
  -2   4 -11  66.266   5.706 
  -2   4 -11  72.978   4.983 
   2  -4  11  80.010   6.510 
   2  -4  11  78.162   5.063 
  -3   4 -11  4.1793  2.5719 
   3  -4  11  -2.049   3.416 
   3  -4  11  -1.085   2.492 
  -4   4 -11  28.371   3.536 
   4  -4  11  31.867   3.777 
   4  -4  11  23.911   4.742 
  -5   4 -11  3.2149  3.8177 
   5  -4  11  2.6523  4.9429 
   6   3 -11  16.597   7.475 
   5   3 -11  29.376   5.224 
   5   3 -11  18.003   7.274 
   5   3 -11  38.418   5.184 
  -5  -3  11  28.492   3.657 
   4   3 -11  24.473   3.617 
   4   3 -11  18.968   5.666 
   4   3 -11  16.597   3.456 
  -4  -3  11  26.643   3.456 
   3   3 -11  89.333   6.229 
   3   3 -11  82.260   6.751 
   3   3 -11  100.83    8.12 
  -3  -3  11  97.370   5.425 
  -3  -3  11  97.973   5.867 
   2   3 -11  136.59   10.37 
   2   3 -11  128.51    8.24 
   2   3 -11  125.90    7.51 
  -2  -3  11  131.49    8.36 
  -2  -3  11  134.78    6.71 
   1   3 -11  58.631   6.631 
   1   3 -11  58.390   4.340 
   1   3 -11  56.501   3.376 
   1   3 -11  59.234   4.300 
  -1  -3  11  62.851   4.380 
  -1  -3  11  52.121   3.978 
   0   3 -11  8.7203  2.0495 
   0   3 -11  8.1175  3.3354 
   0   3 -11  7.2736  2.4112 
   0   3 -11  12.217   1.607 
   0  -3  11  6.2288  2.0495 
  -1   3 -11  121.84    8.72 
  -1   3 -11  122.73    6.99 
  -1   3 -11  114.81    5.75 
  -1   3 -11  96.727   9.002 
   1  -3  11  123.13    7.64 
   1  -3  11  125.42    6.63 
  -2   3 -11  112.80    7.72 
  -2   3 -11  104.56    7.15 
  -2   3 -11  102.96    7.03 
   2  -3  11  115.41    6.95 
   2  -3  11  124.13    7.72 
  -3   3 -11  81.457   5.787 
  -3   3 -11  78.202   6.309 
  -3   3 -11  79.407   5.385 
   3  -3  11  81.095   6.108 
   3  -3  11  74.746   6.671 
  -4   3 -11  188.07   12.66 
  -4   3 -11  188.79   12.26 
  -4   3 -11  202.70   11.21 
   4  -3  11  189.40   12.98 
   4  -3  11  195.91   12.58 
   5  -3  11  17.441   5.063 
   6   2 -11  0.9243  6.7110 
   6   2 -11  5.1438  4.9429 
  -6  -2  11  4.2999  3.8177 
   5   2 -11  59.957   5.264 
   5   2 -11  66.668   6.108 
   5   2 -11  82.180   7.917 
  -5  -2  11  68.879   5.385 
   4   2 -11  14.145   3.496 
   4   2 -11  19.088   3.818 
   4   2 -11  14.507   5.988 
  -4  -2  11  16.034   2.411 
   3   2 -11  239.23   13.90 
   3   2 -11  232.19   11.01 
   3   2 -11  234.24   16.07 
  -3  -2  11  234.81   12.02 
  -3  -2  11  243.53   13.14 
   2   2 -11  11.252   4.581 
   2   2 -11  10.649   2.853 
   2   2 -11  14.628   2.692 
  -2  -2  11  15.150   2.291 
  -2  -2  11  15.914   2.411 
   1   2 -11  27.849   2.692 
   1   2 -11  28.733   2.893 
   1   2 -11  30.139   3.295 
   1   2 -11  39.985   5.063 
  -1  -2  11  27.286   2.773 
  -1  -2  11  33.595   2.692 
   0   2 -11  6.8316  3.8578 
   0   2 -11  5.2242  2.0495 
   0   2 -11  6.9923  2.3308 
   0   2 -11  7.4344  1.7682 
   0  -2  11  6.8718  2.1299 
   0  -2  11  5.9877  2.1700 
  -1   2 -11  228.01   13.94 
  -1   2 -11  210.09   13.30 
  -1   2 -11  209.17   10.29 
  -1   2 -11  216.12   10.73 
   1  -2  11  241.96   12.02 
   1  -2  11  208.12   12.26 
  -2   2 -11  27.005   2.451 
  -2   2 -11  24.513   3.014 
   2  -2  11  27.407   3.536 
   2  -2  11  28.331   2.934 
  -3   2 -11  106.73    7.64 
  -3   2 -11  99.741   6.791 
  -3   2 -11  111.36    6.99 
   3  -2  11  112.96    7.39 
   3  -2  11  105.89    8.60 
  -4   2 -11  109.55    6.83 
  -4   2 -11  89.614   7.233 
  -4   2 -11  98.455   6.189 
   4  -2  11  110.15    8.32 
   4  -2  11  99.942   6.068 
  -5   2 -11  -4.380   3.536 
  -5   2 -11  1.9289  3.6569 
   5  -2  11  4.7017  4.7017 
   6   1 -11  61.324   6.189 
   6   1 -11  68.557   9.042 
  -6  -1  11  79.970   6.148 
   5   1 -11  10.810   3.777 
   5   1 -11  15.391   3.577 
   5   1 -11  9.6446  5.3045 
  -5  -1  11  15.472   3.215 
   4   1 -11  60.640   7.073 
   4   1 -11  67.030   5.104 
   4   1 -11  61.565   5.063 
  -4  -1  11  68.236   4.742 
   3   1 -11  2.6523  2.4915 
   3   1 -11  4.0588  4.3401 
   3   1 -11 -0.7635  2.5719 
  -3  -1  11  1.1654  1.5672 
  -3  -1  11  4.5008  1.8485 
   2   1 -11  161.06    8.52 
   2   1 -11  163.64    9.64 
   2   1 -11  155.64    9.89 
  -2  -1  11  170.67    9.28 
  -2  -1  11  161.75    8.28 
   1   1 -11  29.376   2.692 
   1   1 -11  32.229   3.054 
   1   1 -11  32.350   4.380 
  -1  -1  11  32.470   2.572 
  -1  -1  11  27.688   2.893 
   0   1 -11  120.64    7.88 
   0   1 -11  115.41    9.20 
   0   1 -11  135.47    7.31 
   0   1 -11  123.73    7.84 
   0  -1  11  136.03    8.12 
   0  -1  11  114.77    5.95 
  -1   1 -11  8.7605  2.3308 
  -1   1 -11  12.176   2.331 
  -1   1 -11  11.734   3.496 
  -1   1 -11  8.6400  1.8887 
   1  -1  11  10.569   2.652 
   1  -1  11  11.815   2.250 
  -2   1 -11  137.80    8.72 
  -2   1 -11  138.48    9.16 
   2  -1  11  141.78    9.08 
   2  -1  11  143.58    7.39 
  -3   1 -11  25.759   2.773 
  -3   1 -11  22.384   3.094 
   3  -1  11  22.142   3.818 
   3  -1  11  17.360   2.733 
  -4   1 -11  153.47    8.32 
  -4   1 -11  149.93    9.16 
   4  -1  11  146.72    8.56 
   4  -1  11  158.37   11.73 
  -5   1 -11  46.575   5.305 
  -5   1 -11  45.129   4.943 
   5  -1  11  45.008   6.952 
   6   0 -11  89.414   7.394 
   6   0 -11  112.28   10.45 
  -6   0  11  104.00    8.20 
   5   0 -11  17.079   3.697 
   5   0 -11  17.963   3.416 
   5   0 -11  17.079   5.907 
  -5   0  11  11.855   2.934 
   4   0 -11  6.0279  2.7728 
   4   0 -11  8.8409  2.6121 
   4   0 -11  3.8578  4.7017 
  -4   0  11  10.971   2.572 
   3   0 -11  101.71    6.71 
   3   0 -11  93.352   7.997 
   3   0 -11  109.67    6.83 
  -3   0  11  106.97    6.03 
  -3   0  11  108.26    5.63 
   2   0 -11  18.164   2.170 
   2   0 -11  20.977   4.943 
   2   0 -11  21.098   2.813 
  -2   0  11  21.982   2.371 
  -2   0  11  23.509   2.371 
   1   0 -11  79.930   5.184 
   1   0 -11  81.859   7.555 
   1   0 -11  81.015   5.706 
  -1   0  11  96.245   4.621 
  -1   0  11  87.726   5.867 
   0   0 -11  54.613   3.938 
   0   0 -11  52.724   3.617 
   0   0 -11  52.041   5.546 
   0   0 -11  51.840   4.220 
   0   0  11  63.132   4.501 
   0   0  11  57.948   3.657 
  -1   0 -11  111.92    6.83 
  -1   0 -11  98.656   8.720 
  -1   0 -11  107.74    5.51 
   1   0  11  113.12    5.47 
   1   0  11  119.31    6.83 
  -2   0 -11  41.110   4.340 
  -2   0 -11  38.337   3.376 
   2   0  11  43.682   4.260 
   2   0  11  42.677   3.536 
  -3   0 -11  118.47    8.76 
   3   0  11  108.42    8.04 
   3   0  11  119.07    8.52 
  -4   0 -11  -4.380   3.456 
  -4   0 -11  1.6476  3.1747 
   4   0  11  1.4065  3.8578 
  -5   0 -11  62.851   5.867 
  -5   0 -11  65.865   5.626 
   5   0  11  68.155   8.399 
   6  -1 -11  94.316  10.247 
  -6   1  11  97.411   6.912 
  -6   1  11  81.417   6.590 
   5  -1 -11  77.237   8.198 
  -5   1  11  87.525   5.425 
   4  -1 -11  2.4112  4.5812 
   4  -1 -11  1.8485  2.6523 
   4  -1 -11  -2.331   2.331 
  -4   1  11  2.5317  1.8887 
   3  -1 -11  211.66   12.90 
   3  -1 -11  205.23   10.65 
   3  -1 -11  221.02   13.90 
  -3   1  11  216.88   10.01 
  -3   1  11  206.64   10.13 
   2  -1 -11  149.33   11.33 
   2  -1 -11  153.99    8.96 
   2  -1 -11  154.47    8.52 
  -2   1  11  160.26    8.08 
  -2   1  11  177.18    8.84 
   1  -1 -11  82.783   4.742 
   1  -1 -11  82.622   7.354 
   1  -1 -11  78.322   5.827 
  -1   1  11  90.016   5.023 
  -1   1  11  94.477   5.787 
   0  -1 -11  115.29    6.47 
   0  -1 -11  131.33    7.11 
   0  -1 -11  126.75    7.55 
   0  -1 -11  113.97    8.76 
   0   1  11  126.42    6.79 
   0   1  11  128.43    6.19 
  -1  -1 -11  131.77    7.92 
  -1  -1 -11  130.52    7.39 
  -1  -1 -11  118.31    9.20 
   1   1  11  126.67    8.00 
   1   1  11  125.90    6.35 
  -2  -1 -11  8.8811  2.2504 
  -2  -1 -11  8.9213  2.7326 
   2   1  11  8.2783  2.5317 
   2   1  11  10.931   3.134 
  -3  -1 -11  58.270   4.943 
   3   1  11  43.039   4.179 
   3   1  11  49.750   5.465 
  -4  -1 -11  23.428   4.300 
  -4  -1 -11  23.589   3.657 
   4   1  11  28.050   5.063 
  -5  -1 -11  8.5596  4.7821 
  -5  -1 -11  14.025   3.777 
   5   1  11  15.230   5.184 
   6  -2 -11  23.750   8.238 
  -6   2  11  21.781   4.380 
  -6   2  11  14.507   3.697 
  -5   2  11  12.136   3.577 
  -5   2  11  12.940   3.295 
   4  -2 -11  64.981   7.434 
  -4   2  11  60.600   4.099 
   3  -2 -11  52.603   6.872 
  -3   2  11  57.064   3.617 
  -3   2  11  58.912   4.059 
   2  -2 -11  417.97   24.96 
   2  -2 -11  466.84   24.15 
   2  -2 -11  418.13   21.38 
  -2   2  11  441.24   22.02 
  -2   2  11  463.66   21.34 
   1  -2 -11  15.431   1.889 
   1  -2 -11  15.070   4.220 
  -1   2  11  14.507   2.371 
   0  -2 -11  58.953   4.702 
   0  -2 -11  51.116   5.345 
   0  -2 -11  57.305   3.657 
   0  -2 -11  55.256   4.581 
   0   2  11  63.293   4.340 
   0   2  11  55.657   4.179 
  -1  -2 -11 -0.5224  2.3710 
  -1  -2 -11  2.4513  2.8532 
  -1  -2 -11  3.0541  1.7682 
   1   2  11  1.0448  2.0897 
   1   2  11  -1.688   2.934 
  -2  -2 -11  69.602   5.063 
   2   2  11  69.883   6.912 
   2   2  11  67.392   5.385 
  -3  -2 -11  3.6971  3.0943 
   3   2  11 -0.8037  2.2504 
   3   2  11  -1.165   3.697 
   3   2  11  0.9243  2.4513 
  -4  -2 -11  35.243   4.541 
   4   2  11  27.045   5.345 
   6  -3 -11  23.750   7.153 
  -6   3  11  18.445   4.059 
  -6   3  11  19.289   4.260 
   5  -3 -11  5.8671  5.2242 
  -5   3  11  13.261   3.335 
  -5   3  11  8.8409  3.3354 
   4  -3 -11  42.276   5.907 
  -4   3  11  36.248   3.777 
  -4   3  11  36.127   3.697 
   3  -3 -11  143.10   10.89 
  -3   3  11  150.42    9.52 
  -3   3  11  154.23    8.20 
  -3   3  11  145.96    7.76 
   2  -3 -11  168.54   11.98 
  -2   3  11  170.83    9.24 
  -2   3  11  176.26    9.68 
  -2   3  11  168.94    9.12 
   1  -3 -11  60.841   6.631 
   1  -3 -11  55.256   4.702 
  -1   3  11  56.260   4.300 
  -1   3  11  61.725   4.139 
  -1   3  11  59.716   4.621 
   0  -3 -11  9.4437  2.8934 
   0  -3 -11  11.172   4.139 
   0  -3 -11  9.3633  2.3308 
   0   3  11  9.2427  2.2906 
   0   3  11  12.940   2.572 
   0   3  11  6.3092  2.4513 
  -1  -3 -11  42.235   4.220 
   1   3  11  38.578   3.657 
   1   3  11  38.378   3.416 
   1   3  11  40.146   4.782 
  -2  -3 -11  -1.407   2.813 
   2   3  11  1.7682  2.9336 
   2   3  11  -5.104   2.652 
   2   3  11  -3.617   2.331 
  -3  -3 -11  130.32    8.80 
   3   3  11  132.17    8.28 
   3   3  11  125.06   10.53 
   3   3  11  120.12    8.48 
  -4  -3 -11  9.5642  4.4606 
   4   3  11  1.2458  5.0634 
   6  -4 -11  -6.912   6.992 
  -6   4  11  -2.009   3.577 
  -6   4  11  1.5672  3.8980 
   5  -4 -11  41.793   7.756 
  -5   4  11  48.223   5.104 
  -5   4  11  44.044   4.581 
   4  -4 -11  -1.849   4.702 
  -4   4  11  5.1036  2.6523 
  -4   4  11  4.5812  2.9336 
   3  -4 -11  81.095   8.318 
  -3   4  11  83.747   5.224 
  -3   4  11  78.242   5.305 
   2  -4 -11  46.616   3.978 
   2  -4 -11  47.902   6.349 
  -2   4  11  44.888   4.179 
  -2   4  11  42.677   4.019 
  -2   4  11  41.874   3.456 
   1  -4 -11  139.89    9.36 
   1  -4 -11  124.05    9.64 
  -1   4  11  142.38    9.04 
  -1   4  11  137.40    7.84 
  -1   4  11  134.74    7.88 
   0  -4 -11  10.448   2.692 
   0  -4 -11  10.850   3.335 
   0  -4 -11  15.351   3.777 
   0   4  11  4.9830  2.6523 
   0   4  11  13.864   2.291 
   0   4  11  10.046   3.255 
  -1  -4 -11  48.424   4.541 
   1   4  11  42.718   3.978 
   1   4  11  39.463   4.019 
   1   4  11  50.915   5.023 
  -2  -4 -11  41.191   4.782 
   2   4  11  39.623   5.144 
   2   4  11  31.908   3.577 
   2   4  11  24.473   3.577 
  -3  -4 -11 -0.9645  4.2195 
   3   4  11  -2.451   4.501 
   6  -5 -11  49.067  10.006 
  -6   5  11  39.663   5.144 
  -6   5  11  36.770   5.104 
   5  -5 -11  20.053   6.510 
  -5   5  11  9.8455  3.7373 
  -5   5  11  15.030   3.054 
   4  -5 -11  47.098   7.193 
  -4   5  11  50.313   4.541 
  -4   5  11  53.487   4.822 
   3  -5 -11  3.5765  3.4560 
   3  -5 -11  -2.411   5.224 
  -3   5  11  0.8841  3.0139 
  -3   5  11  1.8084  2.4915 
   2  -5 -11  35.564   5.586 
   2  -5 -11  45.571   4.702 
  -2   5  11  48.344   4.380 
  -2   5  11  44.606   4.019 
  -2   5  11  38.779   3.978 
   1  -5 -11  1.4869  3.6167 
   1  -5 -11  8.4390  4.7419 
   1  -5 -11  0.7233  2.3710 
  -1   5  11  1.2859  2.2102 
  -1   5  11  5.9475  3.1747 
  -1   5  11  3.2149  3.0943 
   0  -5 -11  27.286   4.702 
   0  -5 -11  20.374   3.617 
   0  -5 -11  16.115   4.702 
   0   5  11  25.920   3.898 
   0   5  11  20.776   3.376 
   0   5  11  19.329   3.255 
  -1  -5 -11  1.1252  3.7775 
   1   5  11 -0.9645  2.6925 
   1   5  11  6.1484  2.8934 
   1   5  11  1.3663  3.2551 
  -2  -5 -11  15.632   4.300 
   2   5  11  20.977   3.536 
   2   5  11  7.3942  3.4158 
   2   5  11  13.181   4.099 
  -3  -5 -11  12.176   4.501 
   3   5  11  8.8811  5.1438 
   6  -6 -11  10.649   7.555 
  -6   6  11  6.7914  4.6214 
   5  -6 -11  19.249   6.309 
  -5   6  11  10.730   4.059 
  -5   6  11  6.2690  4.1391 
   4  -6 -11  8.4792  5.7466 
   4  -6 -11  6.9522  4.6214 
  -4   6  11  12.940   3.496 
  -4   6  11  3.3756  3.3756 
   3  -6 -11  41.914   5.345 
   3  -6 -11  46.656   7.434 
  -3   6  11  39.221   4.662 
  -3   6  11  43.642   4.260 
   2  -6 -11  8.4390  5.0232 
   2  -6 -11  13.181   3.697 
  -2   6  11  7.5148  3.0139 
  -2   6  11  13.060   3.175 
  -2   6  11  10.971   3.496 
   1  -6 -11  41.954   6.631 
   1  -6 -11  51.116   5.747 
   1  -6 -11  45.531   4.822 
  -1   6  11  43.722   4.340 
  -1   6  11  48.625   5.063 
  -1   6  11  45.932   4.019 
   0  -6 -11  4.6616  5.2643 
   0  -6 -11  7.1933  3.8177 
   0  -6 -11  4.0990  3.6167 
   0   6  11  -1.246   2.733 
   0   6  11  -2.250   3.014 
   0   6  11  2.6121  3.4560 
  -1  -6 -11  32.993   4.702 
   1   6  11  25.840   4.300 
   1   6  11  31.184   4.903 
   1   6  11  27.005   4.139 
  -2  -6 -11  5.4653  4.9830 
   2   6  11  4.7419  3.8980 
   2   6  11 -0.0804  3.4560 
   2   6  11  10.167   4.903 
   5  -7 -11  4.5812  6.6307 
   5  -7 -11  14.668   5.626 
  -5   7  11  6.2690  4.5410 
  -5   7  11  4.0186  4.0186 
   4  -7 -11  17.601   4.822 
   4  -7 -11  20.656   6.550 
  -4   7  11  21.580   3.777 
  -4   7  11  26.362   4.099 
   3  -7 -11  95.683   8.278 
   3  -7 -11  106.73   11.49 
  -3   7  11  106.85    7.55 
  -3   7  11  88.449   7.193 
   2  -7 -11  8.3185  3.8578 
   2  -7 -11  13.462   5.867 
  -2   7  11  7.3138  3.5765 
  -2   7  11  2.0897  3.7373 
  -2   7  11  6.6709  2.8532 
   1  -7 -11  17.802   5.425 
   1  -7 -11  16.798   5.747 
   1  -7 -11  17.280   4.059 
  -1   7  11  26.201   4.220 
  -1   7  11  23.067   4.461 
  -1   7  11  12.417   4.019 
   0  -7 -11  21.861   4.862 
   0  -7 -11  23.147   4.300 
   0   7  11  19.812   4.179 
   0   7  11  16.637   3.858 
   0   7  11  30.099   5.144 
  -1  -7 -11  27.125   5.465 
   1   7  11  18.445   5.264 
   1   7  11  13.864   3.938 
   1   7  11  11.815   3.737 
   4  -8 -11  14.829   5.505 
   4  -8 -11  16.315   7.193 
  -4   8  11 -0.2411  4.8223 
  -4   8  11  12.176   3.416 
   3  -8 -11  30.903   7.033 
   3  -8 -11  15.311   5.184 
  -3   8  11  19.169   4.340 
  -3   8  11  14.266   4.581 
   2  -8 -11  32.189   5.586 
   2  -8 -11  26.724   6.189 
  -2   8  11  37.373   4.742 
  -2   8  11  36.931   5.023 
  -2   8  11  34.560   5.144 
   1  -8 -11  -2.291   4.220 
   1  -8 -11  2.7728  4.2597 
  -1   8  11 -0.2411  3.8980 
  -1   8  11  3.6167  4.4606 
  -1   8  11  4.6616  4.0186 
   0  -8 -11  15.914   6.952 
   0  -8 -11  34.801   6.148 
   0   8  11  24.513   5.787 
   0   8  11  29.738   4.380 
   0   8  11  18.727   4.019 
   3  -9 -11  10.207   4.742 
   2  -9 -11  12.217   5.586 
   2  -9 -11  10.328   5.626 
  -2   9  11  7.1531  3.7373 
  -2   9  11 -0.5224  4.5812 
   0   9 -12  76.956   7.635 
   0   9 -12  93.794   9.162 
   0  -9  12  74.384   8.640 
  -1   9 -12  0.6028  4.5410 
  -1   9 -12 -0.4822  5.1438 
   1  -9  12  0.2411  4.2195 
  -2   9 -12  26.161   5.747 
  -2   9 -12  27.246   5.827 
   2  -9  12  31.827   6.269 
   2   8 -12  12.257   4.541 
   2   8 -12  2.4513  8.7203 
   2   8 -12  -1.567   4.822 
  -2  -8  12  16.597   4.782 
  -2  -8  12  7.4746  4.0186 
  -2  -8  12  10.207   4.983 
   1   8 -12  18.405   5.626 
   1   8 -12  23.629   6.631 
   1   8 -12  27.728   5.305 
  -1  -8  12  30.300   5.465 
  -1  -8  12  27.728   6.631 
  -1  -8  12  24.473   4.179 
   0   8 -12  18.646   5.184 
   0   8 -12  7.4344  4.2597 
   0  -8  12  11.935   4.501 
  -1   8 -12  55.899   6.751 
  -1   8 -12  71.089   7.756 
   1  -8  12  85.435   7.555 
  -2   8 -12  93.874   8.560 
  -2   8 -12  100.38    8.44 
   2  -8  12  112.68   11.05 
  -3   8 -12  97.893   7.957 
  -3   8 -12  82.863   7.475 
   3  -8  12  87.404  10.770 
   3   7 -12  88.248  10.971 
   3   7 -12  86.801   8.238 
   3   7 -12  89.735   7.314 
  -3  -7  12  83.265   7.836 
  -3  -7  12  97.571   7.676 
   2   7 -12  7.7961  4.5410 
   2   7 -12  9.7250  5.7064 
   2   7 -12  5.1840  4.6616 
  -2  -7  12  5.3447  3.8980 
  -2  -7  12  8.8007  3.6167 
  -2  -7  12  2.7728  3.7775 
   1   7 -12  79.126   8.238 
   1   7 -12  66.709   7.274 
   1   7 -12  68.477   6.229 
  -1  -7  12  76.192   6.791 
  -1  -7  12  80.050   7.033 
  -1  -7  12  73.982   5.465 
   0   7 -12  32.510   4.501 
   0   7 -12  33.997   4.621 
   0  -7  12  22.303   3.617 
   0  -7  12  32.109   4.742 
  -1   7 -12  116.82    8.48 
  -1   7 -12  98.415   8.841 
   1  -7  12  121.44    9.64 
   1  -7  12  115.45    8.56 
  -2   7 -12  52.001   6.108 
  -2   7 -12  53.166   6.148 
   2  -7  12  64.619   6.992 
   2  -7  12  54.613   5.666 
  -3   7 -12  45.490   5.104 
   3  -7  12  44.888   5.023 
   3  -7  12  38.096   6.590 
  -4   7 -12  46.857   5.747 
   4  -7  12  51.800   5.505 
   3   6 -12  0.3617  6.3896 
   3   6 -12  2.0495  4.1391 
   3   6 -12 -0.4822  4.9830 
  -3  -6  12  -2.974   3.617 
  -3  -6  12 -0.4822  3.5364 
   2   6 -12  149.25   10.01 
   2   6 -12  150.54   13.22 
   2   6 -12  166.69   12.26 
  -2  -6  12  145.47    9.97 
  -2  -6  12  165.41   11.33 
  -2  -6  12  162.31    9.28 
   1   6 -12  2.7728  3.6167 
   1   6 -12  0.1607  3.2551 
   1   6 -12  1.7280  4.9429 
  -1  -6  12  -1.085   2.451 
  -1  -6  12  -3.456   2.974 
  -1  -6  12  2.5719  2.8934 
   0   6 -12  163.23   12.46 
   0   6 -12  168.34   13.66 
   0   6 -12  168.38   11.53 
   0  -6  12  180.11   13.18 
   0  -6  12  172.52    9.97 
  -1   6 -12  9.1624  3.5364 
  -1   6 -12  9.1222  3.8578 
   1  -6  12  12.217   4.179 
   1  -6  12  13.502   3.456 
  -2   6 -12  128.76    9.68 
  -2   6 -12  136.11    9.32 
   2  -6  12  128.07    9.97 
   2  -6  12  139.16    9.97 
  -3   6 -12  10.046   3.577 
   3  -6  12  4.0990  3.2952 
   3  -6  12  -1.969   4.340 
  -4   6 -12  38.538   5.144 
   4  -6  12  39.302   6.229 
   4  -6  12  40.507   4.662 
   4   5 -12  16.677   7.957 
   4   5 -12 -0.0402  4.9027 
   4   5 -12  9.6848  4.3803 
  -4  -5  12  18.887   3.898 
   3   5 -12  72.777   9.524 
   3   5 -12  69.722   5.787 
   3   5 -12  70.526   7.193 
  -3  -5  12  72.777   5.706 
   2   5 -12  104.36    6.83 
   2   5 -12  107.94    7.96 
   2   5 -12  110.03    9.48 
  -2  -5  12  112.84    7.80 
  -2  -5  12  101.67    6.55 
   1   5 -12  163.40   11.25 
   1   5 -12  166.57   11.09 
   1   5 -12  151.22   11.21 
  -1  -5  12  183.45   11.01 
  -1  -5  12  160.38    8.84 
   0   5 -12  9.3633  4.7017 
   0   5 -12  8.2783  3.1345 
   0   5 -12  6.8718  3.2149 
   0  -5  12  4.7017  2.1700 
   0  -5  12  8.3185  3.6971 
  -1   5 -12  149.77   11.69 
  -1   5 -12  151.54   11.05 
   1  -5  12  137.76    9.89 
   1  -5  12  174.65   11.13 
  -2   5 -12  13.020   3.255 
  -2   5 -12  15.954   3.697 
   2  -5  12  17.481   3.255 
   2  -5  12  21.700   4.220 
  -3   5 -12  111.27    7.03 
   3  -5  12  109.87    7.47 
   3  -5  12  122.21    9.24 
  -4   5 -12  1.6878  3.6569 
   4  -5  12  2.6523  4.9429 
   4  -5  12  -3.777   2.492 
   5   4 -12  53.648   9.363 
   4   4 -12  12.016   4.380 
   4   4 -12  20.696   4.420 
   4   4 -12  6.0279  6.7914 
  -4  -4  12  13.824   3.657 
   3   4 -12  224.80   14.31 
   3   4 -12  247.18   17.20 
   3   4 -12  206.03   11.69 
  -3  -4  12  227.17   13.82 
   2   4 -12  6.9120  5.6260 
   2   4 -12  7.0727  3.0943 
   2   4 -12  15.030   3.737 
  -2  -4  12  9.6446  2.9738 
  -2  -4  12  8.3185  2.5719 
   1   4 -12  98.696   7.756 
   1   4 -12  98.496   9.082 
   1   4 -12  93.432   6.349 
  -1  -4  12  98.616   7.113 
  -1  -4  12  88.730   5.988 
   0   4 -12  7.7157  3.0541 
   0   4 -12  11.332   2.773 
   0   4 -12  6.4297  3.4560 
   0  -4  12  5.8671  3.0541 
   0  -4  12  6.3896  2.5317 
  -1   4 -12  56.099   4.340 
  -1   4 -12  55.175   5.747 
   1  -4  12  52.282   4.541 
   1  -4  12  65.382   5.425 
  -2   4 -12  67.512   5.465 
  -2   4 -12  62.650   5.546 
   2  -4  12  71.169   6.309 
   2  -4  12  55.778   4.822 
  -3   4 -12  19.771   3.376 
   3  -4  12  20.897   4.862 
   3  -4  12  9.4437  4.3803 
  -4   4 -12  7.2335  4.3803 
   4  -4  12  12.618   3.697 
   4  -4  12  11.332   5.184 
   5   3 -12  10.247   5.224 
   5   3 -12  7.7559  3.8578 
   5   3 -12  1.5271  7.1129 
  -5  -3  12  15.552   4.340 
   4   3 -12  171.51   15.19 
   4   3 -12  171.19   10.25 
   4   3 -12  169.46   12.58 
  -4  -3  12  178.95   10.29 
   3   3 -12  -5.264   5.626 
   3   3 -12 -0.1206  2.9738 
   3   3 -12  2.3308  3.6167 
  -3  -3  12 -0.8841  2.8532 
   2   3 -12  226.77   16.19 
   2   3 -12  231.51   14.83 
   2   3 -12  238.70   13.70 
  -2  -3  12  251.36   13.22 
  -2  -3  12  241.20   13.74 
   1   3 -12  4.2999  2.5317 
   1   3 -12  4.7017  2.8532 
   1   3 -12  7.9568  3.9382 
  -1  -3  12  3.4962  1.9691 
  -1  -3  12  5.9475  2.9738 
   0   3 -12  218.93   17.08 
   0   3 -12  222.71   13.22 
   0   3 -12  229.14   14.19 
   0  -3  12  243.77   12.26 
   0  -3  12  239.35   14.23 
  -1   3 -12  5.1036  2.5719 
  -1   3 -12  0.4019  2.6523 
   1  -3  12  4.1793  2.8532 
   1  -3  12  3.3354  2.4915 
  -2   3 -12  29.416   3.215 
   2  -3  12  40.869   3.938 
   2  -3  12  32.952   4.501 
  -3   3 -12  13.583   3.134 
   3  -3  12  14.587   4.420 
   3  -3  12  10.006   2.652 
  -4   3 -12  4.4204  3.5765 
   4  -3  12  7.7559  3.3354 
   4  -3  12  0.4019  4.5812 
   5   2 -12  7.7961  4.1391 
   5   2 -12  7.0727  6.2288 
   5   2 -12  15.672   4.139 
   4   2 -12  19.008   3.978 
   4   2 -12  25.156   4.621 
   4   2 -12  28.974   6.791 
  -4  -2  12  35.163   3.898 
   3   2 -12  74.947   6.189 
   3   2 -12  87.645   8.399 
   3   2 -12  82.903   5.747 
  -3  -2  12  84.953   5.505 
   2   2 -12  7.0727  2.6121 
   2   2 -12 -0.0402  3.2149 
   2   2 -12  1.3663  5.1840 
  -2  -2  12  3.2551  2.3710 
  -2  -2  12  0.7233  2.0495 
   1   2 -12  122.04    7.88 
   1   2 -12  137.23    8.00 
   1   2 -12  118.71    7.15 
   1   2 -12  124.05    9.93 
  -1  -2  12  139.65    9.20 
  -1  -2  12  133.74    7.31 
   0   2 -12  14.145   2.652 
   0   2 -12  22.745   3.496 
   0   2 -12  16.597   2.250 
   0   2 -12  14.949   4.340 
   0  -2  12  17.400   2.331 
   0  -2  12  20.093   3.094 
  -1   2 -12  4.5008  2.8130 
  -1   2 -12  2.7326  3.0943 
  -1   2 -12  11.131   2.371 
  -1   2 -12  9.6848  2.1700 
   1  -2  12  10.569   2.572 
   1  -2  12  6.8718  2.9738 
  -2   2 -12  1.0046  2.3710 
  -2   2 -12  0.7233  2.0495 
   2  -2  12  1.2056  1.9691 
   2  -2  12  5.1036  3.0943 
  -3   2 -12  98.295   8.198 
  -3   2 -12  105.69    6.79 
  -3   2 -12  101.79    7.35 
   3  -2  12  115.09    8.88 
   3  -2  12  117.14    7.19 
  -4   2 -12  2.4112  3.2952 
   4  -2  12  2.8934  2.8130 
   4  -2  12  -3.818   4.581 
   5   1 -12  87.244   7.836 
   5   1 -12  85.837   6.671 
   5   1 -12  104.48   10.21 
  -5  -1  12  99.058   6.671 
   4   1 -12  34.359   4.179 
   4   1 -12  47.259   8.158 
   4   1 -12  46.374   4.862 
  -4  -1  12  39.864   4.179 
   3   1 -12  126.91    9.68 
   3   1 -12  128.23    8.44 
   3   1 -12  127.99    7.23 
  -3  -1  12  116.62    7.03 
   2   1 -12  59.917   6.872 
   2   1 -12  59.877   4.983 
   2   1 -12  56.019   4.139 
  -2  -1  12  60.078   4.621 
  -2  -1  12  60.882   4.139 
   1   1 -12  6.1886  2.1299 
   1   1 -12  14.065   5.305 
   1   1 -12  5.2643  2.5317 
  -1  -1  12  9.1624  2.4915 
  -1  -1  12  6.5101  2.6925 
   0   1 -12  82.863   7.836 
   0   1 -12  79.970   5.104 
   0   1 -12  79.005   4.983 
   0   1 -12  77.840   5.505 
   0  -1  12  83.988   6.309 
   0  -1  12  77.157   4.621 
  -1   1 -12  140.81    8.44 
  -1   1 -12  143.54    9.36 
   1  -1  12  131.29    7.23 
   1  -1  12  127.27    8.12 
  -2   1 -12  59.716   5.264 
  -2   1 -12  69.240   4.099 
   2  -1  12  59.837   4.983 
   2  -1  12  67.794   5.988 
  -3   1 -12  36.449   4.059 
  -3   1 -12  35.725   3.617 
  -3   1 -12  28.894   3.416 
   3  -1  12  32.912   5.224 
   3  -1  12  32.309   3.818 
  -4   1 -12  37.172   4.420 
  -4   1 -12  34.158   4.501 
   4  -1  12  29.898   5.907 
   6   0 -12  20.615   8.560 
  -6   0  12  25.357   4.420 
   5   0 -12  -5.023   6.510 
  -5   0  12 -0.2009  2.9336 
   4   0 -12  109.91    7.27 
   4   0 -12  114.17   10.49 
   4   0 -12  114.53    8.00 
  -4   0  12  112.88    7.35 
   3   0 -12  0.4019  2.6925 
  -3   0  12  2.0897  2.5317 
   2   0 -12  132.65   11.69 
   2   0 -12  136.91    8.24 
   2   0 -12  126.02    8.80 
  -2   0  12  138.44    7.23 
  -2   0  12  142.06    8.56 
   1   0 -12  19.169   2.492 
   1   0 -12  24.634   3.456 
   1   0 -12  15.431   2.451 
   1   0 -12  27.728   5.988 
  -1   0  12  13.663   2.934 
  -1   0  12  18.727   2.733 
   0   0 -12  114.77    8.40 
   0   0 -12  134.98    7.76 
   0   0 -12  124.50    7.60 
   0   0 -12  128.39    8.32 
   0   0  12  119.51    7.55 
   0   0  12  129.56    7.07 
  -1   0 -12  8.3587  2.3308 
  -1   0 -12  6.3896  3.8177 
  -1   0 -12  14.668   2.652 
   1   0  12  9.9661  3.2952 
   1   0  12  12.699   2.492 
  -2   0 -12  138.92    8.20 
  -2   0 -12  128.72    8.16 
   2   0  12  136.47    7.96 
   2   0  12  131.33    9.81 
  -3   0 -12  44.204   4.179 
   3   0  12  31.023   4.139 
   3   0  12  39.101   5.144 
  -4   0 -12  6.2690  3.5765 
  -4   0 -12  12.217   4.179 
   4   0  12  11.091   5.224 
   6  -1 -12  46.415   8.479 
  -6   1  12  52.402   5.787 
  -6   1  12  47.339   5.385 
   5  -1 -12  47.058   8.278 
  -5   1  12  41.351   5.104 
   4  -1 -12  0.8841  5.1840 
  -4   1  12  -1.567   2.451 
   3  -1 -12  90.659   8.720 
  -3   1  12  91.302   6.189 
   2  -1 -12  -1.527   2.170 
   2  -1 -12  -1.005   2.009 
   2  -1 -12  4.4204  4.5812 
  -2   1  12  2.8130  2.4112 
  -2   1  12 -0.4420  2.2906 
   1  -1 -12  146.44   11.05 
   1  -1 -12  130.64    7.51 
   1  -1 -12  127.31    8.36 
   1  -1 -12  114.41    7.96 
  -1   1  12  148.93    8.68 
  -1   1  12  123.41    6.79 
   0  -1 -12  4.4606  1.7280 
   0  -1 -12  9.0418  2.2102 
   0  -1 -12  8.3587  3.5364 
   0  -1 -12  5.8270  2.9738 
   0   1  12  8.1175  3.0943 
   0   1  12  4.9429  2.2906 
  -1  -1 -12  114.57    7.31 
  -1  -1 -12  109.91    7.07 
   1   1  12  123.65    7.55 
   1   1  12  129.80    8.40 
  -2  -1 -12  2.2906  1.4869 
   2   1  12  5.6260  2.9336 
   2   1  12  4.7821  2.5317 
  -3  -1 -12  77.076   6.349 
   3   1  12  71.651   5.907 
   3   1  12  74.464   8.318 
  -4  -1 -12  -2.572   4.099 
  -4  -1 -12  1.2859  3.1747 
   4   1  12  3.8578  5.1438 
   6  -2 -12  13.020   8.318 
  -6   2  12  16.275   4.220 
  -6   2  12  15.753   4.581 
   5  -2 -12  5.5055  5.9475 
  -5   2  12  -1.165   3.416 
  -5   2  12  -4.019   3.335 
   4  -2 -12  22.343   5.546 
  -4   2  12  17.360   3.577 
   3  -2 -12  51.277   6.430 
  -3   2  12  54.974   4.541 
   2  -2 -12  77.760   7.997 
  -2   2  12  87.083   5.626 
  -2   2  12  83.104   5.264 
   1  -2 -12  251.52   17.84 
   1  -2 -12  243.53   13.34 
  -1   2  12  265.39   12.86 
  -1   2  12  270.69   14.71 
   0  -2 -12  58.310   5.144 
   0  -2 -12  59.113   6.229 
   0  -2 -12  47.781   5.706 
   0   2  12  53.487   4.662 
   0   2  12  57.787   4.742 
  -1  -2 -12  15.994   3.416 
   1   2  12  20.897   3.215 
   1   2  12  18.727   3.858 
  -2  -2 -12  101.83    7.60 
   2   2  12  98.054   8.519 
   2   2  12  97.853   6.510 
   2   2  12  89.012   6.751 
  -3  -2 -12  -6.068   3.737 
   3   2  12  -2.451   3.014 
   3   2  12  4.5812  3.6167 
   3   2  12  -1.889   4.702 
  -4  -2 -12  5.0232  4.5812 
   4   2  12  9.1624  5.6260 
   6  -3 -12  45.691   8.158 
  -6   3  12  35.243   5.305 
  -6   3  12  43.160   5.505 
   5  -3 -12  8.7605  7.0325 
  -5   3  12  22.384   3.938 
  -5   3  12  16.758   3.818 
   4  -3 -12  58.912   7.796 
  -4   3  12  67.432   5.144 
  -4   3  12  61.404   5.023 
   3  -3 -12  15.672   5.706 
  -3   3  12  5.9877  2.8532 
  -3   3  12  6.3494  2.4915 
   2  -3 -12  17.521   5.505 
  -2   3  12  22.142   3.456 
  -2   3  12  26.603   3.054 
  -2   3  12  27.969   3.376 
   1  -3 -12  413.19   25.28 
   1  -3 -12  395.63   26.64 
   1  -3 -12  404.91   23.47 
  -1   3  12  418.01   24.11 
  -1   3  12  426.61   19.41 
  -1   3  12  444.05   26.88 
   0  -3 -12  112.92   10.09 
   0  -3 -12  111.64    8.16 
   0   3  12  129.88    7.80 
   0   3  12  127.51    8.36 
   0   3  12  109.79    6.95 
  -1  -3 -12  9.2829  3.5364 
   1   3  12  14.186   4.019 
   1   3  12  16.356   2.974 
   1   3  12  13.101   3.054 
  -2  -3 -12  26.563   4.340 
   2   3  12  19.691   4.862 
   2   3  12  23.870   4.059 
   2   3  12  28.010   3.777 
  -3  -3 -12  4.5410  4.2999 
   3   3  12  5.9877  6.0279 
   3   3  12  0.2009  4.7419 
   5  -4 -12  44.888   8.640 
  -5   4  12  38.699   5.144 
  -5   4  12  45.691   5.144 
   4  -4 -12  19.771   6.390 
  -4   4  12  21.499   3.617 
  -4   4  12  22.625   3.657 
   3  -4 -12  96.205   9.323 
  -3   4  12  80.171   5.465 
  -3   4  12  87.002   6.349 
   2  -4 -12  20.615   3.536 
   2  -4 -12  22.584   5.907 
  -2   4  12  26.322   3.898 
  -2   4  12  27.166   3.617 
  -2   4  12  19.530   3.215 
   1  -4 -12  26.643   4.260 
   1  -4 -12  24.714   3.737 
   1  -4 -12  22.866   5.505 
  -1   4  12  23.629   3.456 
  -1   4  12  23.227   3.617 
  -1   4  12  23.790   3.858 
   0  -4 -12  9.8054  5.1840 
   0  -4 -12  14.145   3.737 
   0   4  12  17.561   3.456 
   0   4  12  14.105   3.416 
   0   4  12  11.774   3.376 
  -1  -4 -12  62.730   5.827 
   1   4  12  57.184   6.148 
   1   4  12  52.684   5.425 
   1   4  12  61.685   5.385 
  -2  -4 -12  0.5224  3.2551 
   2   4  12  7.8764  3.6971 
   2   4  12  1.6476  4.5008 
   2   4  12  3.0541  3.3756 
  -3  -4 -12  39.262   5.626 
   3   4  12  44.968   6.832 
   5  -5 -12  16.356   7.836 
  -5   5  12  21.057   4.420 
  -5   5  12  31.023   4.903 
   4  -5 -12  89.454  10.890 
  -4   5  12  73.862   7.033 
  -4   5  12  72.134   6.229 
   3  -5 -12  24.312   4.260 
   3  -5 -12  28.612   6.470 
  -3   5  12  16.999   3.978 
  -3   5  12  18.445   3.938 
   2  -5 -12  28.974   4.260 
   2  -5 -12  21.379   6.229 
  -2   5  12  27.527   4.099 
  -2   5  12  28.894   4.179 
  -2   5  12  23.308   3.938 
   1  -5 -12  -2.532   4.742 
   1  -5 -12  -2.451   3.295 
   1  -5 -12 -0.6430  4.0186 
  -1   5  12  1.2859  3.6569 
  -1   5  12  -3.175   3.456 
  -1   5  12 -0.9243  3.0139 
   0  -5 -12  201.41   13.78 
   0  -5 -12  208.44   15.43 
   0   5  12  208.60   14.27 
   0   5  12  221.34   12.74 
   0   5  12  223.39   17.88 
  -1  -5 -12 -0.0804  3.4560 
   1   5  12  -1.969   3.295 
   1   5  12  -1.688   3.456 
   1   5  12 -0.2009  4.1793 
  -2  -5 -12  54.050   6.229 
   2   5  12  43.561   4.782 
   2   5  12  52.523   7.073 
   2   5  12  39.985   5.224 
   5  -6 -12  4.4606  7.1531 
  -5   6  12  15.914   4.340 
  -5   6  12  8.3587  4.1391 
   4  -6 -12  39.623   4.983 
   4  -6 -12  40.467   8.318 
  -4   6  12  39.422   4.903 
  -4   6  12  31.827   4.501 
   3  -6 -12  17.441   4.501 
   3  -6 -12  21.499   6.832 
  -3   6  12  13.663   3.295 
  -3   6  12  16.436   4.179 
   2  -6 -12  8.3988  6.6307 
   2  -6 -12  31.305   4.742 
  -2   6  12  29.095   4.862 
  -2   6  12  15.351   3.938 
  -2   6  12  21.982   4.300 
   1  -6 -12  11.131   4.702 
   1  -6 -12  9.6044  5.7064 
   1  -6 -12  13.422   4.501 
  -1   6  12  17.200   3.737 
  -1   6  12  10.850   3.054 
  -1   6  12  9.6044  3.4560 
   0  -6 -12  4.2195  3.7775 
   0  -6 -12  2.6925  4.8223 
   0   6  12  4.9429  3.5364 
   0   6  12  3.8578  4.0990 
   0   6  12  2.8934  3.3756 
  -1  -6 -12  10.850   4.501 
   1   6  12  7.4746  3.8980 
   1   6  12  6.7914  3.4560 
   1   6  12  6.3494  4.8223 
   4  -7 -12  0.7233  4.3803 
   4  -7 -12  9.0820  7.3540 
  -4   7  12 -0.8841  3.3756 
  -4   7  12  -2.250   4.742 
   3  -7 -12  17.240   7.073 
   3  -7 -12  1.8887  4.7419 
  -3   7  12  6.9120  3.4158 
  -3   7  12  6.2288  4.2999 
   2  -7 -12  3.0541  4.2999 
   2  -7 -12  -3.134   6.952 
  -2   7  12  -4.581   3.858 
  -2   7  12  -2.934   3.175 
   1  -7 -12  38.659   5.787 
   1  -7 -12  40.065   7.274 
   1  -7 -12  47.259   7.153 
  -1   7  12  42.959   4.983 
  -1   7  12  51.358   6.550 
  -1   7  12  46.374   5.465 
   0  -7 -12  -5.224   5.224 
   0   7  12  3.2149  4.4204 
   0   7  12  -5.184   3.898 
   0   7  12  0.5224  5.1840 
   2  -8 -12  19.289   5.907 
   0  -8  13  71.250   7.113 
   0  -8  13  60.520   7.434 
   1  -8  13  0.5224  4.4606 
   1  -8  13 -0.3215  5.1036 
   2   7 -13  7.1129  6.9923 
  -2  -7  13  3.0943  3.7373 
   1   7 -13  24.272   6.832 
   1   7 -13  32.912   5.626 
   1   7 -13  30.421   5.345 
  -1  -7  13  36.368   5.666 
  -1  -7  13  29.416   4.260 
   0   7 -13  3.4962  4.2597 
   0   7 -13  -3.094   4.220 
   0  -7  13  3.7373  4.2195 
   0  -7  13  1.9289  3.7373 
  -1   7 -13  50.674   5.867 
  -1   7 -13  59.515   6.510 
   1  -7  13  50.232   5.546 
   1  -7  13  50.313   6.992 
  -2   7 -13  15.914   4.420 
  -2   7 -13  13.502   4.782 
   2  -7  13  11.774   4.782 
   2  -7  13  3.1747  5.0634 
   3   6 -13  88.409  11.252 
   2   6 -13  44.405   8.198 
   2   6 -13  36.127   5.305 
   2   6 -13  44.928   6.028 
  -2  -6  13  38.217   5.385 
   1   6 -13  40.708   5.867 
   1   6 -13  43.401   7.113 
   1   6 -13  35.886   5.666 
  -1  -6  13  47.660   5.626 
  -1  -6  13  29.778   4.702 
   0   6 -13  37.172   5.385 
   0   6 -13  50.634   5.827 
   0   6 -13  35.645   6.390 
   0  -6  13  51.438   5.706 
   0  -6  13  46.776   5.224 
  -1   6 -13  33.555   5.586 
  -1   6 -13  30.260   4.461 
   1  -6  13  29.456   4.099 
   1  -6  13  36.328   5.666 
  -2   6 -13  81.537   7.153 
  -2   6 -13  75.831   7.756 
   2  -6  13  87.203   6.832 
   2  -6  13  86.601   8.560 
  -3   6 -13 -0.5224  3.7775 
   3  -6  13  2.8532  4.1391 
   3  -6  13  1.7280  3.2551 
   3   5 -13  6.3494  4.0990 
   3   5 -13  2.2906  8.7605 
   3   5 -13  10.890   5.264 
  -3  -5  13  2.0495  3.3756 
   2   5 -13  116.06    7.43 
   2   5 -13  93.070  11.172 
   2   5 -13  105.05    9.12 
  -2  -5  13  110.79    8.08 
   1   5 -13  6.5503  3.5765 
   1   5 -13  0.2813  5.3045 
   1   5 -13  10.931   4.220 
  -1  -5  13  6.3896  3.5364 
  -1  -5  13  3.0943  3.3756 
   0   5 -13  89.574   7.475 
   0   5 -13  82.944   9.243 
   0   5 -13  82.662   6.711 
   0  -5  13  92.427   8.479 
   0  -5  13  90.860   6.349 
  -1   5 -13  13.904   3.737 
  -1   5 -13  16.235   4.702 
   1  -5  13  19.490   3.978 
  -2   5 -13  76.313   7.233 
  -2   5 -13  67.552   6.028 
   2  -5  13  68.115   6.872 
   2  -5  13  58.993   5.546 
  -3   5 -13  12.859   3.978 
   3  -5  13  11.413   3.818 
   3  -5  13  21.901   5.425 
   4   4 -13  5.7466  6.0279 
   4   4 -13  13.904   7.555 
   4   4 -13  13.744   5.023 
  -4  -4  13  1.3261  4.0990 
   3   4 -13  113.20    9.00 
   3   4 -13  125.46   12.10 
   3   4 -13  118.51    8.48 
  -3  -4  13  107.01    7.68 
   2   4 -13  -5.104   3.376 
   2   4 -13  4.1793  6.5101 
   2   4 -13  1.0046  4.7017 
  -2  -4  13 -0.1206  3.0541 
  -2  -4  13 -0.0402  5.9073 
   1   4 -13  120.84    8.72 
   1   4 -13  105.21    8.52 
   1   4 -13  124.62   10.49 
  -1  -4  13  123.57    8.60 
  -1  -4  13  127.27    7.51 
   0   4 -13  4.4606  3.2551 
   0   4 -13  0.8439  5.4251 
   0   4 -13  1.4467  3.2952 
   0  -4  13  3.0541  3.6569 
   0  -4  13  0.2009  2.7728 
  -1   4 -13  106.89    8.24 
  -1   4 -13  92.950   7.635 
   1  -4  13  107.18    7.84 
   1  -4  13  98.737   8.118 
  -2   4 -13  22.544   4.099 
   2  -4  13  11.011   3.657 
   2  -4  13  22.544   4.581 
  -3   4 -13  20.575   4.099 
   3  -4  13  22.866   4.099 
   3  -4  13  23.187   5.224 
   4   3 -13  14.105   7.595 
   4   3 -13  10.408   4.581 
  -4  -3  13  10.167   3.215 
   3   3 -13  52.443   5.626 
   3   3 -13  51.840   5.747 
   3   3 -13  61.484   8.841 
  -3  -3  13  61.886   5.505 
   2   3 -13  77.880   9.162 
   2   3 -13  77.318   5.305 
   2   3 -13  73.621   7.073 
  -2  -3  13  78.804   5.586 
  -2  -3  13  67.151   5.948 
   1   3 -13  28.773   6.189 
   1   3 -13  35.364   4.662 
   1   3 -13  29.456   4.059 
  -1  -3  13  24.996   3.094 
  -1  -3  13  29.255   3.858 
   0   3 -13  41.231   5.023 
   0   3 -13  37.735   4.621 
   0   3 -13  41.914   6.711 
   0  -3  13  45.089   4.501 
   0  -3  13  46.937   4.983 
  -1   3 -13  13.784   3.456 
  -1   3 -13  14.547   3.456 
   1  -3  13  20.374   4.220 
   1  -3  13  22.625   3.255 
  -2   3 -13  70.848   5.345 
   2  -3  13  75.630   6.872 
   2  -3  13  74.344   5.948 
  -3   3 -13  4.2195  3.4560 
   3  -3  13  -4.380   3.898 
   3  -3  13  -6.671   4.139 
   4  -3  13  12.779   5.706 
   4  -3  13  16.838   4.461 
   4   2 -13  84.832   8.238 
   4   2 -13  99.058  11.292 
   4   2 -13  84.431   7.796 
  -4  -2  13  86.962   7.153 
   3   2 -13  107.66    7.27 
   3   2 -13  115.65   10.77 
   3   2 -13  84.511   6.510 
  -3  -2  13  102.23    7.76 
   2   2 -13  51.197   4.662 
   2   2 -13  52.804   4.742 
   2   2 -13  41.070   7.274 
  -2  -2  13  43.119   4.019 
  -2  -2  13  47.259   4.822 
   1   2 -13  74.625   6.390 
   1   2 -13  68.035   4.702 
   1   2 -13  74.022   7.635 
  -1  -2  13  67.874   4.822 
  -1  -2  13  71.571   5.706 
   0   2 -13  17.119   4.662 
   0   2 -13  20.937   3.697 
   0   2 -13  24.674   3.456 
   0  -2  13  28.572   3.577 
   0  -2  13  28.090   4.059 
  -1   2 -13  147.20    9.68 
   1  -2  13  125.42    7.64 
   1  -2  13  134.86    9.56 
  -2   2 -13  62.569   5.104 
   2  -2  13  74.183   5.425 
   2  -2  13  59.596   6.550 
  -3   2 -13  10.609   3.536 
   3  -2  13  9.3633  3.3354 
   3  -2  13  10.328   4.501 
   4  -2  13  14.507   5.827 
   5   1 -13  42.075   9.886 
  -5  -1  13  45.450   6.349 
   4   1 -13  -1.567   6.671 
  -4  -1  13 -0.1607  3.1345 
   3   1 -13  70.486   6.148 
   3   1 -13  72.736   5.425 
   3   1 -13  81.457   9.645 
  -3  -1  13  73.178   5.988 
   2   1 -13  -1.165   2.813 
   2   1 -13 -0.2009  3.0943 
   2   1 -13  16.396   6.349 
  -2  -1  13  0.6028  2.6523 
  -2  -1  13  1.8485  2.6121 
   1   1 -13  67.593   7.314 
   1   1 -13  69.039   4.943 
   1   1 -13  71.450   6.349 
   1   1 -13  82.743   6.711 
  -1  -1  13  81.497   6.189 
  -1  -1  13  79.126   5.706 
   0   1 -13  -1.969   2.652 
   0   1 -13  1.7682  2.5719 
   0   1 -13  0.0402  4.9027 
   0   1 -13  7.2736  3.0139 
   0  -1  13  5.1438  3.0139 
   0  -1  13  -2.009   2.612 
  -1   1 -13  16.195   3.014 
  -1   1 -13  11.413   3.094 
   1  -1  13  13.623   3.657 
   1  -1  13  10.368   3.014 
  -2   1 -13 -0.4822  3.0541 
   2  -1  13  3.8980  4.0186 
   2  -1  13  2.4112  2.6925 
  -3   1 -13  99.259   7.475 
   3  -1  13  102.59    9.52 
   3  -1  13  109.75    7.51 
   5   0 -13  4.7821  6.7914 
   4   0 -13  86.801   9.966 
  -4   0  13  76.273   6.470 
   3   0 -13  13.623   5.948 
  -3   0  13  9.7250  2.7728 
   2   0 -13  156.77   15.95 
   2   0 -13  176.78   12.94 
  -2   0  13  160.06   11.01 
  -2   0  13  163.11    9.97 
   1   0 -13  29.738   5.505 
   1   0 -13  22.504   3.255 
   1   0 -13  23.308   3.335 
   1   0 -13  29.376   3.938 
  -1   0  13  23.911   3.416 
  -1   0  13  27.648   3.255 
   0   0 -13  7.3942  4.7821 
   0   0 -13  10.689   2.572 
   0   0 -13  10.408   3.175 
   0   0  13  11.131   3.054 
   0   0  13  6.6307  2.7728 
  -1   0 -13  14.949   2.733 
  -1   0 -13  16.275   3.858 
   1   0  13  15.793   3.617 
   1   0  13  14.909   3.175 
  -2   0 -13  155.60    9.68 
  -2   0 -13  162.35   10.49 
   2   0  13  173.20   10.89 
   2   0  13  164.24   12.10 
  -3   0 -13  -1.648   3.496 
   3   0  13  0.3215  4.6616 
   3   0  13  7.7559  3.5765 
   5  -1 -13  13.543   7.434 
  -5   1  13  0.2411  3.7775 
   4  -1 -13  28.492   6.510 
  -4   1  13  30.662   4.099 
   3  -1 -13  19.008   6.148 
  -3   1  13  19.249   3.577 
   2  -1 -13  32.510   6.309 
  -2   1  13  33.515   4.099 
  -2   1  13  33.113   3.777 
   1  -1 -13  15.954   6.068 
   1  -1 -13  5.7868  3.5364 
  -1   1  13  5.4251  3.3354 
  -1   1  13  10.649   2.853 
   0  -1 -13  130.12    8.28 
   0  -1 -13  112.24   10.45 
   0   1  13  113.97    6.87 
   0   1  13  129.16    8.48 
  -1  -1 -13  17.923   3.376 
   1   1  13  28.291   4.260 
   1   1  13  21.982   3.295 
  -2  -1 -13  30.501   4.220 
   2   1  13  25.518   3.496 
   2   1  13  36.489   5.305 
  -3  -1 -13  15.954   4.541 
   3   1  13  20.414   5.505 
   5  -2 -13  138.16   13.86 
  -5   2  13  157.69    9.64 
  -5   2  13  146.16   11.61 
   4  -2 -13  16.034   7.073 
  -4   2  13  3.9784  3.6167 
  -4   2  13  4.0186  2.8934 
   3  -2 -13  19.571   5.586 
  -3   2  13  17.320   2.853 
   2  -2 -13  7.4344  6.5101 
  -2   2  13  -5.063   2.853 
   1  -2 -13  5.0232  5.3045 
   1  -2 -13  10.288   4.260 
   1  -2 -13  10.770   3.978 
  -1   2  13  3.3354  3.3354 
  -1   2  13  9.9259  3.4560 
   0  -2 -13  6.0681  5.7466 
   0  -2 -13  15.873   4.059 
   0   2  13  2.9738  3.3756 
   0   2  13  8.0372  2.4915 
  -1  -2 -13  104.80    7.60 
   1   2  13  107.66    8.64 
   1   2  13  104.28    7.11 
  -2  -2 -13  11.453   4.340 
   2   2  13  5.3045  4.5410 
   2   2  13  8.5596  3.9382 
   2   2  13  6.8718  3.8578 
  -3  -2 -13  6.5101  4.6616 
   3   2  13  2.3710  5.5456 
   5  -3 -13  5.6260  7.6755 
  -5   3  13  -3.577   3.536 
  -5   3  13  12.297   4.059 
   4  -3 -13  11.855   7.033 
  -4   3  13  20.856   4.179 
  -4   3  13  21.098   4.019 
   3  -3 -13  27.568   7.716 
  -3   3  13  23.509   3.858 
  -3   3  13  28.291   3.898 
   2  -3 -13  31.586   7.033 
  -2   3  13  37.493   4.019 
  -2   3  13  36.167   4.139 
   1  -3 -13  169.46   14.59 
   1  -3 -13  165.41   11.45 
  -1   3  13  195.58   12.10 
  -1   3  13  186.26   10.49 
  -1   3  13  181.44   10.01 
   0  -3 -13  46.334   7.153 
   0  -3 -13  46.093   5.465 
   0   3  13  42.597   4.983 
   0   3  13  44.325   4.822 
   0   3  13  42.677   4.742 
  -1  -3 -13  0.5224  3.8980 
   1   3  13  -1.527   3.978 
   1   3  13  2.1700  3.5765 
   1   3  13  -2.291   3.255 
  -2  -3 -13  32.510   5.546 
   2   3  13  43.119   5.264 
   2   3  13  32.792   4.742 
   2   3  13  45.249   5.666 
   4  -4 -13  65.543  10.046 
  -4   4  13  73.500   6.952 
  -4   4  13  75.469   6.068 
   3  -4 -13  7.9166  7.3540 
  -3   4  13  9.0820  3.7775 
  -3   4  13  18.807   3.898 
   2  -4 -13  58.792   5.747 
   2  -4 -13  60.399   8.278 
  -2   4  13  54.050   5.586 
  -2   4  13  57.667   5.104 
   1  -4 -13  13.261   4.983 
   1  -4 -13  10.931   6.309 
  -1   4  13  13.221   4.059 
  -1   4  13  12.056   3.536 
  -1   4  13  9.8455  3.0943 
   0  -4 -13  4.8223  5.8270 
   0  -4 -13  7.4746  4.7017 
   0   4  13  14.266   3.496 
   0   4  13  7.1531  3.5364 
   0   4  13  11.413   4.260 
  -1  -4 -13  17.722   4.742 
   1   4  13  24.473   4.782 
   1   4  13  21.138   4.380 
   1   4  13  25.719   5.787 
  -2  -4 -13  1.2859  5.2242 
   2   4  13  10.328   3.376 
   2   4  13  9.7652  4.9429 
   4  -5 -13  -2.331   7.676 
  -4   5  13  -7.434   4.300 
  -4   5  13  0.0402  4.2195 
   3  -5 -13  37.212   5.747 
   3  -5 -13  24.594   7.595 
  -3   5  13  31.626   4.742 
  -3   5  13  40.829   5.264 
   2  -5 -13  6.5905  3.8177 
   2  -5 -13  11.614   6.550 
  -2   5  13  -2.210   4.099 
  -2   5  13  -3.858   3.577 
   1  -5 -13  102.72    8.32 
   1  -5 -13  100.06    9.56 
  -1   5  13  103.40    8.64 
  -1   5  13  111.72    8.28 
  -1   5  13  113.04    7.51 
   0  -5 -13  77.358   8.841 
   0  -5 -13  69.602   7.475 
   0   5  13  67.110   6.872 
   0   5  13  67.151   6.751 
   0   5  13  76.273   7.555 
  -1  -5 -13  1.0850  4.9830 
   1   5  13  4.1391  4.1391 
   1   5  13  2.5719  4.1793 
   1   5  13  5.4251  4.7419 
   3  -6 -13  3.5765  4.6214 
   3  -6 -13  -4.420   7.635 
  -3   6  13  -3.496   4.380 
  -3   6  13  6.3494  4.4204 
   2  -6 -13  29.255   5.706 
   2  -6 -13  45.732   8.318 
  -2   6  13  30.180   4.420 
  -2   6  13  34.922   4.822 
   1  -6 -13  1.8084  7.6353 
   1  -6 -13  12.900   6.068 
  -1   6  13  8.1979  4.3803 
  -1   6  13  12.819   4.702 
  -1   6  13  11.734   3.697 
   0  -6 -13  41.391   6.189 
   1   6 -14  2.3308  7.3942 
  -1  -6  14  12.056   5.144 
  -1  -6  14  14.829   4.581 
   0   6 -14  4.1793  4.5008 
   0   6 -14  1.9289  5.5055 
   0   6 -14  4.5410  5.2643 
   0  -6  14  7.6755  4.7821 
   0  -6  14  -1.286   4.220 
  -1   6 -14  74.183   7.274 
  -1   6 -14  64.338   7.756 
   1  -6  14  79.126   7.957 
   1  -6  14  71.571   6.349 
   2   5 -14  72.495   9.363 
   2   5 -14  57.144   7.073 
   2   5 -14  66.588   7.274 
  -2  -5  14  74.746   6.952 
   1   5 -14  45.892   8.399 
   1   5 -14  39.704   4.903 
   1   5 -14  39.382   6.229 
  -1  -5  14  49.147   6.390 
  -1  -5  14  44.446   5.144 
   0   5 -14  67.110   6.992 
   0   5 -14  70.446   8.680 
   0   5 -14  63.494   7.595 
   0  -5  14  76.353   7.515 
   0  -5  14  70.285   5.827 
  -1   5 -14  19.209   4.581 
  -1   5 -14  14.145   4.099 
   1  -5  14  16.396   5.345 
   1  -5  14  7.7559  3.5364 
  -2   5 -14  82.140   7.314 
   2  -5  14  76.192   8.479 
   2  -5  14  68.798   7.073 
   3   4 -14  3.1747  8.1175 
  -3  -4  14  6.0279  4.6616 
   2   4 -14  29.496   5.505 
   2   4 -14  31.385   8.359 
   2   4 -14  22.504   4.179 
  -2  -4  14  19.289   4.702 
   1   4 -14  9.3231  3.8980 
   1   4 -14  5.7466  4.7419 
   1   4 -14  1.0850  6.6307 
  -1  -4  14  9.5240  3.2551 
  -1  -4  14  5.2242  4.5812 
   0   4 -14  75.831   6.832 
   0   4 -14  65.222   9.203 
   0   4 -14  79.809   6.791 
   0  -4  14  81.336   7.515 
   0  -4  14  69.080   5.827 
  -1   4 -14  70.808   6.349 
  -1   4 -14  72.937   7.515 
   1  -4  14  67.191   5.827 
   1  -4  14  75.389   7.073 
  -2   4 -14  44.405   5.787 
   2  -4  14  54.251   6.711 
   2  -4  14  55.336   5.264 
   3   3 -14  8.3185  4.1391 
   3   3 -14  11.855   5.425 
   3   3 -14  22.946   8.318 
  -3  -3  14  15.391   3.617 
   2   3 -14  2.4513  4.5812 
   2   3 -14  5.3045  7.5549 
   2   3 -14  5.0634  3.3756 
   1   3 -14  76.835   6.550 
   1   3 -14  69.321   6.510 
   1   3 -14  78.845   9.403 
  -1  -3  14  76.554   5.706 
  -1  -3  14  64.056   6.671 
   0   3 -14  2.5317  2.9336 
   0   3 -14  -4.662   6.189 
   0   3 -14  0.4019  3.6569 
   0  -3  14  6.2690  3.1747 
   0  -3  14  5.8671  4.4606 
  -1   3 -14  53.367   5.385 
  -1   3 -14  55.497   5.063 
   1  -3  14  55.778   5.948 
   1  -3  14  45.048   6.189 
  -2   3 -14  9.2829  3.5765 
   2  -3  14  15.552   5.345 
   2  -3  14  12.498   4.019 
   3   2 -14  79.568   9.564 
   3   2 -14  74.625   7.716 
   3   2 -14  77.840   6.148 
  -3  -2  14  78.121   6.791 
   2   2 -14  99.661   7.394 
   2   2 -14  101.67   11.21 
   2   2 -14  90.981   7.515 
  -2  -2  14  105.65    6.83 
   1   2 -14  26.402   4.340 
   1   2 -14  32.269   4.139 
   1   2 -14  21.218   5.827 
  -1  -2  14  29.456   4.903 
  -1  -2  14  30.180   4.420 
   0   2 -14  46.817   5.465 
   0   2 -14  55.215   7.796 
   0   2 -14  53.849   5.023 
   0  -2  14  49.509   5.023 
   0  -2  14  55.135   6.349 
  -1   2 -14  5.1840  3.2952 
   1  -2  14  6.9522  4.2999 
   1  -2  14  7.0727  2.8532 
  -2   2 -14  46.455   4.943 
   2  -2  14  59.957   7.153 
   4   1 -14  34.118   9.886 
  -4  -1  14  36.288   4.662 
   3   1 -14  64.096  10.408 
  -3  -1  14  52.643   5.264 
   2   1 -14  21.540   6.390 
  -2  -1  14  28.411   3.737 
   1   1 -14  38.578   5.505 
   1   1 -14  40.025   7.756 
   1   1 -14  46.133   5.104 
  -1  -1  14  44.486   4.300 
   0   1 -14  19.289   6.631 
   0   1 -14  26.402   3.818 
   0   1 -14  23.469   3.737 
   0  -1  14  15.472   3.536 
   0  -1  14  19.691   4.179 
  -1   1 -14  53.487   5.305 
   1  -1  14  64.378   6.832 
   1  -1  14  63.052   5.747 
  -2   1 -14  2.4513  3.7775 
   2  -1  14  11.252   4.742 
   2  -1  14  -2.652   3.978 
   4   0 -14  -3.657   7.676 
  -4   0  14  3.6167  3.6971 
   3   0 -14  72.576   9.363 
  -3   0  14  62.449   5.666 
   2   0 -14  5.6662  6.8316 
  -2   0  14  0.4822  2.4112 
   1   0 -14  55.336   7.836 
  -1   0  14  48.987   4.943 
  -1   0  14  57.426   6.229 
   0   0 -14  0.2411  5.9475 
   0   0  14  4.2999  3.0943 
   0   0  14  3.8578  4.0990 
   1   0  14  87.404   6.791 
   1   0  14  83.868   8.359 
   2   0  14  2.5317  3.8177 
   2   0  14  10.167   5.184 
   4  -1 -14  60.038  11.252 
  -4   1  14  53.769   5.706 
   3  -1 -14  -2.009   7.394 
  -3   1  14  1.8485  3.3354 
   2  -1 -14  39.864   7.515 
  -2   1  14  44.365   4.380 
   1  -1 -14 -0.4420  6.5503 
   1  -1 -14  12.217   3.898 
  -1   1  14  9.4839  3.4962 
  -1   1  14  1.6074  2.7728 
   0  -1 -14  40.105   6.751 
   0  -1 -14  36.167   4.702 
   0   1  14  33.595   5.425 
   0   1  14  34.399   4.179 
  -1  -1 -14  0.4420  3.8980 
   1   1  14 -0.1206  4.1391 
   1   1  14  3.6167  3.6569 
  -2  -1 -14  83.587   7.555 
   2   1  14  73.500   5.586 
   2   1  14  66.990   8.600 
   4  -2 -14  23.187   9.283 
  -4   2  14  17.923   4.862 
  -4   2  14  22.866   4.742 
   3  -2 -14  33.073   7.997 
  -3   2  14  25.116   3.938 
   2  -2 -14  19.249   7.635 
  -2   2  14  20.254   3.416 
   1  -2 -14  6.3494  6.3896 
   1  -2 -14  1.0046  4.8223 
  -1   2  14  1.1654  3.4560 
  -1   2  14  0.9645  3.4158 
   0  -2 -14  21.339   4.903 
   0  -2 -14  11.774   7.676 
   0   2  14  19.852   4.742 
   0   2  14  21.218   4.019 
  -1  -2 -14  58.470   7.073 
   1   2  14  74.304   6.068 
   1   2  14  65.664   6.189 
   1   2  14  80.733   7.756 
   3  -3 -14  0.2813  7.4344 
  -3   3  14  5.4251  3.9382 
  -3   3  14  14.628   4.380 
   2  -3 -14  1.5271  6.8316 
  -2   3  14  0.8439  3.5364 
  -2   3  14  -5.706   3.175 
   1  -3 -14  43.762   5.907 
   1  -3 -14  26.322   7.434 
  -1   3  14  31.988   5.586 
  -1   3  14  27.849   4.621 
  -1   3  14  32.631   4.621 
   0  -3 -14  13.462   5.264 
   0  -3 -14  1.8084  7.0727 
   0   3  14  3.4962  4.9429 
   0   3  14  1.2458  3.8578 
   0   3  14  -1.286   4.059 
  -1  -3 -14  20.575   5.385 
   1   3  14  18.767   4.943 
   1   3  14  18.686   6.108 
   1   3  14  16.436   4.702 
   3  -4 -14  2.3308  4.9830 
   3  -4 -14  2.1700  6.8316 
  -3   4  14  3.2551  3.7373 
  -3   4  14  5.9475  4.0186 
   2  -4 -14  65.342   9.363 
  -2   4  14  56.421   5.948 
  -2   4  14  62.328   6.751 
   1  -4 -14  -1.366   5.706 
   1  -4 -14  6.0279  7.1531 
  -1   4  14  -2.371   4.139 
  -1   4  14  -2.692   4.702 
  -1   4  14  8.0774  4.1793 
   0  -4 -14  162.83   13.34 
   0  -4 -14  188.07   16.72 
   0   4  14  202.86   13.86 
   0   4  14  182.12   14.35 
   0   4  14  197.92   12.34 
   1   3 -15  18.807   5.988 
   1   3 -15  31.104   6.992 
  -1  -3  15  28.251   4.983 
   0   3 -15  6.2690  7.9166 
   0   3 -15  2.7326  5.0232 
   0   3 -15  6.7110  4.5410 
   0  -3  15  4.6214  3.4962 
   0  -3  15  11.212   5.104 
   2   2 -15  21.258   9.805 
   1   2 -15  53.929   9.765 
  -1  -2  15  46.214   5.144 
   0   2 -15  40.065   8.238 
   0   2 -15  36.328   7.595 
   0  -2  15  34.238   5.867 
   2   1 -15  117.74   13.30 
  -2  -1  15  132.37    9.40 
   1   1 -15  0.8439  6.7110 
  -1  -1  15  0.6028  3.0139 
   0   1 -15  94.437  10.730 
   0  -1  15  72.415   6.791 
   0  -1  15  88.047   9.283 
   2   0 -15  9.0820  8.8811 
  -2   0  15  -1.165   3.898 
   1   0 -15  16.115   8.077 
  -1   0  15  21.379   4.179 
   0   0 -15 -0.8439  7.4746 
   0   0  15  2.6121  3.6569 
   0   0  15  1.6878  4.3401 
   2  -1 -15  11.252   8.158 
  -2   1  15  7.3138  3.2551 
   1  -1 -15  29.175   8.198 
  -1   1  15  43.803   5.224 
   0  -1 -15  10.167   7.475 
   0   0   0    0.00    0.00   0 
; 
_shelx_hkl_checksum   83110 
 
