data_x17061 
 
_audit_creation_method            'SHELXL-2016/6' 
# CIF edited on-the-fly by script CIFFIX (S. Parkin, 2000-2016). 
# CIFFIX: http://xray.uky.edu/people/parkin/programs/ciffix 
_audit_update_record              ? 
 
_shelx_SHELXL_version_number      '2016/6' 
 
_publ_section_exptl_refinement 
; 
H atoms were found in difference Fourier maps, but subsequently included 
in the refinement using riding models, with constrained distances set to 
0.95 \%A (C~sp2~H), 0.98 \%A (RCH~3~) and 1.00 \%A (R~3~CH).  U~iso~(H) 
parameters were set to values of either 1.2U~eq~ or 1.5U~eq~ (RCH~3~ only) 
of the attached atom. 
; 
 
_publ_section_references 
; 
Bruker-AXS (2006). 
  <i>APEX2</i> Bruker-AXS Inc., Madison, WI, USA. 
 
Hope, H. (1994). 
  <i>Prog. Inorg. Chem.</i> <b>41</b>, 1--19. 
 
Krause, L., Herbst-Irmer, R., Sheldrick, G.M. & Stalke, D. (2015). 
  <i>J. Appl. Cryst.</i> <b>48</b>, 3--10. 
 
Parkin, S. & Hope, H. (1998). 
  <i>J. Appl. Cryst.</i> <b>31</b>, 945--953. 
 
Parkin, S. (2000). 
  <i>Acta Cryst.</i> A<b>56</b>, 157--162. 
 
Parkin, S. (2013). 
  <i>CIFFIX</i>, http://xray.uky.edu/people/parkin/programs/ciffix 
 
Sheldrick, G.M. (2008). 
  <i>Acta Cryst.</i> A<b>64</b>, 112--122. 
 
Sheldrick, G.M. (2015a). 
  <i>Acta Cryst.</i> A<b>71</b>, 3--8. 
 
Sheldrick, G.M. (2015b). 
  <i>Acta Cryst.</i> C<b>71</b>, 3--8. 
 
Spek, A.L. (2009). 
  <i>Acta Cryst.</i> D<b>65</b>, 148--155. 
; 
 
_publ_section_acknowledgements 
; 
The X8 Proteum diffractometer was funded by the NSF (MRI CHE0319176, 70%), 
and by the University of Kentucky (cost share, 30%). 
; 
 
_chemical_name_systematic         ? 
_chemical_name_common             ? 
_chemical_melting_point           ? 
_chemical_formula_moiety          'C44 H54 Ge2' 
_chemical_formula_sum             'C44 H54 Ge2' 
_chemical_formula_weight          728.05 
 
loop_ 
 _atom_type_symbol 
 _atom_type_description 
 _atom_type_scat_dispersion_real 
 _atom_type_scat_dispersion_imag 
 _atom_type_scat_source 
 'C'  'C'   0.0181   0.0091 
 'International Tables Vol C Tables 4.2.6.8 and 6.1.1.4' 
 'H'  'H'   0.0000   0.0000 
 'International Tables Vol C Tables 4.2.6.8 and 6.1.1.4' 
 'Ge'  'Ge'  -1.0885   0.8855 
 'International Tables Vol C Tables 4.2.6.8 and 6.1.1.4' 
 
_space_group_crystal_system       triclinic 
_space_group_IT_number            2 
_space_group_name_H-M_alt         'P -1' 
_space_group_name_Hall            '-P 1' 
 
_shelx_space_group_comment 
; 
The symmetry employed for this shelxl refinement is uniquely defined 
by the following loop, which should always be used as a source of 
symmetry information in preference to the above space-group names. 
They are only intended as comments. 
; 
 
loop_ 
 _space_group_symop_operation_xyz 
 'x, y, z' 
 '-x, -y, -z' 
 
_cell_length_a                    8.5753(2) 
_cell_length_b                    10.8951(2) 
_cell_length_c                    10.9628(2) 
_cell_angle_alpha                 67.029(1) 
_cell_angle_beta                  87.521(1) 
_cell_angle_gamma                 87.155(1) 
_cell_volume                      941.54(3) 
_cell_formula_units_Z             1 
_cell_measurement_temperature     180(2) 
_cell_measurement_reflns_used     7772 
_cell_measurement_theta_min       4.38 
_cell_measurement_theta_max       69.03 
 
_exptl_crystal_description        tablet 
_exptl_crystal_colour             blue 
_exptl_crystal_density_meas       ? 
_exptl_crystal_density_method     ? 
_exptl_crystal_density_diffrn     1.284 
_exptl_crystal_F_000              382 
_exptl_transmission_factor_min    ? 
_exptl_transmission_factor_max    ? 
_exptl_crystal_size_max           0.270 
_exptl_crystal_size_mid           0.200 
_exptl_crystal_size_min           0.060 
_exptl_absorpt_coefficient_mu     2.164 
_shelx_estimated_absorpt_T_min    0.593 
_shelx_estimated_absorpt_T_max    0.881 
_exptl_absorpt_correction_type    multi-scan 
_exptl_absorpt_correction_T_min   0.643 
_exptl_absorpt_correction_T_max   0.864 
_exptl_absorpt_process_details    '<i>SADABS</i> (Krause et al., 2015)' 
_exptl_absorpt_special_details 
; 
In addition to absorption, multi-scan techniques also correct other slowly 
varying changes in scale factor over reciprocal space, such as those caused 
by x-ray beam inhomogeneity, goniometer imperfection, crystal decomposition, 
crystal longer than the x-ray beam cross section, absorption by the crystal 
mount etc.  These account, by and large, for much of the difference between 
estimated values of Tmin and Tmax and the _exptl_absorpt_correction_ values. 
; 
 
_exptl_special_details 
; 
The crystal was mounted using polyisobutene oil on the tip of a fine glass 
fibre, which was fastened in a copper mounting pin with electrical solder. 
It was placed directly into the cold gas stream of a liquid-nitrogen based 
cryostat (Hope, 1994; Parkin & Hope, 1998). 
 
The crystals underwent a destructive phase transition when cooled to 90K. 
Visual inspection of crystal integrity and diffraction quality vs temperature 
established a safe temperature for data collection of -93\% C. 
; 
 
_diffrn_ambient_temperature       180(2) 
_diffrn_radiation_wavelength      1.54178 
_diffrn_radiation_type            CuK\a 
_diffrn_source                    'fine-focus rotating anode' 
_diffrn_measurement_device_type   'Bruker X8 Proteum diffractometer' 
_diffrn_measurement_method        '\f and \w scans' 
_diffrn_detector_area_resol_mean  5.6 
_diffrn_reflns_number             12743 
_diffrn_reflns_av_unetI/netI      0.0430 
_diffrn_reflns_av_R_equivalents   0.0497 
_diffrn_reflns_limit_h_min        -10 
_diffrn_reflns_limit_h_max        6 
_diffrn_reflns_limit_k_min        -13 
_diffrn_reflns_limit_k_max        13 
_diffrn_reflns_limit_l_min        -13 
_diffrn_reflns_limit_l_max        11 
_diffrn_reflns_theta_min          4.382 
_diffrn_reflns_theta_max          69.827 
_diffrn_reflns_theta_full         67.679 
_diffrn_measured_fraction_theta_max                0.963 
_diffrn_measured_fraction_theta_full               0.987 
_diffrn_reflns_Laue_measured_fraction_max          0.963 
_diffrn_reflns_Laue_measured_fraction_full         0.987 
_diffrn_reflns_point_group_measured_fraction_max   0.963 
_diffrn_reflns_point_group_measured_fraction_full  0.987 
 
_reflns_number_total              3432 
_reflns_number_gt                 3187 
_reflns_threshold_expression      'I > 2\s(I)' 
_reflns_Friedel_coverage          0.000 
_reflns_Friedel_fraction_max      . 
_reflns_Friedel_fraction_full     . 
_reflns_special_details 
; 
Reflections were merged by SHELXL according to the crystal 
class for the calculation of statistics and refinement. 
 
_reflns_Friedel_fraction is defined as the number of unique 
Friedel pairs measured divided by the number that would be 
possible theoretically, ignoring centric projections and 
systematic absences. 
; 
 
_computing_data_collection        '<i>APEX2</i> (Bruker-AXS, 2006)' 
_computing_cell_refinement        '<i>APEX2</i> (Bruker-AXS, 2006)' 
_computing_data_reduction         '<i>APEX2</i> (Bruker-AXS, 2006)' 
_computing_structure_solution     '<i>SHELXT</i> (Sheldrick, 2015a)' 
_computing_structure_refinement   '<i>SHELXL-2016/6</i> (Sheldrick, 2015b)' 
_computing_molecular_graphics     '<i>XP in SHELXTL</i> (Sheldrick, 2008)' 
_computing_publication_material 
'<i>SHELX</i> (Sheldrick, 2008) and <i>CIFFIX</i> (Parkin, 2013)' 
 
_refine_special_details 
; 
Refinement progress was checked using <i>Platon</i> (Spek, 2009) and by 
an <i>R</i>-tensor (Parkin, 2000). The final model was further checked 
with the IUCr utility <i>checkCIF</i>. 
; 
_refine_ls_structure_factor_coef  Fsqd 
_refine_ls_matrix_type            full 
_refine_ls_weighting_scheme       calc 
_refine_ls_weighting_details 
'w=1/[\s^2^(Fo^2^)+(0.0464P)^2^+0.5672P] where P=(Fo^2^+2Fc^2^)/3' 
_atom_sites_solution_primary      direct 
_atom_sites_solution_secondary    difmap 
_atom_sites_solution_hydrogens    difmap 
_refine_ls_hydrogen_treatment     constr 
_refine_ls_extinction_method      none 
_refine_ls_extinction_coef        . 
_refine_ls_number_reflns          3432 
_refine_ls_number_parameters      214 
_refine_ls_number_restraints      0 
_refine_ls_R_factor_all           0.0382 
_refine_ls_R_factor_gt            0.0354 
_refine_ls_wR_factor_ref          0.0923 
_refine_ls_wR_factor_gt           0.0906 
_refine_ls_goodness_of_fit_ref    1.049 
_refine_ls_restrained_S_all       1.049 
_refine_ls_shift/su_max           0.001 
_refine_ls_shift/su_mean          0.000 
 
loop_ 
 _atom_site_label 
 _atom_site_type_symbol 
 _atom_site_fract_x 
 _atom_site_fract_y 
 _atom_site_fract_z 
 _atom_site_U_iso_or_equiv 
 _atom_site_adp_type 
 _atom_site_occupancy 
 _atom_site_site_symmetry_order 
 _atom_site_calc_flag 
 _atom_site_refinement_flags_posn 
 _atom_site_refinement_flags_adp 
 _atom_site_refinement_flags_occupancy 
 _atom_site_disorder_assembly 
 _atom_site_disorder_group 
Ge1 Ge 0.71586(3) 0.17429(2) 0.68998(2) 0.02225(11) Uani 1 1 d . . . . . 
C1 C 0.5510(3) 0.4159(2) 0.9326(2) 0.0217(5) Uani 1 1 d . . . . . 
C2 C 0.4016(3) 0.4805(2) 0.9086(2) 0.0210(4) Uani 1 1 d . . . . . 
C3 C 0.3002(3) 0.4628(2) 0.8190(2) 0.0246(5) Uani 1 1 d . . . . . 
H3 H 0.333376 0.406081 0.774698 0.030 Uiso 1 1 calc R U . . . 
C4 C 0.1542(3) 0.5256(2) 0.7939(2) 0.0248(5) Uani 1 1 d . . . . . 
C5 C 0.0521(3) 0.5096(3) 0.7017(3) 0.0309(5) Uani 1 1 d . . . . . 
H5 H 0.085063 0.454187 0.655946 0.037 Uiso 1 1 calc R U . . . 
C6 C -0.0903(3) 0.5718(3) 0.6785(3) 0.0357(6) Uani 1 1 d . . . . . 
H6 H -0.156140 0.559467 0.616944 0.043 Uiso 1 1 calc R U . . . 
C7 C -0.1428(3) 0.6558(3) 0.7454(3) 0.0370(6) Uani 1 1 d . . . . . 
H7 H -0.243497 0.698391 0.728976 0.044 Uiso 1 1 calc R U . . . 
C8 C -0.0489(3) 0.6751(3) 0.8329(3) 0.0323(6) Uani 1 1 d . . . . . 
H8 H -0.084906 0.731421 0.876758 0.039 Uiso 1 1 calc R U . . . 
C9 C 0.1027(3) 0.6120(2) 0.8597(2) 0.0252(5) Uani 1 1 d . . . . . 
C10 C 0.2007(3) 0.6299(2) 0.9488(2) 0.0251(5) Uani 1 1 d . . . . . 
H10 H 0.166384 0.686437 0.992851 0.030 Uiso 1 1 calc R U . . . 
C11 C 0.3495(3) 0.5664(2) 0.9752(2) 0.0211(4) Uani 1 1 d . . . . . 
C12 C 0.6031(3) 0.3345(2) 0.8621(2) 0.0227(5) Uani 1 1 d . . . . . 
C13 C 0.6454(3) 0.2689(2) 0.7998(2) 0.0253(5) Uani 1 1 d . . . . . 
C14 C 0.9460(3) 0.1816(3) 0.6765(3) 0.0307(5) Uani 1 1 d . . . . . 
H14 H 0.970697 0.274120 0.614003 0.037 Uiso 1 1 calc R U . . . 
C15 C 1.0224(3) 0.1596(3) 0.8078(3) 0.0428(7) Uani 1 1 d . . . . . 
H15A H 1.012718 0.066358 0.868852 0.064 Uiso 1 1 calc R U . . . 
H15B H 0.970036 0.218028 0.847062 0.064 Uiso 1 1 calc R U . . . 
H15C H 1.133079 0.180490 0.791245 0.064 Uiso 1 1 calc R U . . . 
C16 C 1.0184(3) 0.0879(4) 0.6149(4) 0.0521(8) Uani 1 1 d . . . . . 
H16A H 1.131622 0.098771 0.604448 0.078 Uiso 1 1 calc R U . . . 
H16B H 0.973536 0.109241 0.528020 0.078 Uiso 1 1 calc R U . . . 
H16C H 0.996735 -0.004485 0.672768 0.078 Uiso 1 1 calc R U . . . 
C17 C 0.6412(3) -0.0090(2) 0.7756(3) 0.0318(6) Uani 1 1 d . . . . . 
H17 H 0.686063 -0.061585 0.724471 0.038 Uiso 1 1 calc R U . . . 
C18 C 0.6989(4) -0.0752(3) 0.9176(3) 0.0446(7) Uani 1 1 d . . . . . 
H18A H 0.660807 -0.022556 0.968440 0.067 Uiso 1 1 calc R U . . . 
H18B H 0.813329 -0.079808 0.916182 0.067 Uiso 1 1 calc R U . . . 
H18C H 0.659403 -0.165494 0.959180 0.067 Uiso 1 1 calc R U . . . 
C19 C 0.4634(3) -0.0114(3) 0.7740(3) 0.0438(7) Uani 1 1 d . . . . . 
H19A H 0.429697 -0.102759 0.822867 0.066 Uiso 1 1 calc R U . . . 
H19B H 0.429603 0.020225 0.682182 0.066 Uiso 1 1 calc R U . . . 
H19C H 0.416743 0.046851 0.815930 0.066 Uiso 1 1 calc R U . . . 
C20 C 0.6279(3) 0.2740(2) 0.5135(2) 0.0297(5) Uani 1 1 d . . . . . 
H20 H 0.694530 0.352787 0.468754 0.036 Uiso 1 1 calc R U . . . 
C21 C 0.6389(4) 0.1932(3) 0.4270(3) 0.0483(8) Uani 1 1 d . . . . . 
H21A H 0.577304 0.113229 0.468231 0.072 Uiso 1 1 calc R U . . . 
H21B H 0.748333 0.166835 0.417716 0.072 Uiso 1 1 calc R U . . . 
H21C H 0.598286 0.247516 0.339284 0.072 Uiso 1 1 calc R U . . . 
C22 C 0.4620(3) 0.3289(3) 0.5175(3) 0.0458(7) Uani 1 1 d . . . . . 
H22A H 0.433332 0.390665 0.428345 0.069 Uiso 1 1 calc R U . . . 
H22B H 0.455792 0.376146 0.577583 0.069 Uiso 1 1 calc R U . . . 
H22C H 0.389950 0.255131 0.549320 0.069 Uiso 1 1 calc R U . . . 
 
loop_ 
 _atom_site_aniso_label 
 _atom_site_aniso_U_11 
 _atom_site_aniso_U_22 
 _atom_site_aniso_U_33 
 _atom_site_aniso_U_23 
 _atom_site_aniso_U_13 
 _atom_site_aniso_U_12 
Ge1 0.02765(17) 0.02262(17) 0.02341(17) -0.01654(12) 0.00108(11) -0.00201(11) 
C1 0.0272(11) 0.0201(11) 0.0226(11) -0.0136(9) 0.0033(9) -0.0051(9) 
C2 0.0247(11) 0.0196(11) 0.0224(11) -0.0122(9) 0.0036(9) -0.0046(8) 
C3 0.0299(12) 0.0243(12) 0.0264(12) -0.0167(10) 0.0003(9) -0.0056(9) 
C4 0.0277(12) 0.0228(11) 0.0266(12) -0.012(1) 0.0000(9) -0.0068(9) 
C5 0.0324(13) 0.0327(13) 0.0341(13) -0.0190(11) -0.0029(10) -0.0075(10) 
C6 0.0338(14) 0.0383(15) 0.0386(14) -0.0174(12) -0.0091(11) -0.0067(11) 
C7 0.0276(13) 0.0392(15) 0.0435(16) -0.0150(13) -0.0071(11) 0.0007(11) 
C8 0.0310(13) 0.0317(14) 0.0378(14) -0.0177(12) -0.0011(11) 0.0007(10) 
C9 0.0259(12) 0.0257(12) 0.0262(12) -0.0123(10) 0.0024(9) -0.0045(9) 
C10 0.0273(12) 0.0257(12) 0.0276(12) -0.0165(10) 0.0030(9) -0.0018(9) 
C11 0.0259(11) 0.0206(11) 0.0213(11) -0.0128(9) 0.0031(9) -0.0058(8) 
C12 0.0244(11) 0.0249(11) 0.0239(11) -0.0149(10) -0.0005(9) -0.0031(9) 
C13 0.0271(12) 0.0277(12) 0.0273(12) -0.0172(10) -0.0020(9) -0.0014(9) 
C14 0.0324(13) 0.0319(14) 0.0331(13) -0.0187(11) 0.0029(10) -0.0021(10) 
C15 0.0380(15) 0.0509(18) 0.0430(16) -0.0214(14) -0.0088(13) -0.0013(12) 
C16 0.0340(15) 0.070(2) 0.075(2) -0.0540(19) 0.0086(14) -0.0003(14) 
C17 0.0441(14) 0.0240(12) 0.0343(13) -0.0193(11) 0.0105(11) -0.0075(10) 
C18 0.0547(18) 0.0339(15) 0.0392(16) -0.0086(13) 0.0041(13) -0.0003(12) 
C19 0.0457(16) 0.0492(18) 0.0434(16) -0.0245(14) 0.0065(13) -0.0160(13) 
C20 0.0371(14) 0.0308(13) 0.0246(12) -0.0137(10) -0.0015(10) -0.0073(10) 
C21 0.076(2) 0.0467(17) 0.0310(14) -0.0244(14) -0.0046(14) -0.0063(15) 
C22 0.0437(16) 0.0539(18) 0.0409(16) -0.0191(14) -0.0116(13) 0.0015(13) 
 
_geom_special_details 
; 
 All esds (except the esd in the dihedral angle between two l.s. planes) 
 are estimated using the full covariance matrix.  The cell esds are taken 
 into account individually in the estimation of esds in distances, angles 
 and torsion angles; correlations between esds in cell parameters are only 
 used when they are defined by crystal symmetry.  An approximate (isotropic) 
 treatment of cell esds is used for estimating esds involving l.s. planes. 
; 
 
loop_ 
 _geom_bond_atom_site_label_1 
 _geom_bond_atom_site_label_2 
 _geom_bond_distance 
 _geom_bond_site_symmetry_2 
 _geom_bond_publ_flag 
Ge1 C13 1.929(2) . ? 
Ge1 C17 1.972(2) . ? 
Ge1 C20 1.974(2) . ? 
Ge1 C14 1.976(2) . ? 
C1 C2 1.415(3) . ? 
C1 C11 1.425(3) 2_667 ? 
C1 C12 1.431(3) . ? 
C2 C3 1.413(3) . ? 
C2 C11 1.440(3) . ? 
C3 C4 1.382(3) . ? 
C3 H3 0.9500 . ? 
C4 C5 1.431(3) . ? 
C4 C9 1.437(3) . ? 
C5 C6 1.351(4) . ? 
C5 H5 0.9500 . ? 
C6 C7 1.426(4) . ? 
C6 H6 0.9500 . ? 
C7 C8 1.361(4) . ? 
C7 H7 0.9500 . ? 
C8 C9 1.426(3) . ? 
C8 H8 0.9500 . ? 
C9 C10 1.390(3) . ? 
C10 C11 1.406(3) . ? 
C10 H10 0.9500 . ? 
C12 C13 1.201(3) . ? 
C14 C16 1.524(3) . ? 
C14 C15 1.534(4) . ? 
C14 H14 1.0000 . ? 
C15 H15A 0.9800 . ? 
C15 H15B 0.9800 . ? 
C15 H15C 0.9800 . ? 
C16 H16A 0.9800 . ? 
C16 H16B 0.9800 . ? 
C16 H16C 0.9800 . ? 
C17 C19 1.528(4) . ? 
C17 C18 1.531(4) . ? 
C17 H17 1.0000 . ? 
C18 H18A 0.9800 . ? 
C18 H18B 0.9800 . ? 
C18 H18C 0.9800 . ? 
C19 H19A 0.9800 . ? 
C19 H19B 0.9800 . ? 
C19 H19C 0.9800 . ? 
C20 C22 1.522(4) . ? 
C20 C21 1.522(3) . ? 
C20 H20 1.0000 . ? 
C21 H21A 0.9800 . ? 
C21 H21B 0.9800 . ? 
C21 H21C 0.9800 . ? 
C22 H22A 0.9800 . ? 
C22 H22B 0.9800 . ? 
C22 H22C 0.9800 . ? 
 
loop_ 
 _geom_angle_atom_site_label_1 
 _geom_angle_atom_site_label_2 
 _geom_angle_atom_site_label_3 
 _geom_angle 
 _geom_angle_site_symmetry_1 
 _geom_angle_site_symmetry_3 
 _geom_angle_publ_flag 
C13 Ge1 C17 107.33(10) . . ? 
C13 Ge1 C20 106.52(10) . . ? 
C17 Ge1 C20 113.18(10) . . ? 
C13 Ge1 C14 106.86(10) . . ? 
C17 Ge1 C14 113.12(11) . . ? 
C20 Ge1 C14 109.40(11) . . ? 
C2 C1 C11 120.2(2) . 2_667 ? 
C2 C1 C12 119.7(2) . . ? 
C11 C1 C12 120.1(2) 2_667 . ? 
C3 C2 C1 121.1(2) . . ? 
C3 C2 C11 118.4(2) . . ? 
C1 C2 C11 120.5(2) . . ? 
C4 C3 C2 121.9(2) . . ? 
C4 C3 H3 119.1 . . ? 
C2 C3 H3 119.1 . . ? 
C3 C4 C5 122.0(2) . . ? 
C3 C4 C9 119.7(2) . . ? 
C5 C4 C9 118.2(2) . . ? 
C6 C5 C4 121.2(2) . . ? 
C6 C5 H5 119.4 . . ? 
C4 C5 H5 119.4 . . ? 
C5 C6 C7 120.6(2) . . ? 
C5 C6 H6 119.7 . . ? 
C7 C6 H6 119.7 . . ? 
C8 C7 C6 120.2(2) . . ? 
C8 C7 H7 119.9 . . ? 
C6 C7 H7 119.9 . . ? 
C7 C8 C9 121.1(2) . . ? 
C7 C8 H8 119.5 . . ? 
C9 C8 H8 119.5 . . ? 
C10 C9 C8 122.2(2) . . ? 
C10 C9 C4 119.1(2) . . ? 
C8 C9 C4 118.7(2) . . ? 
C9 C10 C11 121.7(2) . . ? 
C9 C10 H10 119.1 . . ? 
C11 C10 H10 119.1 . . ? 
C10 C11 C1 121.5(2) . 2_667 ? 
C10 C11 C2 119.19(19) . . ? 
C1 C11 C2 119.3(2) 2_667 . ? 
C13 C12 C1 178.2(3) . . ? 
C12 C13 Ge1 176.2(2) . . ? 
C16 C14 C15 111.4(2) . . ? 
C16 C14 Ge1 111.90(17) . . ? 
C15 C14 Ge1 113.67(18) . . ? 
C16 C14 H14 106.5 . . ? 
C15 C14 H14 106.5 . . ? 
Ge1 C14 H14 106.5 . . ? 
C14 C15 H15A 109.5 . . ? 
C14 C15 H15B 109.5 . . ? 
H15A C15 H15B 109.5 . . ? 
C14 C15 H15C 109.5 . . ? 
H15A C15 H15C 109.5 . . ? 
H15B C15 H15C 109.5 . . ? 
C14 C16 H16A 109.5 . . ? 
C14 C16 H16B 109.5 . . ? 
H16A C16 H16B 109.5 . . ? 
C14 C16 H16C 109.5 . . ? 
H16A C16 H16C 109.5 . . ? 
H16B C16 H16C 109.5 . . ? 
C19 C17 C18 110.6(2) . . ? 
C19 C17 Ge1 111.54(19) . . ? 
C18 C17 Ge1 110.50(18) . . ? 
C19 C17 H17 108.0 . . ? 
C18 C17 H17 108.0 . . ? 
Ge1 C17 H17 108.0 . . ? 
C17 C18 H18A 109.5 . . ? 
C17 C18 H18B 109.5 . . ? 
H18A C18 H18B 109.5 . . ? 
C17 C18 H18C 109.5 . . ? 
H18A C18 H18C 109.5 . . ? 
H18B C18 H18C 109.5 . . ? 
C17 C19 H19A 109.5 . . ? 
C17 C19 H19B 109.5 . . ? 
H19A C19 H19B 109.5 . . ? 
C17 C19 H19C 109.5 . . ? 
H19A C19 H19C 109.5 . . ? 
H19B C19 H19C 109.5 . . ? 
C22 C20 C21 110.6(2) . . ? 
C22 C20 Ge1 114.00(18) . . ? 
C21 C20 Ge1 112.13(18) . . ? 
C22 C20 H20 106.5 . . ? 
C21 C20 H20 106.5 . . ? 
Ge1 C20 H20 106.5 . . ? 
C20 C21 H21A 109.5 . . ? 
C20 C21 H21B 109.5 . . ? 
H21A C21 H21B 109.5 . . ? 
C20 C21 H21C 109.5 . . ? 
H21A C21 H21C 109.5 . . ? 
H21B C21 H21C 109.5 . . ? 
C20 C22 H22A 109.5 . . ? 
C20 C22 H22B 109.5 . . ? 
H22A C22 H22B 109.5 . . ? 
C20 C22 H22C 109.5 . . ? 
H22A C22 H22C 109.5 . . ? 
H22B C22 H22C 109.5 . . ? 
 
loop_ 
 _geom_torsion_atom_site_label_1 
 _geom_torsion_atom_site_label_2 
 _geom_torsion_atom_site_label_3 
 _geom_torsion_atom_site_label_4 
 _geom_torsion 
 _geom_torsion_site_symmetry_1 
 _geom_torsion_site_symmetry_2 
 _geom_torsion_site_symmetry_3 
 _geom_torsion_site_symmetry_4 
 _geom_torsion_publ_flag 
C11 C1 C2 C3 -179.1(2) 2_667 . . . ? 
C12 C1 C2 C3 2.0(3) . . . . ? 
C11 C1 C2 C11 1.0(4) 2_667 . . . ? 
C12 C1 C2 C11 -177.9(2) . . . . ? 
C1 C2 C3 C4 -179.7(2) . . . . ? 
C11 C2 C3 C4 0.2(3) . . . . ? 
C2 C3 C4 C5 179.0(2) . . . . ? 
C2 C3 C4 C9 0.2(4) . . . . ? 
C3 C4 C5 C6 180.0(2) . . . . ? 
C9 C4 C5 C6 -1.2(4) . . . . ? 
C4 C5 C6 C7 0.1(4) . . . . ? 
C5 C6 C7 C8 0.6(4) . . . . ? 
C6 C7 C8 C9 -0.2(4) . . . . ? 
C7 C8 C9 C10 -179.9(2) . . . . ? 
C7 C8 C9 C4 -0.9(4) . . . . ? 
C3 C4 C9 C10 -0.5(3) . . . . ? 
C5 C4 C9 C10 -179.4(2) . . . . ? 
C3 C4 C9 C8 -179.6(2) . . . . ? 
C5 C4 C9 C8 1.5(3) . . . . ? 
C8 C9 C10 C11 179.5(2) . . . . ? 
C4 C9 C10 C11 0.5(3) . . . . ? 
C9 C10 C11 C1 -179.4(2) . . . 2_667 ? 
C9 C10 C11 C2 -0.1(3) . . . . ? 
C3 C2 C11 C10 -0.3(3) . . . . ? 
C1 C2 C11 C10 179.6(2) . . . . ? 
C3 C2 C11 C1 179.1(2) . . . 2_667 ? 
C1 C2 C11 C1 -1.0(3) . . . 2_667 ? 
 
_refine_diff_density_max    0.658 
_refine_diff_density_min   -0.502 
_refine_diff_density_rms    0.068 
 
_shelx_res_file 
; 
TITL x17061 : space group P1bar 
    x17061.res 
    created by SHELXL-2016/6 at 19:38:28 on 05-Mar-2017 
CELL  1.54178   8.5753  10.8951  10.9628   67.029   87.521   87.155 
ZERR    1.000   0.0002   0.0002   0.0002    0.001    0.001    0.001 
LATT  1 
SFAC C H GE 
UNIT 44 54 2 
TEMP -93 
SIZE 0.27 0.20 0.06 
REM COLR blue 
REM FORM tablet 
L.S. 10 
BOND $H 
ACTA 
LIST 4 
HTAB 
CONF 
FMAP 2 
PLAN -5 
REM EXTI    0.000000 - not needed. 
WGHT    0.046400    0.567200 
FVAR       0.50283 
GE1   3    0.715864    0.174294    0.689984    11.00000    0.02765    0.02262 = 
         0.02341   -0.01654    0.00108   -0.00201 
C1    1    0.551024    0.415922    0.932577    11.00000    0.02725    0.02013 = 
         0.02257   -0.01355    0.00334   -0.00512 
C2    1    0.401604    0.480481    0.908571    11.00000    0.02473    0.01963 = 
         0.02239   -0.01219    0.00365   -0.00457 
C3    1    0.300233    0.462786    0.818957    11.00000    0.02986    0.02433 = 
         0.02635   -0.01670    0.00027   -0.00561 
AFIX  43 
H3    2    0.333376    0.406081    0.774698    11.00000   -1.20000 
AFIX   0 
C4    1    0.154230    0.525640    0.793872    11.00000    0.02772    0.02281 = 
         0.02661   -0.01204    0.00001   -0.00682 
C5    1    0.052100    0.509593    0.701666    11.00000    0.03238    0.03270 = 
         0.03410   -0.01899   -0.00291   -0.00749 
AFIX  43 
H5    2    0.085063    0.454187    0.655946    11.00000   -1.20000 
AFIX   0 
C6    1   -0.090323    0.571796    0.678457    11.00000    0.03376    0.03826 = 
         0.03861   -0.01737   -0.00909   -0.00670 
AFIX  43 
H6    2   -0.156140    0.559467    0.616944    11.00000   -1.20000 
AFIX   0 
C7    1   -0.142764    0.655789    0.745446    11.00000    0.02761    0.03923 = 
         0.04355   -0.01504   -0.00709    0.00073 
AFIX  43 
H7    2   -0.243497    0.698391    0.728976    11.00000   -1.20000 
AFIX   0 
C8    1   -0.048904    0.675067    0.832883    11.00000    0.03098    0.03172 = 
         0.03782   -0.01766   -0.00105    0.00069 
AFIX  43 
H8    2   -0.084906    0.731421    0.876758    11.00000   -1.20000 
AFIX   0 
C9    1    0.102685    0.612023    0.859729    11.00000    0.02586    0.02571 = 
         0.02621   -0.01227    0.00239   -0.00454 
C10   1    0.200749    0.629874    0.948755    11.00000    0.02727    0.02568 = 
         0.02757   -0.01646    0.00300   -0.00183 
AFIX  43 
H10   2    0.166384    0.686437    0.992851    11.00000   -1.20000 
AFIX   0 
C11   1    0.349506    0.566363    0.975221    11.00000    0.02592    0.02062 = 
         0.02128   -0.01276    0.00306   -0.00584 
C12   1    0.603085    0.334539    0.862053    11.00000    0.02443    0.02489 = 
         0.02389   -0.01491   -0.00047   -0.00311 
C13   1    0.645373    0.268881    0.799788    11.00000    0.02709    0.02771 = 
         0.02728   -0.01717   -0.00203   -0.00135 
C14   1    0.946005    0.181599    0.676511    11.00000    0.03242    0.03190 = 
         0.03315   -0.01874    0.00293   -0.00206 
AFIX  13 
H14   2    0.970697    0.274120    0.614003    11.00000   -1.20000 
AFIX   0 
C15   1    1.022354    0.159635    0.807771    11.00000    0.03805    0.05090 = 
         0.04302   -0.02141   -0.00882   -0.00132 
AFIX 137 
H15A  2    1.012718    0.066358    0.868852    11.00000   -1.50000 
H15B  2    0.970036    0.218028    0.847062    11.00000   -1.50000 
H15C  2    1.133079    0.180490    0.791245    11.00000   -1.50000 
AFIX   0 
C16   1    1.018435    0.087926    0.614945    11.00000    0.03400    0.06957 = 
         0.07542   -0.05396    0.00860   -0.00025 
AFIX 137 
H16A  2    1.131622    0.098771    0.604448    11.00000   -1.50000 
H16B  2    0.973536    0.109241    0.528020    11.00000   -1.50000 
H16C  2    0.996735   -0.004485    0.672768    11.00000   -1.50000 
AFIX   0 
C17   1    0.641225   -0.008999    0.775576    11.00000    0.04409    0.02397 = 
         0.03431   -0.01930    0.01054   -0.00747 
AFIX  13 
H17   2    0.686063   -0.061585    0.724471    11.00000   -1.20000 
AFIX   0 
C18   1    0.698879   -0.075168    0.917626    11.00000    0.05470    0.03394 = 
         0.03917   -0.00855    0.00409   -0.00031 
AFIX 137 
H18A  2    0.660807   -0.022556    0.968440    11.00000   -1.50000 
H18B  2    0.813329   -0.079808    0.916182    11.00000   -1.50000 
H18C  2    0.659403   -0.165494    0.959180    11.00000   -1.50000 
AFIX   0 
C19   1    0.463380   -0.011384    0.773997    11.00000    0.04566    0.04925 = 
         0.04343   -0.02454    0.00654   -0.01601 
AFIX 137 
H19A  2    0.429697   -0.102759    0.822867    11.00000   -1.50000 
H19B  2    0.429603    0.020225    0.682182    11.00000   -1.50000 
H19C  2    0.416743    0.046851    0.815930    11.00000   -1.50000 
AFIX   0 
C20   1    0.627938    0.273951    0.513476    11.00000    0.03714    0.03078 = 
         0.02455   -0.01373   -0.00149   -0.00730 
AFIX  13 
H20   2    0.694530    0.352787    0.468754    11.00000   -1.20000 
AFIX   0 
C21   1    0.638946    0.193189    0.426972    11.00000    0.07638    0.04674 = 
         0.03097   -0.02436   -0.00456   -0.00634 
AFIX 137 
H21A  2    0.577304    0.113229    0.468231    11.00000   -1.50000 
H21B  2    0.748333    0.166835    0.417716    11.00000   -1.50000 
H21C  2    0.598286    0.247516    0.339284    11.00000   -1.50000 
AFIX   0 
C22   1    0.461981    0.328861    0.517543    11.00000    0.04369    0.05388 = 
         0.04094   -0.01907   -0.01161    0.00146 
AFIX 137 
H22A  2    0.433332    0.390665    0.428345    11.00000   -1.50000 
H22B  2    0.455792    0.376146    0.577583    11.00000   -1.50000 
H22C  2    0.389950    0.255131    0.549320    11.00000   -1.50000 
 
AFIX   0 
HKLF 4 
 
 
 
 
REM  x17061 : space group P1bar 
REM R1 =  0.0354 for    3187 Fo > 4sig(Fo)  and  0.0382 for all    3432 data 
REM    214 parameters refined using      0 restraints 
 
END 
 
WGHT      0.0464      0.5672 
 
REM No hydrogen bonds found for HTAB generation 
 
REM Highest difference peak  0.658,  deepest hole -0.502,  1-sigma level  0.068 
Q1    1   0.6694  0.0827  0.6843  11.00000  0.05    0.66 
Q2    1   0.7489  0.2514  0.7105  11.00000  0.05    0.58 
Q3    1   0.6574  0.2224  0.6056  11.00000  0.05    0.57 
Q4    1   0.7774  0.1198  0.7738  11.00000  0.05    0.38 
Q5    1   0.9753  0.1626  0.7424  11.00000  0.05    0.36 
; 
_shelx_res_checksum   34791 
 
_shelx_hkl_file
;
  -1   0   0 60.8338 4.16690   2
  -1   0   0 61.3749 4.18771   3
  -1   0   0 68.8694 4.19471   3
  -1   0   0 70.9832 5.92202   4
  -1   0   0 69.9728 4.24596   5
  -1   0   0 75.1371 4.29161   6
  -1   0   0 70.5629 4.04647   1
  -1   0   0 66.6599 4.15348   2
  -1   0   0 69.5043 4.04216   1
   1   0   0 69.9194 4.04732   1
   1   0   0 73.1480 4.04526   1
  -2   0   0 5.17032 0.39559   3
  -2   0   0 5.93976 0.41642   3
  -2   0   0 6.06650 0.89989   4
  -2   0   0 5.24229 0.55853   2
  -2   0   0 5.60620 0.39770   1
  -2   0   0 5.86107 0.41168   1
  -2   0   0 6.14049 0.73902   6
  -2   0   0 5.07946 0.53014   7
  -2   0   0 5.94140 0.72094   5
  -2   0   0 6.33793 0.50514   2
   2   0   0 6.52154 0.42390   1
   2   0   0 6.50115 0.42243   1
  -3   0   0 1330.06 75.5623   2
  -3   0   0 1153.37 73.7956   1
  -3   0   0 1249.79 73.7674   1
  -3   0   0 1192.53 75.3523   2
  -3   0   0 1352.17 76.6326   3
  -3   0   0 1365.33 76.1471   5
  -3   0   0 1304.38 76.7768   6
  -3   0   0 1126.37 76.5874   3
   3   0   0 1249.50 73.7328   1
   3   0   0 1268.82 73.7265   1
  -4   0   0 1.19154 0.18548   3
  -4   0   0 1.02579 0.19240   1
  -4   0   0 1.39495 0.34301   2
  -4   0   0 0.55704 0.36742   2
  -4   0   0 1.20317 0.68641   6
  -4   0   0 1.03943 0.16177   3
  -4   0   0 0.62035 0.62755   5
   4   0   0 1.15796 0.20381   1
  -5   0   0 153.983 9.95716   5
  -5   0   0 160.273 9.41370   2
  -5   0   0 154.719 9.45323   3
  -5   0   0 142.816 10.0352   6
  -6   0   0 1.73982 0.61931  10
  -6   0   0 2.31483 1.73931  12
  -6   0   0 0.72187 0.86562   5
  -6   0   0 -0.0478 1.91902  14
  -6   0   0 1.43676 1.19439  15
  -6   0   0 0.88386 0.68058   6
  -6   0   0 2.69446 1.91609  13
  -7   0   0 112.975 9.65787  15
  -7   0   0 117.995 9.90192  13
  -7   0   0 114.867 8.93465  12
  -7   0   0 120.541 12.0446  14
  -7   0   0 104.139 7.97313   5
  -7   0   0 119.651 6.62003  10
  -8   0   0 8.84411 2.69558  15
  -8   0   0 7.82607 2.61720  12
  -8   0   0 5.84172 3.55572  14
  -8   0   0 5.98840 2.76056  13
  -8   0   0 5.40625 0.78928  10
  -9   0   0 71.0837 7.35430  13
  -9   0   0 77.4901 9.53228  14
  -9   0   0 70.8084 6.83792  15
 -10   0   0 2.10491 1.55466  13
 -10   0   0 0.30262 2.04050  14
 -10   1   0 60.2046 5.48823  15
  -9   1   0 0.93957 2.42148  15
  -9   1   0 0.55627 3.09645  14
  -9   1   0 0.18013 1.60614  13
  -8   1   0 22.4030 3.75262  13
  -8   1   0 23.0281 3.83379  15
  -8   1   0 17.3990 1.46764  10
  -8   1   0 19.1350 4.76393  14
  -7   1   0 80.7841 6.57711   5
  -7   1   0 95.4033 8.75984  13
  -7   1   0 93.8198 10.4389  14
  -7   1   0 93.9863 5.39302  10
  -7   1   0 85.2529 6.86083   6
  -7   1   0 93.2910 8.17172  15
  -7   1   0 102.405 7.68287  12
  -6   1   0 73.2938 6.72905  13
  -6   1   0 73.3698 6.72163  15
  -6   1   0 71.1971 4.34311  10
  -6   1   0 70.8818 8.26401  14
  -6   1   0 73.7629 5.37296   5
  -6   1   0 74.8618 6.49925  12
  -6   1   0 70.5696 5.50357   6
  -5   1   0 28.1258 2.74577   6
  -5   1   0 31.2440 2.02163   3
  -5   1   0 32.1004 2.16516   2
  -5   1   0 33.1969 2.69188   5
   4  -1   0 42.8606 2.72628   1
  -4   1   0 41.1434 2.81115   3
  -4   1   0 48.0611 2.93905   2
  -4   1   0 46.8914 3.40674   6
  -4   1   0 42.3039 2.98752   2
  -4   1   0 48.8382 3.31724   5
  -4   1   0 47.3826 2.83493   3
   3  -1   0 1001.99 55.9750   1
   3  -1   0 989.643 55.9818   1
  -3   1   0 858.526 57.2843   2
  -3   1   0 947.274 57.9157   5
  -3   1   0 952.417 55.9831   1
  -3   1   0 977.513 58.4438   6
  -3   1   0 892.089 55.9539   1
  -3   1   0 1040.27 57.2581   2
  -3   1   0 873.599 58.0810   3
  -3   1   0 1020.97 58.2844   3
   2  -1   0 435.809 23.4046   1
   2  -1   0 413.633 23.4039   1
  -2   1   0 351.207 24.2733   3
  -2   1   0 393.536 24.2817   3
  -2   1   0 400.048 23.3920   1
  -2   1   0 392.106 23.4053   1
  -2   1   0 434.995 23.9783   2
  -2   1   0 351.878 24.5054   7
  -2   1   0 401.047 24.2909   5
  -2   1   0 409.810 24.5151   6
   1  -1   0 2171.86 112.745   1
   1  -1   0 1709.66 116.899   3
   1  -1   0 2106.10 112.733   1
  -1   1   0 1819.24 115.987   5
  -1   1   0 1907.49 117.066   6
  -1   1   0 2102.88 115.335   2
  -1   1   0 2081.55 112.723   1
  -1   1   0 1691.84 116.925   3
  -1   1   0 1714.79 116.923   3
   0  -1   0 143.113 7.99683   1
   0  -1   0 128.421 8.20788   2
   0  -1   0 152.806 8.00333   1
   0  -1   0 126.021 8.30497   3
   0   1   0 145.840 8.00215   1
   0   1   0 128.102 8.23380   2
   0   1   0 120.845 8.29632   3
   0   1   0 142.396 7.99637   1
  -1  -1   0 935.794 56.4417   3
  -1  -1   0 864.446 55.3889   2
  -1  -1   0 804.576 56.2893   3
  -1  -1   0 905.436 54.3806   1
  -1  -1   0 982.055 78.2994   4
  -1  -1   0 833.135 55.8449   5
  -1  -1   0 952.509 55.4814   2
  -1  -1   0 970.378 54.3684   1
   1   1   0 1013.72 54.3818   1
   1   1   0 998.428 54.4153   1
  -2  -1   0 1156.72 74.9702   2
  -2  -1   0 1216.28 73.5056   1
  -2  -1   0 1284.11 73.5371   1
  -2  -1   0 1256.22 76.2120   6
  -2  -1   0 1216.54 75.6418   5
  -2  -1   0 1339.18 106.042   4
  -2  -1   0 1294.77 75.1203   2
  -2  -1   0 1114.11 76.2161   3
  -2  -1   0 1279.90 76.3063   3
   2   1   0 1305.36 73.5503   1
   2   1   0 1316.86 73.4465   1
  -3  -1   0 36.5405 2.49183   1
  -3  -1   0 40.8947 2.50293   1
  -3  -1   0 41.7681 2.82864   6
  -3  -1   0 43.8615 2.60153   3
  -3  -1   0 44.5140 2.89051   5
  -3  -1   0 39.9686 2.70905   2
  -3  -1   0 37.5439 2.56322   3
  -3  -1   0 50.0192 3.97737   4
  -3  -1   0 40.9828 2.65246   2
   3   1   0 42.6275 2.50474   1
   3   1   0 40.5453 2.52081   1
  -4  -1   0 977.115 54.0930   2
  -4  -1   0 941.118 55.2248   6
  -4  -1   0 801.351 54.8441   3
  -4  -1   0 843.328 52.8649   1
  -4  -1   0 988.236 54.9857   3
  -4  -1   0 1006.96 54.8503   5
  -4  -1   0 835.777 54.1398   2
   4   1   0 839.307 52.8820   1
  -5  -1   0 9.76955 0.72171   3
  -5  -1   0 9.77270 1.35879   5
  -5  -1   0 9.91154 0.83905   2
  -5  -1   0 9.07687 1.27665   6
  -6  -1   0 13.5107 2.38911  12
  -6  -1   0 12.1625 1.90366  11
  -6  -1   0 10.7711 3.16348  14
  -6  -1   0 9.82516 1.06680  10
  -6  -1   0 12.5610 2.69417  13
  -6  -1   0 8.21599 1.48765   5
  -6  -1   0 10.4417 2.18455  15
  -7  -1   0 4.44043 0.75564  10
  -7  -1   0 5.83203 1.85979  12
  -7  -1   0 6.64192 1.32230   5
  -7  -1   0 6.35623 3.24597  14
  -7  -1   0 5.76809 1.80768  15
  -7  -1   0 4.72451 2.34408  13
  -8  -1   0 47.8149 5.15978  12
  -8  -1   0 59.6825 8.41219  14
  -8  -1   0 54.4981 6.45779  13
  -8  -1   0 54.5878 3.27496  10
  -9  -1   0 26.6267 5.17596  14
  -9  -1   0 31.9090 4.38089  13
 -10  -1   0 11.6986 2.45096  13
 -10  -1   0 30.1365 4.46266  14
 -10   2   0 11.8085 2.63716  14
  -9   2   0 35.2198 4.58452  13
  -9   2   0 36.3418 5.75475  14
  -9   2   0 55.5969 5.58890  15
  -8   2   0 96.5697 10.8598  14
  -8   2   0 95.2207 9.03346  13
  -8   2   0 90.4639 5.36494  10
  -8   2   0 94.8582 8.52661  15
  -7   2   0 7.81612 2.91541  13
  -7   2   0 8.01854 2.68854  15
  -7   2   0 8.55914 1.12906  10
  -7   2   0 8.25916 3.32461  14
  -7   2   0 3.99606 1.60228   6
  -6   2   0 283.656 15.8769   3
  -6   2   0 277.465 19.0552  15
  -6   2   0 236.563 14.9658   9
  -6   2   0 259.313 16.9862   6
  -6   2   0 269.894 23.7725  14
  -6   2   0 255.216 14.3300  10
  -6   2   0 241.616 16.5956   5
  -6   2   0 275.064 19.7394  13
  -6   2   0 250.620 15.7627   2
  -5   2   0 30.9159 3.01387   6
  -5   2   0 32.4540 2.41146   2
  -5   2   0 34.6723 2.90264   5
  -5   2   0 35.4415 2.21287   3
  -4   2   0 502.118 30.6158   6
  -4   2   0 463.425 30.2557   5
  -4   2   0 496.684 29.7527   2
  -4   2   0 505.523 30.0506   3
   3  -2   0 2.75204 0.31512   1
   3  -2   0 2.78177 0.32701   1
  -3   2   0 2.76469 0.32086   3
  -3   2   0 2.80616 0.52044   2
  -3   2   0 1.98526 0.78447   6
  -3   2   0 2.16230 0.30210   3
  -3   2   0 3.06256 0.77135   5
  -3   2   0 2.92914 0.32778   1
  -3   2   0 2.45972 0.29382   1
  -3   2   0 2.43961 0.52376   2
  -3   2   0 2.93604 0.51574   7
   2  -2   0 246.857 13.8577   1
   2  -2   0 250.584 13.8498   1
  -2   2   0 231.568 13.8545   1
  -2   2   0 239.130 14.6420   6
  -2   2   0 232.424 13.8404   1
  -2   2   0 249.744 14.2951   2
  -2   2   0 224.109 14.3622   3
  -2   2   0 209.073 14.3654   3
   1  -2   0 155.742 8.19627   1
   1  -2   0 143.385 8.18161   1
   1  -2   0 134.671 8.49430   3
   1  -2   0 122.962 8.44955   2
  -1   2   0 140.158 8.50474   2
  -1   2   0 126.758 8.48347   3
  -1   2   0 141.135 8.18421   1
  -1   2   0 145.247 8.66721   6
  -1   2   0 136.299 8.18096   1
   0  -2   0 1.68914 0.22277   1
   0  -2   0 3.41604 0.31639   3
   0  -2   0 1.38716 0.38659   4
   0   2   0 1.57710 0.22704   1
   0   2   0 1.37822 0.36759   6
   0   2   0 2.18149 0.24654   1
   0   2   0 1.53014 0.46959   2
  -1  -2   0 190.036 10.7039   1
  -1  -2   0 187.310 10.7073   1
  -1  -2   0 188.729 11.0246   2
  -1  -2   0 185.023 15.5666   4
  -1  -2   0 181.527 11.1234   3
   1   2   0 167.000 11.1021   3
   1   2   0 161.027 11.0870   2
   1   2   0 190.348 10.7196   1
   1   2   0 180.022 10.6983   1
  -2  -2   0 135.118 10.4400   4
  -2  -2   0 111.750 7.30912   6
  -2  -2   0 123.441 7.30311   2
  -2  -2   0 125.684 7.06160   1
  -2  -2   0 103.267 7.35571   2
  -2  -2   0 116.908 7.04961   1
  -2  -2   0 117.035 7.45393   5
  -2  -2   0 102.745 7.28486   3
  -2  -2   0 123.434 7.33682   3
   2   2   0 120.503 7.05424   1
   2   2   0 122.219 7.07370   1
  -3  -2   0 499.305 31.4300   6
  -3  -2   0 540.611 31.3618   5
  -3  -2   0 471.150 31.0098   2
  -3  -2   0 599.047 43.9659   4
  -3  -2   0 477.901 30.1887   1
  -3  -2   0 446.315 31.3045   3
  -3  -2   0 547.960 30.9540   2
  -3  -2   0 555.369 31.3655   3
  -3  -2   0 513.418 30.1997   1
   3   2   0 514.217 30.1984   1
   3   2   0 501.560 30.2189   1
  -4  -2   0 69.1374 4.44441   2
  -4  -2   0 70.5224 4.38956   3
  -4  -2   0 69.8639 4.72949   5
  -5  -2   0 208.975 13.1365   5
  -5  -2   0 210.452 12.7132   3
  -5  -2   0 201.684 12.6146   2
  -6  -2   0 125.241 8.86158  11
  -6  -2   0 134.106 7.97232   2
  -6  -2   0 146.788 13.4758  14
  -6  -2   0 131.869 7.59270   9
  -6  -2   0 130.306 8.03092   3
  -6  -2   0 127.388 8.73276   5
  -6  -2   0 137.905 9.75579  12
  -6  -2   0 123.299 10.4596  13
  -6  -2   0 127.048 7.40479  10
  -7  -2   0 21.0756 4.40017  14
  -7  -2   0 17.4143 1.62576  10
  -7  -2   0 13.8271 3.32035  13
  -7  -2   0 21.1252 3.01500  12
  -7  -2   0 15.3270 2.17260   5
  -8  -2   0 46.9665 3.01469  10
  -8  -2   0 49.0589 5.00036  12
  -8  -2   0 57.3864 7.59775  14
  -8  -2   0 58.4479 6.45118  13
  -9  -2   0 6.21116 2.89450  13
  -9  -2   0 7.63020 3.08129  14
 -10  -2   0 32.3674 3.96900  13
 -10  -2   0 36.0630 5.21029  14
  -9   3   0 81.9002 6.90593  15
  -9   3   0 63.7718 8.39103  14
  -8   3   0 34.0923 2.32948  10
  -8   3   0 34.5593 5.48084  14
  -8   3   0 34.0642 4.52480  15
  -7   3   0 182.201 16.7629  14
  -7   3   0 159.994 13.5851  13
  -7   3   0 170.481 13.4694  15
  -7   3   0 162.484 9.52944  10
  -6   3   0 17.0424 2.46875   6
  -6   3   0 17.7586 3.11813  15
  -6   3   0 18.6724 4.07232  14
  -6   3   0 16.1218 1.72920   9
  -6   3   0 15.1519 3.29014  13
  -6   3   0 15.3699 1.44188   2
  -6   3   0 15.8330 1.66178  10
  -6   3   0 17.7005 1.18220   3
  -6   3   0 16.6447 3.09719  16
  -5   3   0 150.522 12.2198  16
  -5   3   0 150.128 9.29735   2
  -5   3   0 155.232 10.0188   6
  -5   3   0 148.651 11.2971  15
  -5   3   0 141.887 13.9949  14
  -5   3   0 135.824 9.03397   9
  -5   3   0 156.111 9.12674   3
  -5   3   0 142.708 8.41845  10
  -5   3   0 132.075 11.7347  13
  -4   3   0 10.2351 1.13148   2
  -4   3   0 10.6211 0.83117   3
  -4   3   0 12.2453 1.62713   6
  -3   3   0 531.334 30.9179   2
  -3   3   0 538.093 31.6217   6
  -3   3   0 517.019 31.1624   3
  -3   3   0 457.982 31.6057   7
   2  -3   0 140.097 7.83555   1
   2  -3   0 134.647 7.81398   1
  -2   3   0 117.220 7.80899   1
  -2   3   0 120.452 7.80029   1
  -2   3   0 134.541 8.20931   2
  -2   3   0 141.497 8.45138   6
  -2   3   0 134.413 8.10604   3
   1  -3   0 10.6232 0.78763   3
   1  -3   0 9.05779 1.01793   2
   1  -3   0 8.16422 1.04349   4
   1  -3   0 10.9661 0.75664   1
   1  -3   0 10.9771 0.74756   1
  -1   3   0 9.37850 0.72925   1
  -1   3   0 10.8996 1.09261   6
  -1   3   0 9.75406 0.76512   3
  -1   3   0 9.38224 0.74132   1
  -1   3   0 11.4104 1.15147   2
   0  -3   0 329.011 20.5413   2
   0  -3   0 331.192 28.8730   4
   0  -3   0 329.334 20.7503   3
   0  -3   0 378.210 19.9993   1
   0  -3   0 358.816 19.9888   1
   0   3   0 308.223 20.7266   3
   0   3   0 351.681 20.0002   1
   0   3   0 335.171 20.6541   2
   0   3   0 345.706 19.9782   1
   0   3   0 326.846 20.8328   6
  -1  -3   0 555.198 32.8406   2
  -1  -3   0 554.916 32.0247   1
  -1  -3   0 567.177 33.2632   3
  -1  -3   0 587.587 46.3644   4
  -1  -3   0 576.031 32.0326   1
   1   3   0 478.802 32.9321   2
   1   3   0 551.998 32.0465   1
   1   3   0 485.648 33.2267   3
   1   3   0 546.868 32.0183   1
  -2  -3   0 1006.88 56.3009   3
  -2  -3   0 998.462 55.5050   2
  -2  -3   0 906.383 54.2066   1
  -2  -3   0 868.471 54.1977   1
  -2  -3   0 1026.66 78.5032   4
   2   3   0 791.110 56.2545   3
   2   3   0 915.184 54.2322   1
   2   3   0 889.753 54.1995   1
  -3  -3   0 460.062 26.6220   3
  -3  -3   0 455.554 26.3215   2
  -3  -3   0 447.711 26.7040   5
  -3  -3   0 484.016 37.3614   4
  -3  -3   0 377.584 25.6058   1
   3   3   0 397.603 25.6492   1
  -4  -3   0 759.200 59.2166   4
  -4  -3   0 665.188 42.2425   5
  -4  -3   0 664.444 41.6633   2
  -4  -3   0 683.680 42.2157   3
  -5  -3   0 246.137 18.6051  13
  -5  -3   0 261.394 15.9758   5
  -5  -3   0 245.811 14.7276   9
  -5  -3   0 251.295 15.5174   3
  -5  -3   0 256.657 15.4342   2
  -5  -3   0 252.830 13.8293  10
  -6  -3   0 9.69571 2.95887  14
  -6  -3   0 9.24747 0.71760   3
  -6  -3   0 9.83444 1.03921   9
  -6  -3   0 10.2386 1.54816   5
  -6  -3   0 10.2263 2.15926  12
  -6  -3   0 11.7695 1.77203  11
  -6  -3   0 9.29985 0.90019   2
  -6  -3   0 9.43148 1.13712  10
  -6  -3   0 9.51231 2.30390  13
  -7  -3   0 160.533 8.73329  10
  -7  -3   0 130.596 10.2861   5
  -7  -3   0 144.216 11.1100  12
  -7  -3   0 175.812 16.2255  14
  -7  -3   0 171.612 12.9704  13
  -8  -3   0 2.76014 3.57496  14
  -8  -3   0 1.76628 0.63420  10
  -8  -3   0 1.99775 1.69468  12
  -8  -3   0 0.05027 2.44735  13
  -9  -3   0 84.9522 7.22252  12
  -9  -3   0 104.200 8.92232  13
  -9  -3   0 98.7799 10.6256  14
 -10  -3   0 7.06745 1.90901  13
  -9   4   0 0.04182 1.63523  14
  -9   4   0 -0.1893 1.32972  15
  -8   4   0 89.0762 7.68059  15
  -8   4   0 70.7025 8.71301  14
  -7   4   0 2.71029 2.88759  14
  -7   4   0 2.88745 0.90169  10
  -7   4   0 0.73243 2.04160  16
  -7   4   0 2.86473 1.67944  15
  -6   4   0 88.0285 7.16396   6
  -6   4   0 100.550 6.07714  10
  -6   4   0 103.830 9.49297  16
  -6   4   0 105.048 6.18324   3
  -6   4   0 100.644 10.7915  14
  -6   4   0 88.5637 6.37440   2
  -6   4   0 102.417 8.41672  15
  -6   4   0 99.4581 6.33257   9
  -5   4   0 171.460 10.2323  10
  -5   4   0 183.086 14.8081  16
  -5   4   0 177.053 11.3177   2
  -5   4   0 169.802 16.7143  14
  -5   4   0 185.041 12.0345   6
  -5   4   0 192.901 11.1181   3
  -5   4   0 189.491 13.5394  15
  -5   4   0 175.800 11.0132   9
  -5   4   0 152.385 14.0021  13
  -4   4   0 30.8147 2.07230   3
  -4   4   0 30.3055 2.68531   6
  -4   4   0 29.2556 2.43130   2
  -3   4   0 47.5572 3.47894   2
  -3   4   0 48.3848 3.63101   6
  -3   4   0 49.1758 3.16711   3
   2  -4   0 0.55333 0.25472   1
  -2   4   0 0.44337 0.57436   2
  -2   4   0 0.87378 0.25763   1
  -2   4   0 0.60579 0.26058   3
  -2   4   0 1.29458 0.66614   6
   1  -4   0 287.777 17.2384   3
   1  -4   0 259.298 23.8829   4
   1  -4   0 293.799 16.6169   1
  -1   4   0 269.861 17.2119   3
  -1   4   0 281.208 16.6120   1
  -1   4   0 295.489 17.3108   2
  -1   4   0 271.288 16.5929   1
  -1   4   0 291.719 17.4806   6
   0  -4   0 25.4719 2.35437   4
   0  -4   0 22.6404 1.88166   2
   0  -4   0 26.0270 1.67566   3
   0  -4   0 24.5765 1.59620   1
   0  -4   0 24.8411 1.61025   1
   0   4   0 24.0898 2.08608   2
   0   4   0 24.4996 1.63263   1
   0   4   0 22.7966 1.57638   1
   0   4   0 22.4129 1.80058   6
   0   4   0 24.1680 1.64467   3
  -1  -4   0 1474.71 84.8339   3
  -1  -4   0 1369.17 81.6992   1
  -1  -4   0 1454.53 83.6312   2
  -1  -4   0 1530.77 118.088   4
  -1  -4   0 1528.30 81.7189   1
   1   4   0 1176.24 83.7279   2
   1   4   0 1343.85 81.7256   1
   1   4   0 1391.09 81.6934   1
   1   4   0 1270.10 84.7924   3
  -2  -4   0 99.7402 6.09832   2
  -2  -4   0 102.377 5.99592   3
  -2  -4   0 84.2783 5.73387   1
  -2  -4   0 109.154 8.59860   4
   2   4   0 86.2801 5.73237   1
  -3  -4   0 250.712 16.0851   5
  -3  -4   0 253.280 15.8319   3
  -3  -4   0 275.971 22.3930   4
  -3  -4   0 249.605 15.7582   2
  -4  -4   0 576.738 36.0690   5
  -4  -4   0 594.528 35.5040   2
  -4  -4   0 625.316 50.4214   4
  -4  -4   0 555.941 35.8614   3
  -5  -4   0 15.1922 2.06403  11
  -5  -4   0 14.1577 1.63685   9
  -5  -4   0 14.4082 1.48404  10
  -5  -4   0 13.6822 1.35557   2
  -5  -4   0 12.7228 1.05299   3
  -5  -4   0 14.7196 1.70553   5
  -5  -4   0 15.6889 3.49965  14
  -5  -4   0 15.5138 2.35888  12
  -5  -4   0 12.8890 2.55191  13
  -6  -4   0 244.124 12.6829  10
  -6  -4   0 201.468 13.8789   2
  -6  -4   0 218.153 13.9387   3
  -6  -4   0 242.709 17.5041  13
  -6  -4   0 237.266 15.7583  12
  -6  -4   0 257.383 21.6894  14
  -6  -4   0 216.087 14.6684   5
  -6  -4   0 226.163 13.2805   9
  -6  -4   0 241.433 14.7409  11
  -7  -4   0 128.029 10.8248  13
  -7  -4   0 113.982 9.35017  12
  -7  -4   0 132.566 13.3668  14
  -7  -4   0 127.198 7.29979  10
  -8  -4   0 52.9904 5.78077  13
  -8  -4   0 45.6510 2.96208  10
  -8  -4   0 48.5578 7.61810  14
  -8  -4   0 43.2963 4.63987  12
  -9  -4   0 3.99246 2.07872  13
  -9  -4   0 2.12769 2.09296  14
  -9  -4   0 1.33781 1.75971  12
  -9   5   0 63.2524 5.41383  15
  -8   5   0 27.2496 1.91088  10
  -8   5   0 25.1784 3.60262  15
  -8   5   0 26.5937 3.75311  16
  -8   5   0 20.6504 3.89198  14
  -7   5   0 0.73823 0.80721  10
  -7   5   0 0.82191 1.95589  14
  -7   5   0 1.07846 1.75699  16
  -7   5   0 1.61457 1.49816  15
  -6   5   0 108.231 12.3340  14
  -6   5   0 122.688 7.19511  10
  -6   5   0 126.093 7.59245   9
  -6   5   0 101.342 8.39336   6
  -6   5   0 127.375 11.0028  16
  -6   5   0 128.777 9.98506  15
  -5   5   0 16.6182 3.57237  16
  -5   5   0 19.2119 2.35248   9
  -5   5   0 16.8529 1.33571   3
  -5   5   0 16.7841 1.97870   2
  -5   5   0 18.5003 2.97309  15
  -5   5   0 16.4102 3.82385  14
  -5   5   0 17.6327 1.81392  10
  -5   5   0 17.9948 2.42722   6
  -4   5   0 237.275 19.3373   8
  -4   5   0 280.583 15.2830   3
  -4   5   0 229.870 13.8762  10
  -4   5   0 228.824 17.4963  15
  -4   5   0 251.955 16.0099   6
  -4   5   0 232.091 14.9912   9
  -4   5   0 244.536 15.4863   2
  -3   5   0 108.460 6.66044   3
  -3   5   0 100.420 6.99907   2
  -3   5   0 104.461 7.21861   6
  -2   5   0 297.533 17.9533   2
  -2   5   0 277.736 18.1345   6
  -2   5   0 289.773 17.7528   3
   1  -5   0 110.643 6.63291   1
  -1   5   0 109.483 7.15162   6
  -1   5   0 108.221 6.84597   3
  -1   5   0 120.571 7.29363   2
  -1   5   0 101.351 6.62058   1
   0  -5   0 189.266 11.0716   3
   0  -5   0 206.384 11.2243   2
   0  -5   0 171.468 10.6465   1
   0  -5   0 178.993 10.6574   1
   0  -5   0 194.602 15.4061   4
   0   5   0 182.853 11.3827   2
   0   5   0 160.129 11.1648   6
   0   5   0 160.371 10.6326   1
   0   5   0 173.132 11.0342   3
   0   5   0 172.140 10.6763   1
  -1  -5   0 534.895 31.3005   2
  -1  -5   0 566.311 44.0008   4
  -1  -5   0 442.187 30.3558   1
  -1  -5   0 523.379 31.5463   3
  -2  -5   0 30.0392 3.06682   4
  -2  -5   0 27.1399 2.27087   2
  -2  -5   0 28.1253 2.00358   3
  -3  -5   0 350.155 28.4570   4
  -3  -5   0 313.831 20.1633   3
  -3  -5   0 324.857 20.1174   2
  -3  -5   0 325.013 20.5549   5
  -4  -5   0 23.8261 2.56807   8
  -4  -5   0 26.8252 3.70504  13
  -4  -5   0 28.5346 2.65119   5
  -4  -5   0 24.8540 2.13957   2
  -4  -5   0 22.5625 1.95515  10
  -4  -5   0 26.1033 1.81196   3
  -4  -5   0 27.2753 3.21852   4
  -4  -5   0 19.7157 2.39385   9
  -5  -5   0 384.202 22.7147  11
  -5  -5   0 352.720 24.0077  12
  -5  -5   0 376.147 21.4184   9
  -5  -5   0 373.926 23.0906   5
  -5  -5   0 401.295 27.0128  13
  -5  -5   0 349.962 19.9562  10
  -5  -5   0 340.718 22.4028   3
  -6  -5   0 31.9347 5.13108  14
  -6  -5   0 31.9113 2.51227  10
  -6  -5   0 30.2712 2.63240   9
  -6  -5   0 32.1086 3.37621  11
  -6  -5   0 26.5179 3.52258  12
  -6  -5   0 30.0701 3.17746   5
  -6  -5   0 28.1069 4.55670  13
  -7  -5   0 73.7595 4.59796  10
  -7  -5   0 69.5950 9.08572  14
  -7  -5   0 78.0501 8.01227  13
  -7  -5   0 63.8795 6.34946  12
  -8  -5   0 59.8025 5.63229  12
  -8  -5   0 65.5782 6.92874  13
  -8  -5   0 66.9803 8.48114  14
  -8  -5   0 71.8036 4.09816  10
  -9  -5   0 53.3872 4.59024  12
  -9  -5   0 68.0349 6.47914  13
  -8   6   0 10.2933 2.27187  16
  -8   6   0 12.7023 1.08367  10
  -8   6   0 10.4132 2.35852  15
  -7   6   0 96.1422 8.61313  16
  -7   6   0 86.6497 7.46215  15
  -7   6   0 83.7305 5.38893  10
  -6   6   0 0.34538 0.94046  10
  -6   6   0 -0.8081 1.51646  15
  -6   6   0 1.35913 0.96498   9
  -6   6   0 0.07539 2.18805  16
  -5   6   0 184.501 14.8435  16
  -5   6   0 171.231 10.9127   9
  -5   6   0 173.448 13.0547  15
  -5   6   0 177.613 10.1808  10
  -5   6   0 155.181 11.5628   6
  -4   6   0 28.3527 3.26056   9
  -4   6   0 26.7586 4.36004  16
  -4   6   0 25.3424 2.66734   6
  -4   6   0 24.1574 2.56915   2
  -4   6   0 27.9521 3.47326   8
  -4   6   0 26.9903 2.65522  10
  -4   6   0 29.0178 3.50659  15
  -4   6   0 28.2229 1.98949   3
  -3   6   0 100.634 6.78160   6
  -3   6   0 82.9703 5.89821  10
  -3   6   0 87.5533 6.79479   9
  -3   6   0 97.4008 6.06091   3
  -3   6   0 91.8883 8.44632   8
  -3   6   0 100.368 6.64656   2
  -2   6   0 110.546 7.51224   6
  -2   6   0 109.017 7.51326   2
  -2   6   0 112.521 7.05645   3
  -1   6   0 47.8461 3.67330   6
  -1   6   0 48.8841 3.28461   3
  -1   6   0 51.5234 3.92515   2
  -1  -6   0 31.4204 2.20070   3
  -1  -6   0 30.7594 2.48930   2
  -2  -6   0 68.0030 4.65108   3
  -2  -6   0 72.0629 4.97154   2
  -2  -6   0 75.9730 6.76010   4
  -3  -6   0 17.0822 1.36220   3
  -3  -6   0 16.4752 1.82303   2
  -3  -6   0 18.1750 1.90204  10
  -3  -6   0 20.4228 2.34421   5
  -3  -6   0 14.7556 2.37250   8
  -3  -6   0 20.2914 2.37601   9
  -3  -6   0 18.0347 2.47287   4
  -4  -6   0 190.814 11.5002   9
  -4  -6   0 177.453 14.4279   8
  -4  -6   0 194.099 10.5806  10
  -4  -6   0 185.953 11.7266   2
  -4  -6   0 188.185 12.2117   5
  -4  -6   0 183.957 12.8633  12
  -4  -6   0 176.249 11.4787   3
  -5  -6   0 0.72517 2.33873  13
  -5  -6   0 0.28963 0.69976   2
  -5  -6   0 0.87226 1.43762  12
  -5  -6   0 0.92008 0.84250  11
  -5  -6   0 1.02416 0.93027  10
  -5  -6   0 0.50526 1.15707   5
  -5  -6   0 0.51009 1.13094   9
  -6  -6   0 52.3178 6.72478  13
  -6  -6   0 50.7997 3.89166   9
  -6  -6   0 52.3594 5.20504  12
  -6  -6   0 51.7131 3.58448  10
  -7  -6   0 78.0764 6.64943  12
  -7  -6   0 87.9288 5.27737  10
  -7  -6   0 80.4202 8.16704  13
  -8  -6   0 -0.3501 1.88391  13
  -8  -6   0 -0.0073 0.50176  10
  -8  -6   0 -0.5328 1.61942  12
  -8   7   0 51.2919 4.97766  16
  -7   7   0 1.13742 0.85956  10
  -7   7   0 0.25078 1.09079  15
  -7   7   0 -0.1559 1.39618  16
  -6   7   0 60.4551 4.22344   9
  -6   7   0 61.8083 4.41779  10
  -6   7   0 64.9479 7.12531  16
  -6   7   0 61.3266 5.88748  15
  -5   7   0 58.2535 6.73613  16
  -5   7   0 52.7071 4.57885   9
  -4   7   0 62.3536 5.39866   6
  -4   7   0 78.4790 5.77293   9
  -4   7   0 69.0625 6.31992   8
  -4   7   0 73.7310 7.26516  16
  -3   7   0 235.479 14.6629   3
  -3   7   0 222.508 15.3287   6
  -3   7   0 242.283 14.8925   9
  -3   7   0 225.758 15.1723   2
  -3   7   0 254.794 19.2264   8
  -2   7   0 13.9035 2.62695   8
  -2   7   0 11.2339 1.10592   3
  -2   7   0 13.8986 2.00962   2
  -2   7   0 13.2706 2.32119   9
  -1   7   0 233.898 19.3638   8
  -1  -7   0 21.7571 2.83019   8
  -2  -7   0 14.8608 1.30292   3
  -2  -7   0 15.3665 2.30660   9
  -2  -7   0 15.3291 2.46982   8
  -2  -7   0 14.7974 1.85566   2
  -3  -7   0 68.0646 4.42562  10
  -3  -7   0 67.7170 5.19177   9
  -3  -7   0 64.8639 4.43260   3
  -3  -7   0 73.4997 5.24800   5
  -3  -7   0 67.2959 4.90425   2
  -3  -7   0 64.0591 6.10263   8
  -4  -7   0 69.0291 5.29939   2
  -4  -7   0 79.6651 5.56737   9
  -4  -7   0 77.6539 5.82641   5
  -4  -7   0 85.5117 5.13559  10
  -4  -7   0 73.9914 6.45503   8
  -5  -7   0 0.49122 0.75980  10
  -5  -7   0 -0.4071 2.43618  13
  -5  -7   0 1.56423 1.04765   9
  -6  -7   0 54.8756 3.92101  10
  -6  -7   0 58.1789 4.09820   9
  -6  -7   0 64.6881 7.29959  13
  -7  -7   0 2.89350 0.98563  10
  -7  -7   0 4.99156 2.33182  13
  -8  -7   0 96.9047 5.33378  10
  -8  -7   0 98.6222 8.71937  13
  -7   8   0 39.6410 2.67777  10
  -7   8   0 47.2353 4.52308  16
  -6   8   0 70.8770 4.82624  10
  -6   8   0 81.6777 7.31293  16
  -5   8   0 26.6160 2.61456   9
  -5   8   0 22.9889 2.57594  10
  -5   8   0 19.8246 3.64637  16
  -4   8   0 178.481 9.94651  10
  -4   8   0 154.169 10.3918   9
  -4   8   0 158.771 13.3023  16
  -4   8   0 149.910 12.5287   8
  -3   8   0 18.7741 3.52294  16
  -3   8   0 21.5780 3.12707   9
  -3   8   0 21.5537 3.04489   8
  -2   8   0 192.846 15.9918   8
  -2   8   0 181.268 12.5334   9
  -1   8   0 82.4720 8.40948   8
  -1  -8   0 166.516 13.8595   8
  -2  -8   0 4.59814 1.77740   9
  -2  -8   0 3.75546 1.55752   8
  -3  -8   0 176.512 10.7731   9
  -3  -8   0 160.939 13.4039   8
  -3  -8   0 163.732 11.1954   5
  -4  -8   0 0.83343 1.82546  13
  -4  -8   0 1.86564 1.14987  10
  -4  -8   0 2.25452 1.19342   9
  -4  -8   0 0.16769 0.70237   8
  -5  -8   0 204.716 11.7916  10
  -5  -8   0 209.520 16.2311  13
  -5  -8   0 199.946 12.5991   9
  -6  -8   0 35.7067 2.75889  10
  -6  -8   0 33.2366 2.53793   9
  -6  -8   0 41.5523 4.92248  13
  -7  -8   0 37.6523 2.72582  10
  -7  -8   0 39.7325 5.17214  13
  -8  -8   0 20.1194 2.77816  13
  -6   9   0 0.81152 1.24516  16
  -6   9   0 0.77412 0.66270  10
  -5   9   0 50.4098 3.80712   9
  -5   9   0 52.5027 3.83107  10
  -5   9   0 56.9380 5.52362  16
  -4   9   0 8.75054 1.82319  10
  -4   9   0 9.18306 1.86185   9
  -4   9   0 7.37873 2.12439  16
  -3   9   0 65.5038 6.30591   8
  -3   9   0 65.5148 6.60261  16
  -3   9   0 67.1038 5.47095   9
  -2   9   0 6.97554 2.37579   9
  -2   9   0 6.09875 1.96456   8
  -2   9   0 3.98423 2.06963  16
  -1   9   0 11.2997 2.45646  16
  -1   9   0 14.2321 2.98389   8
   0  -9   0 111.978 9.25013   8
   0   9   0 84.6726 9.42369   8
  -1  -9   0 31.5366 4.10278   8
  -2  -9   0 292.985 18.3907   9
  -2  -9   0 307.805 23.7714   8
  -3  -9   0 28.1405 3.08485   9
  -3  -9   0 26.3541 3.13068   8
  -4  -9   0 92.1629 5.55007  10
  -4  -9   0 89.8505 6.07968   9
  -4  -9   0 79.0821 6.49205   8
  -4  -9   0 102.620 8.67339  13
  -5  -9   0 23.5148 3.83455  13
  -5  -9   0 23.0240 2.45298  10
  -5  -9   0 20.9511 2.17885   9
  -6  -9   0 43.4367 3.00927  10
  -6  -9   0 43.0998 5.35217  13
  -7  -9   0 11.6874 2.23553  13
  -7  -9   0 17.4256 1.33355  10
  -5  10   0 7.00089 1.11063  10
  -4  10   0 54.3167 4.18013   9
  -4  10   0 51.4528 3.75768  10
  -4  10   0 45.2057 4.92762  16
  -3  10   0 21.4536 3.16760  16
  -3  10   0 20.9424 2.72551   9
  -3  10   0 22.6752 2.47572   8
  -2  10   0 19.3257 3.11839   9
  -2  10   0 19.1928 3.10958   8
  -2  10   0 18.2216 2.93355  16
  -1  10   0 114.325 10.3969   8
   0 -10   0 2.44475 1.74028   8
   0  10   0 1.05629 2.15518   8
  -1 -10   0 138.541 11.6214   8
  -2 -10   0 -0.0228 1.22342   8
  -2 -10   0 2.15004 1.26181   9
  -3 -10   0 24.9025 2.81625   9
  -3 -10   0 24.7500 2.45107   8
  -4 -10   0 73.5142 6.66081  13
  -4 -10   0 69.0945 4.94918   9
  -4 -10   0 69.8624 4.72081  10
  -5 -10   0 1.92420 1.64216  13
  -5 -10   0 4.87385 0.95170   9
  -5 -10   0 4.92155 0.96665  10
  -6 -10   0 6.06025 1.64829  13
  -6 -10   0 5.47824 0.87855  10
  -3  11   0 6.03509 1.41478  16
  -3  11   0 7.12699 1.41716   9
  -2  11   0 245.784 17.3074   8
  -2  11   0 185.094 18.0741  17
  -2  11   0 234.434 13.8693   9
   1 -11   0 1.43576 1.16616   8
  -1  11   0 1.84470 1.22153   8
   0 -11   0 133.013 9.49531   8
   0  11   0 84.9929 9.37371   8
  -1 -11   0 31.9513 3.20921   8
   1  11   0 23.4492 3.81863   8
  -2 -11   0 0.86331 1.53511   9
  -2 -11   0 0.52734 0.58664   8
  -3 -11   0 112.923 7.50456   9
  -3 -11   0 115.609 9.49680  13
  -4 -11   0 0.54975 0.84982   9
  -4 -11   0 1.11250 1.38605  13
   0  12   0 66.3960 5.76110   8
  -1 -12   0 11.5599 1.23533   8
  -1 -12   0 11.7364 1.90233  13
   1  12   0 4.85452 1.64702   8
  -4 -11   1 36.0266 3.74099  13
  -3 -11   1 52.4792 3.72139   9
  -3 -11   1 49.4599 4.72621  13
   2  11  -1 2.48758 1.43698   8
  -2 -11   1 3.56286 1.65538  13
  -2 -11   1 4.38959 1.26768   9
  -2 -11   1 3.42216 0.85215   8
   1  11  -1 32.8762 4.23087   8
  -1 -11   1 46.9997 4.04677   8
   0  11  -1 3.26246 1.36363   8
   0 -11   1 5.32578 1.36254   8
  -1  11  -1 25.6526 2.84927   8
  -1  11  -1 27.0382 3.15923   9
   1 -11   1 34.0322 3.30992   8
  -2  11  -1 -0.0711 1.04887   9
  -2  11  -1 3.22658 1.35421  17
  -3  11  -1 30.2294 2.39508   9
  -5 -10   1 34.9095 2.24676   9
  -5 -10   1 21.1827 3.18496  13
  -4 -10   1 77.2305 6.47627  13
  -4 -10   1 55.3844 4.34912   9
  -3 -10   1 18.6890 2.40044   9
  -3 -10   1 22.3346 2.31393   8
  -3 -10   1 25.5875 3.53107  13
  -2 -10   1 182.774 14.1273   8
  -2 -10   1 164.988 11.1806   9
   1  10  -1 6.86375 2.76421   8
  -1 -10   1 9.84794 1.97884   8
   0  10  -1 84.1063 8.71487   8
   0 -10   1 103.028 8.63901   8
  -1  10  -1 36.9742 4.19036   8
  -1  10  -1 30.2255 3.84291   9
  -2  10  -1 3.12264 1.56085   9
  -2  10  -1 3.05992 1.10007   8
  -3  10  -1 43.9747 3.73470   9
  -3  10  -1 40.1411 4.49580  16
  -4  10  -1 1.89056 1.11769  16
  -4  10  -1 2.67253 0.93109  10
  -4  10  -1 2.83602 1.07001   9
  -6  -9   1 61.8280 3.82263  10
  -6  -9   1 57.2771 5.61226  13
  -5  -9   1 52.6252 5.38479  13
  -5  -9   1 52.7421 3.79983  10
  -5  -9   1 49.8740 3.77885   9
  -4  -9   1 0.33844 0.50525   8
  -4  -9   1 2.07522 1.57765   9
  -4  -9   1 1.16351 1.68098  13
  -3  -9   1 108.733 9.12091   8
  -3  -9   1 109.025 7.57356   9
  -2  -9   1 7.42652 1.74229   8
   1   9  -1 36.4910 5.30481   8
  -1  -9   1 44.5434 4.82645   8
   0   9  -1 66.5975 7.79677   8
   0  -9   1 75.8111 7.03884   8
  -1   9  -1 14.4656 3.04814   8
  -2   9  -1 147.641 12.7734  16
  -2   9  -1 161.248 10.7834   9
  -2   9  -1 165.937 13.4623   8
  -3   9  -1 6.91187 1.79860   9
  -3   9  -1 6.65495 2.27836  17
  -3   9  -1 6.38361 1.43369   8
  -3   9  -1 6.32825 1.82558  10
  -3   9  -1 3.25959 2.09281  16
  -4   9  -1 43.8599 3.56194   9
  -4   9  -1 41.4660 4.98622  16
  -4   9  -1 37.2786 3.29704  10
  -5   9  -1 -0.0426 0.58673   9
  -5   9  -1 -0.4738 0.74846  10
  -5   9  -1 -1.0385 1.54500  16
  -6   9  -1 35.8517 2.41321  10
  -7  -8   1 5.85290 0.85957  10
  -7  -8   1 10.3409 2.22511  13
  -6  -8   1 7.62675 1.41102  10
  -6  -8   1 9.37175 2.90275  13
  -6  -8   1 10.5647 1.30655   9
  -5  -8   1 33.4567 3.12752  10
  -5  -8   1 33.3927 3.52660   9
  -5  -8   1 43.1962 5.55117  13
  -4  -8   1 92.8591 6.74274   9
  -4  -8   1 86.6768 7.53711   8
  -4  -8   1 104.625 9.10699  13
  -4  -8   1 89.7658 5.87350  10
  -3  -8   1 4.36217 1.34062   8
  -3  -8   1 3.02001 1.40294   9
  -2  -8   1 4.59392 1.28493   5
  -2  -8   1 6.34149 1.88781   8
  -1  -8   1 183.844 15.2548   8
   0   8  -1 14.3941 3.43921   8
  -1   8  -1 111.442 10.5217   8
  -2   8  -1 9.72640 1.94190   7
  -2   8  -1 9.47456 2.62470  16
  -2   8  -1 9.93628 2.43785   8
  -2   8  -1 10.6841 2.27830   9
  -3   8  -1 64.3168 5.02352  10
  -3   8  -1 71.2861 6.61375   8
  -3   8  -1 75.8456 5.97878   9
  -3   8  -1 69.4156 7.28959  16
  -4   8  -1 26.5508 2.91436   9
  -4   8  -1 25.2294 2.57103  10
  -4   8  -1 19.9742 3.75565  16
  -5   8  -1 92.5954 6.06034   9
  -5   8  -1 88.9908 8.53035  16
  -5   8  -1 87.1416 5.80945  10
  -6   8  -1 57.8886 5.74926  16
  -6   8  -1 56.5337 3.77591  10
  -7   8  -1 7.55656 0.74028  10
  -7   8  -1 7.49429 1.73248  16
  -8  -7   1 1.50054 0.52023  10
  -8  -7   1 1.98068 1.58895  13
  -7  -7   1 97.8760 5.92729  10
  -7  -7   1 100.100 8.71256  13
  -6  -7   1 134.106 8.07015  10
  -6  -7   1 134.867 11.7265  13
  -6  -7   1 132.726 8.44146   9
  -5  -7   1 27.5761 3.03645   9
  -5  -7   1 27.9016 4.55689  13
  -5  -7   1 26.9636 2.53509  10
  -4  -7   1 89.5886 5.91084  10
  -4  -7   1 79.9547 6.66816   5
  -4  -7   1 94.5162 7.71736   8
  -4  -7   1 94.8379 6.63053   9
  -3  -7   1 23.5408 2.89372   9
  -3  -7   1 21.8634 2.64799   5
  -3  -7   1 22.2954 2.95149   8
  -3  -7   1 18.0816 2.22640   2
  -3  -7   1 18.1256 1.60783   3
  -2  -7   1 207.533 16.8001   8
  -1  -7   1 -0.1218 1.18561   8
   0   7  -1 147.594 13.0833   8
  -1   7  -1 18.4618 3.46315   8
  -2   7  -1 188.781 12.3746   9
  -2   7  -1 188.767 15.1690  16
  -2   7  -1 191.505 11.8744   3
  -2   7  -1 182.566 12.4610   2
  -2   7  -1 192.272 15.9404   8
  -3   7  -1 82.0653 6.63133   2
  -3   7  -1 100.115 7.13791   9
  -3   7  -1 93.5448 6.32586  10
  -3   7  -1 92.9844 8.57319  16
  -3   7  -1 95.4776 8.38261   8
  -4   7  -1 23.4687 4.09490  16
  -4   7  -1 19.1765 2.39558  10
  -4   7  -1 24.0441 3.03865   9
  -4   7  -1 23.7048 2.22118   8
  -5   7  -1 131.363 11.4594  16
  -5   7  -1 127.391 8.30630   9
  -5   7  -1 121.180 7.77457  10
  -6   7  -1 15.3660 1.84267  10
  -6   7  -1 16.8395 2.59982  15
  -6   7  -1 13.7101 3.22940  16
  -7   7  -1 48.1100 3.04023  10
  -7   7  -1 39.8356 4.18294  15
  -7   7  -1 49.6378 5.09734  16
  -8  -6   1 101.115 6.05476  10
  -8  -6   1 119.715 9.53996  13
  -7  -6   1 70.9951 7.26118  13
  -7  -6   1 74.3186 4.82725  10
  -6  -6   1 13.8222 1.71972  10
  -6  -6   1 11.0102 3.38422  13
  -6  -6   1 9.44795 1.69318   9
  -5  -6   1 199.743 15.4004  13
  -5  -6   1 170.381 12.5366   5
  -5  -6   1 196.860 11.8868   9
  -5  -6   1 195.111 10.9399  10
  -5  -6   1 185.426 14.3624   8
  -4  -6   1 1.43293 0.69625   2
  -4  -6   1 2.32949 1.03694   5
  -4  -6   1 1.31780 1.04665   8
  -4  -6   1 2.41540 1.12843   9
  -4  -6   1 2.57155 1.11300  10
  -4  -6   1 2.15594 0.47783   3
  -3  -6   1 102.451 7.09737   9
  -3  -6   1 98.2514 8.70512   8
  -3  -6   1 104.999 7.31359   5
  -3  -6   1 107.884 6.97414   2
  -3  -6   1 99.7011 6.57865   3
  -2  -6   1 20.7617 1.94453   2
  -2  -6   1 20.6504 1.59136   3
  -2  -6   1 16.3088 2.49588   8
  -1   6  -1 114.840 7.27153   3
  -1   6  -1 113.966 7.88255   2
  -2   6  -1 87.9749 8.29010   8
  -2   6  -1 86.9292 6.35974   2
  -2   6  -1 93.3392 5.77282   3
  -2   6  -1 86.2998 6.66400   9
  -2   6  -1 87.5603 6.32645   6
  -3   6  -1 34.7760 3.16211   2
  -3   6  -1 32.5940 3.52014   7
  -3   6  -1 36.9178 2.47938   3
  -3   6  -1 31.2637 4.27046   8
  -3   6  -1 34.5019 4.83807  16
  -3   6  -1 34.6165 3.12725   6
  -3   6  -1 34.8694 3.71701   9
  -4   6  -1 170.564 12.1054   2
  -4   6  -1 182.313 12.6399   6
  -4   6  -1 196.284 15.5306  16
  -4   6  -1 198.515 14.7839   8
  -4   6  -1 193.094 12.0346   9
  -5   6  -1 17.9820 3.84503  16
  -5   6  -1 21.4195 2.63651   6
  -5   6  -1 25.5176 3.57007  15
  -5   6  -1 27.3404 2.85990   9
  -6   6  -1 46.5948 4.90171  15
  -6   6  -1 31.0339 5.53922  14
  -6   6  -1 46.6391 5.44760  16
  -6   6  -1 45.3689 3.29660  10
  -6   6  -1 37.7517 2.39872   9
  -7   6  -1 5.50458 2.60158  16
  -7   6  -1 5.54488 1.05829  10
  -7   6  -1 3.44862 1.63684  15
  -8   6  -1 14.5119 2.63344  16
  -8   6  -1 15.5540 2.40774  15
  -9  -5   1 4.16823 1.82065  13
  -8  -5   1 64.1953 6.66595  13
  -8  -5   1 69.5694 4.25423  10
  -8  -5   1 66.3810 7.84677  14
  -7  -5   1 17.8519 3.48437  13
  -7  -5   1 22.6017 2.31194  10
  -7  -5   1 25.0210 4.70789  14
  -7  -5   1 19.2504 3.17223  12
  -6  -5   1 78.3989 7.02589  12
  -6  -5   1 84.2509 5.34205  10
  -6  -5   1 98.7441 10.2762  14
  -6  -5   1 85.9570 5.74762   9
  -6  -5   1 87.0817 8.02313  13
  -6  -5   1 72.3219 6.08066   5
  -5  -5   1 6.71799 2.53110  13
  -5  -5   1 5.21752 0.70687   3
  -5  -5   1 8.90956 1.36496  10
  -5  -5   1 8.25870 3.19441  14
  -5  -5   1 7.15486 1.21759   2
  -5  -5   1 7.32540 1.62646   5
  -5  -5   1 6.49840 1.36848   9
  -5  -5   1 7.68790 1.14328   8
  -4  -5   1 423.933 25.1465  10
  -4  -5   1 461.495 27.0559   9
  -4  -5   1 482.974 28.3438   2
  -4  -5   1 488.672 28.9162   5
  -4  -5   1 448.055 28.4084   3
  -4  -5   1 474.510 35.3150   8
  -3  -5   1 63.9161 4.76665   5
  -3  -5   1 62.4286 4.18265   3
  -3  -5   1 65.1375 4.48661   2
  -2  -5   1 6.54228 0.74746   3
  -2  -5   1 6.45268 1.07055   2
  -1  -5   1 207.521 12.8686   2
  -1  -5   1 204.501 12.7930   3
   0   5  -1 97.5498 6.11847   3
   0   5  -1 94.0957 6.60631   2
  -1   5  -1 169.120 11.5522   6
  -1   5  -1 179.026 11.5601   2
  -1   5  -1 189.367 11.2117   3
  -2   5  -1 3.90476 0.52889   3
  -2   5  -1 4.25713 1.07505   6
  -2   5  -1 3.34709 1.01100   2
  -3   5  -1 98.0104 8.88269   8
  -3   5  -1 94.9769 7.07667   9
  -3   5  -1 116.277 6.60537   3
  -3   5  -1 104.958 7.27214   6
  -3   5  -1 88.0348 7.37497   7
  -3   5  -1 104.978 7.03605   2
  -4   5  -1 51.5161 5.16472  15
  -4   5  -1 53.1531 4.44522   6
  -4   5  -1 55.4663 6.24432  16
  -4   5  -1 53.7053 3.75142  10
  -4   5  -1 52.5793 4.31598   9
  -4   5  -1 44.2077 6.72515  14
  -4   5  -1 55.8595 4.07782   2
  -4   5  -1 56.8024 3.55998   3
  -4   5  -1 52.7288 4.76802   8
  -5   5  -1 96.2898 5.81825  10
  -5   5  -1 78.4521 9.90532  14
  -5   5  -1 79.3898 6.72536   6
  -5   5  -1 92.7047 7.72739  15
  -5   5  -1 92.2755 6.24611   9
  -5   5  -1 95.8637 5.76818   3
  -5   5  -1 95.0795 9.09422  16
  -5   5  -1 85.8334 6.12377   2
  -6   5  -1 51.5144 6.51582  16
  -6   5  -1 48.7482 3.14700   9
  -6   5  -1 49.5547 5.44274  15
  -6   5  -1 40.6898 6.90157  14
  -7   5  -1 4.17579 1.71266  15
  -7   5  -1 3.83555 2.08234  16
  -7   5  -1 3.50670 2.41828  14
  -7   5  -1 2.94477 0.91917  10
  -8   5  -1 57.1550 5.45355  15
  -8   5  -1 69.2940 6.59152  16
  -8   5  -1 50.4509 7.07989  14
  -9   5  -1 -0.0323 1.07954  15
  -9  -4   1 53.5136 5.72172  13
  -9  -4   1 62.9040 7.04506  14
  -8  -4   1 20.5063 3.84813  13
  -8  -4   1 15.6647 2.89052  12
  -8  -4   1 21.7225 5.05959  14
  -8  -4   1 19.0422 1.85658  10
  -7  -4   1 173.194 15.1037  14
  -7  -4   1 148.050 7.93752  10
  -7  -4   1 133.641 10.1065  12
  -7  -4   1 169.823 12.0706  13
  -7  -4   1 117.082 7.64956   9
  -6  -4   1 5.05365 1.58699  12
  -6  -4   1 5.54522 3.17634  14
  -6  -4   1 4.34863 1.12471   9
  -6  -4   1 5.69900 2.54766  13
  -6  -4   1 4.49467 1.36633   5
  -6  -4   1 4.70269 0.56940   3
  -6  -4   1 7.45901 1.13869  10
  -5  -4   1 300.600 18.4261   5
  -5  -4   1 270.812 17.8725   3
  -5  -4   1 289.572 18.1507  11
  -5  -4   1 270.408 17.1067   9
  -5  -4   1 296.498 16.0462  10
  -5  -4   1 289.672 17.9189   2
  -5  -4   1 276.933 19.2098  12
  -5  -4   1 296.997 21.4234  13
  -5  -4   1 323.925 26.4431  14
  -5  -4   1 299.297 21.9740   8
  -4  -4   1 366.276 22.1559   2
  -4  -4   1 377.558 22.6166   5
  -4  -4   1 345.929 22.2333   3
  -3  -4   1 103.198 6.91240   5
  -3  -4   1 103.149 6.65775   2
  -3  -4   1 102.350 6.51566   3
  -2  -4   1 353.712 24.2889   1
  -2  -4   1 421.214 25.0655   2
  -2  -4   1 467.012 35.3314   4
  -2  -4   1 411.438 25.2557   3
   1   4  -1 49.3086 3.40255   1
   1   4  -1 56.3530 3.50128   3
   1   4  -1 49.6230 3.34946   1
   1   4  -1 47.8161 3.89783   2
  -1  -4   1 53.0766 3.36733   1
  -1  -4   1 62.2462 4.98100   4
  -1  -4   1 50.2869 3.36050   1
  -1  -4   1 58.4224 3.53680   3
  -1  -4   1 55.1461 3.70581   2
   0   4  -1 460.963 27.0644   1
   0   4  -1 440.035 27.1044   1
   0   4  -1 439.492 28.0546   2
   0   4  -1 455.414 28.0892   3
   0   4  -1 443.651 28.2892   6
   0  -4   1 478.792 28.1291   3
   0  -4   1 462.428 27.8736   2
   0  -4   1 491.655 27.0918   1
   0  -4   1 457.732 27.0799   1
  -1   4  -1 1.26322 0.26242   3
  -1   4  -1 1.50765 0.68362   6
  -1   4  -1 1.09877 0.30410   1
  -1   4  -1 1.27887 0.57160   2
   1  -4   1 1.32589 0.28780   1
  -2   4  -1 124.889 8.15576   6
  -2   4  -1 123.885 8.01287   2
  -2   4  -1 122.905 7.71013   3
  -3   4  -1 287.567 18.2498   2
  -3   4  -1 278.096 18.8870   7
  -3   4  -1 306.414 18.1537   3
  -3   4  -1 304.907 18.7466   6
  -4   4  -1 212.624 18.2676  16
  -4   4  -1 243.353 14.7558   2
  -4   4  -1 260.351 14.5651   3
  -4   4  -1 219.984 14.1915   9
  -4   4  -1 212.276 13.1399  10
  -4   4  -1 247.566 15.3448   6
  -5   4  -1 216.488 11.9737   3
  -5   4  -1 185.743 12.8988   6
  -5   4  -1 193.740 11.8124   9
  -5   4  -1 201.003 15.9473  16
  -5   4  -1 182.367 12.1439   2
  -5   4  -1 170.075 18.1291  14
  -5   4  -1 199.282 14.5706  15
  -5   4  -1 183.149 10.9941  10
  -6   4  -1 32.0806 2.58912  10
  -6   4  -1 27.5501 3.12688   6
  -6   4  -1 40.1000 5.31924  16
  -6   4  -1 35.4421 4.15126  15
  -6   4  -1 31.4838 5.15654  14
  -7   4  -1 232.472 17.7073  16
  -7   4  -1 199.133 20.4990  14
  -7   4  -1 216.477 16.4493  15
  -8   4  -1 3.37060 2.18469  15
  -8   4  -1 4.41392 2.38398  14
  -8   4  -1 2.81130 2.32550  16
  -9   4  -1 67.9305 5.74609  15
  -9   4  -1 59.0891 7.24010  14
  -9  -3   1 2.66526 2.50527  13
  -9  -3   1 1.88087 2.57156  14
  -8  -3   1 49.9509 5.69202  13
  -8  -3   1 44.2483 4.78884  12
  -8  -3   1 57.4248 3.49968  10
  -8  -3   1 50.6379 7.49889  14
  -7  -3   1 -0.8238 1.04342   5
  -7  -3   1 1.90403 1.67014  13
  -7  -3   1 0.44041 0.76426  10
  -7  -3   1 0.82240 1.84635  12
  -7  -3   1 1.68464 3.26788  14
  -6  -3   1 187.160 13.0880  12
  -6  -3   1 202.037 14.8548  13
  -6  -3   1 213.084 18.4139  14
  -6  -3   1 172.707 11.6595   3
  -6  -3   1 183.791 12.3044   5
  -6  -3   1 201.793 10.6930  10
  -6  -3   1 197.174 11.3103   9
  -6  -3   1 179.479 11.7189   2
  -5  -3   1 437.600 24.0732  10
  -5  -3   1 442.783 27.5536   5
  -5  -3   1 416.798 31.4873  13
  -5  -3   1 518.365 39.2368  14
  -5  -3   1 434.668 27.0202   2
  -5  -3   1 424.949 27.2288   3
  -5  -3   1 435.807 25.7030   9
  -5  -3   1 449.566 27.3067  11
  -5  -3   1 459.999 33.3745   8
  -4  -3   1 121.670 7.56358   3
  -4  -3   1 118.174 7.64455   2
  -4  -3   1 121.739 7.92449   5
  -3  -3   1 1089.30 69.2763   3
  -3  -3   1 1175.11 68.3346   2
  -3  -3   1 1150.30 69.0389   5
   2   3  -1 58.6580 3.90833   3
   2   3  -1 57.5140 3.82063   1
   2   3  -1 62.0236 3.79640   1
   2   3  -1 50.3135 4.21492   2
  -2  -3   1 63.3059 3.79993   1
  -2  -3   1 73.1035 5.75118   4
  -2  -3   1 57.2118 3.78397   1
  -2  -3   1 62.7171 4.07118   2
  -2  -3   1 69.0015 3.97773   3
   1   3  -1 144.917 8.93541   1
   1   3  -1 143.818 8.89481   1
   1   3  -1 153.383 9.24603   3
   1   3  -1 129.167 9.39357   2
  -1  -3   1 149.171 9.26807   2
  -1  -3   1 156.255 9.27263   3
  -1  -3   1 141.205 8.89909   1
  -1  -3   1 165.026 12.9647   4
  -1  -3   1 157.648 8.91765   1
   0   3  -1 612.875 37.4392   2
   0   3  -1 633.534 37.7369   3
   0   3  -1 563.288 37.8884   6
   0   3  -1 640.713 36.3908   1
   0   3  -1 588.887 36.3424   1
   0  -3   1 641.062 52.4468   4
   0  -3   1 617.923 36.3609   1
   0  -3   1 624.088 37.2952   2
   0  -3   1 663.446 36.3706   1
   0  -3   1 600.588 37.7572   3
  -1   3  -1 59.9862 3.67263   1
  -1   3  -1 59.6566 4.06880   2
  -1   3  -1 60.3497 4.10391   6
  -1   3  -1 60.9193 3.78217   3
  -1   3  -1 57.9468 3.63689   1
   1  -3   1 63.3225 3.66242   1
   1  -3   1 58.7017 3.80269   3
   1  -3   1 61.7087 3.65878   1
   1  -3   1 54.9535 3.90182   2
  -2   3  -1 438.397 26.6352   3
  -2   3  -1 414.036 25.6722   1
  -2   3  -1 458.851 27.0489   6
  -2   3  -1 408.960 25.6595   1
  -2   3  -1 443.490 26.4977   2
   2  -3   1 444.662 25.6723   1
   2  -3   1 450.194 25.6803   1
  -3   3  -1 570.936 34.2281   2
  -3   3  -1 586.138 34.4903   3
  -3   3  -1 598.345 35.0474   6
  -3   3  -1 503.724 35.0855   7
  -4   3  -1 66.2824 4.04881   3
  -4   3  -1 59.6035 4.29940   2
  -4   3  -1 64.1329 4.72554   6
  -5   3  -1 5.15258 0.47395   3
  -5   3  -1 5.12637 1.91748  15
  -5   3  -1 4.26499 0.80294   2
  -5   3  -1 4.48930 1.09322   9
  -5   3  -1 4.26176 2.05989  14
  -5   3  -1 6.51887 1.45750   6
  -5   3  -1 4.08225 2.08354  13
  -5   3  -1 3.98295 1.92130  16
  -5   3  -1 3.34705 0.82796  10
  -6   3  -1 350.885 31.3154  14
  -6   3  -1 330.830 22.5416   6
  -6   3  -1 412.676 27.0547  16
  -6   3  -1 318.481 25.6901  13
  -6   3  -1 373.587 25.1609  15
  -6   3  -1 332.691 19.1142  10
  -7   3  -1 1.64347 1.59042  15
  -7   3  -1 4.81247 2.56774  13
  -7   3  -1 2.06875 2.88842  14
  -7   3  -1 1.03264 0.73297  10
  -7   3  -1 1.10857 1.45998  16
  -8   3  -1 25.3056 4.00199  15
  -8   3  -1 23.6511 4.83747  14
  -9   3  -1 58.8910 7.84416  14
  -9   3  -1 90.6935 6.94563  15
 -10  -2   1 10.7173 2.21670  13
  -9  -2   1 25.3854 5.30153  14
  -9  -2   1 26.2809 3.64215  13
  -8  -2   1 49.3418 5.18649  12
  -8  -2   1 59.1364 8.03726  14
  -8  -2   1 53.1583 5.95815  13
  -8  -2   1 62.9764 3.78232  10
  -7  -2   1 113.625 11.6547  14
  -7  -2   1 97.1191 8.82286  13
  -7  -2   1 100.393 5.80721  10
  -7  -2   1 99.9738 8.00250  12
  -7  -2   1 82.3426 6.75541   5
  -6  -2   1 195.736 15.0197  13
  -6  -2   1 184.681 12.1531   3
  -6  -2   1 208.590 11.0649  10
  -6  -2   1 203.722 11.6846   9
  -6  -2   1 192.491 12.7733   5
  -6  -2   1 226.464 18.8930  14
  -6  -2   1 193.096 13.6552  12
  -6  -2   1 190.930 12.1502   2
  -5  -2   1 0.77642 0.25487   3
  -5  -2   1 0.83723 0.56293   5
  -5  -2   1 1.14439 0.54059   2
  -4  -2   1 490.919 29.4680   2
  -4  -2   1 483.831 29.8803   5
  -4  -2   1 486.863 29.7850   3
   3   2  -1 1.06915 0.24263   1
   3   2  -1 0.69291 0.25383   1
  -3  -2   1 0.74675 0.24109   3
  -3  -2   1 1.07979 0.43855   2
  -3  -2   1 1.06140 0.45827   5
  -3  -2   1 0.58740 0.20995   1
  -3  -2   1 0.69424 0.19510   1
   2   2  -1 64.5795 4.41197   3
   2   2  -1 61.2050 4.63242   2
   2   2  -1 70.9036 4.31052   1
   2   2  -1 70.3876 4.28086   1
  -2  -2   1 70.4425 4.28015   1
  -2  -2   1 70.1434 4.62786   5
  -2  -2   1 82.7784 6.44220   4
  -2  -2   1 73.8003 4.52543   2
  -2  -2   1 73.7062 4.45748   3
  -2  -2   1 71.0231 4.28569   1
   1   2  -1 8903.63 528.109   1
   1   2  -1 8649.75 539.715   2
   1   2  -1 9522.20 528.224   1
   1   2  -1 7634.04 547.966   3
  -1  -2   1 9999.99 762.855   4
  -1  -2   1 9455.85 539.886   2
  -1  -2   1 9317.14 528.190   1
  -1  -2   1 8660.41 548.279   3
   0   2  -1 105.743 6.58102   3
   0   2  -1 102.348 6.71068   2
   0   2  -1 106.397 6.33997   1
   0   2  -1 109.437 6.36730   1
   0   2  -1 97.4115 6.72017   6
   0  -2   1 114.326 6.35379   1
   0  -2   1 102.823 6.60201   3
   0  -2   1 111.399 6.35474   1
   0  -2   1 107.414 6.60650   2
  -1   2  -1 11.6555 1.12536   6
  -1   2  -1 11.9783 0.81583   1
  -1   2  -1 11.1086 0.83451   1
  -1   2  -1 9.75831 1.13569   2
  -1   2  -1 15.7948 0.87762   3
   1  -2   1 10.5224 1.01068   2
   1  -2   1 12.1359 0.82646   1
   1  -2   1 12.0932 0.82863   1
   1  -2   1 11.8868 0.87433   3
  -2   2  -1 110.799 6.83951   3
  -2   2  -1 111.463 6.60193   1
  -2   2  -1 117.367 6.95405   2
  -2   2  -1 99.0958 6.85178   3
  -2   2  -1 105.572 7.20299   7
  -2   2  -1 100.411 6.58648   1
  -2   2  -1 119.506 7.23577   6
   2  -2   1 115.682 6.60311   1
   2  -2   1 120.093 6.60247   1
  -3   2  -1 2.42759 0.83991   6
  -3   2  -1 1.56718 0.52242   2
  -3   2  -1 1.89209 0.59884   7
  -3   2  -1 1.60509 0.24318   1
  -3   2  -1 1.83500 0.25763   3
  -3   2  -1 1.01717 0.44453   2
  -3   2  -1 1.53722 0.23109   1
  -3   2  -1 2.07658 0.25478   3
  -4   2  -1 8.14058 1.32852   6
  -4   2  -1 6.05153 0.77807   2
  -4   2  -1 7.05136 0.54176   3
  -5   2  -1 336.957 24.4470  13
  -5   2  -1 357.862 20.0370   3
  -5   2  -1 331.361 20.9345   6
  -5   2  -1 304.982 17.9394  10
  -5   2  -1 307.476 19.8633   2
  -5   2  -1 330.163 23.2067  15
  -6   2  -1 76.1069 4.77559  10
  -6   2  -1 77.7567 7.73689  13
  -6   2  -1 79.0879 6.17600   6
  -6   2  -1 88.3110 7.74368  16
  -6   2  -1 81.0634 8.90891  14
  -6   2  -1 86.1758 7.29818  15
  -7   2  -1 11.0932 3.33325  14
  -7   2  -1 12.3096 2.77892  15
  -7   2  -1 11.6037 3.15785  13
  -7   2  -1 10.0902 1.17856  10
  -7   2  -1 9.18260 2.07949   6
  -8   2  -1 62.9188 8.29789  14
  -8   2  -1 49.7614 6.11036  13
  -8   2  -1 62.7854 6.31770  15
  -9   2  -1 5.48897 2.22020  15
  -9   2  -1 3.20114 2.43945  14
 -10   2  -1 28.0702 3.98829  14
 -10  -1   1 9.98966 2.08705  13
 -10  -1   1 19.4487 3.54101  14
  -9  -1   1 19.2563 3.57235  13
  -9  -1   1 20.0569 4.79655  14
  -8  -1   1 0.48322 0.59291  10
  -8  -1   1 1.82317 2.56905  14
  -8  -1   1 0.45897 2.06357  12
  -8  -1   1 -0.3111 2.22684  13
  -7  -1   1 129.882 9.88274  12
  -7  -1   1 134.477 13.2647  14
  -7  -1   1 131.639 7.41572  10
  -7  -1   1 130.396 10.8228  13
  -7  -1   1 115.179 8.72944   5
  -6  -1   1 0.89334 0.60641  10
  -6  -1   1 0.52551 0.20429   3
  -6  -1   1 -0.3593 1.48075  12
  -6  -1   1 0.68141 2.13199  14
  -6  -1   1 0.88522 0.66899   9
  -6  -1   1 0.97743 0.92643   5
  -6  -1   1 -0.1290 1.60102  13
  -6  -1   1 0.64124 0.44376   2
  -5  -1   1 2.81486 0.79686   6
  -5  -1   1 3.80480 0.92909   5
  -5  -1   1 3.26413 0.58513   2
  -5  -1   1 4.56863 0.46351   3
  -4  -1   1 161.687 10.2661   6
  -4  -1   1 159.399 9.96165   2
  -4  -1   1 161.828 9.97200   3
  -4  -1   1 163.747 10.2393   5
   3   1  -1 1055.59 58.4971   1
   3   1  -1 1003.54 58.5147   1
  -3  -1   1 911.101 58.4707   1
  -3  -1   1 1013.35 59.8454   2
  -3  -1   1 847.366 59.9079   2
  -3  -1   1 1004.22 58.4928   1
  -3  -1   1 1061.26 60.4633   5
  -3  -1   1 1082.93 60.7202   3
   2   1  -1 195.136 13.0530   3
   2   1  -1 184.338 13.0500   2
   2   1  -1 230.785 12.6120   1
   2   1  -1 218.032 12.6242   1
  -2  -1   1 215.035 12.6014   1
  -2  -1   1 223.607 12.9812   2
  -2  -1   1 217.099 13.1304   5
  -2  -1   1 224.072 13.0860   3
  -2  -1   1 211.343 12.6081   1
   1   1  -1 770.530 47.2001   2
   1   1  -1 707.460 47.8049   3
   1   1  -1 852.748 46.0937   1
   1   1  -1 801.495 46.0747   1
  -1  -1   1 814.654 46.0833   1
  -1  -1   1 811.128 47.1297   2
  -1  -1   1 731.757 47.8274   3
  -1  -1   1 799.669 46.1387   1
   0   1  -1 2220.87 131.036   2
   0   1  -1 2377.40 128.428   1
   0   1  -1 1867.48 133.180   3
   0   1  -1 2145.73 133.169   6
   0   1  -1 2280.45 128.425   1
   0  -1   1 2255.95 128.367   1
   0  -1   1 1948.73 133.238   3
   0  -1   1 2237.11 130.988   2
   0  -1   1 2368.75 128.510   1
  -1   1  -1 1.65219 0.25097   3
  -1   1  -1 1.03194 0.38547   2
  -1   1  -1 1.05869 0.22418   1
  -1   1  -1 0.54556 0.52466   6
  -1   1  -1 0.92884 0.31089   2
  -1   1  -1 1.15674 0.20513   1
   1  -1   1 1.36389 0.21275   1
   1  -1   1 1.08081 0.23061   1
  -2   1  -1 167.289 11.4071   3
  -2   1  -1 198.379 11.5842   5
  -2   1  -1 193.755 11.4020   3
  -2   1  -1 196.997 10.9925   1
  -2   1  -1 184.226 10.9881   1
  -2   1  -1 158.947 11.2912   2
  -2   1  -1 197.339 11.7307   6
  -2   1  -1 172.705 11.6913   7
  -2   1  -1 199.135 11.3423   2
   2  -1   1 198.273 10.9906   1
  -3   1  -1 486.192 27.9608   5
  -3   1  -1 473.371 27.4763   2
  -3   1  -1 426.689 27.8138   3
  -3   1  -1 497.658 28.2778   6
  -3   1  -1 445.733 26.7898   1
  -3   1  -1 498.114 27.8093   3
  -3   1  -1 407.564 27.4491   2
  -3   1  -1 438.695 26.7968   1
  -3   1  -1 453.614 28.2165   7
   3  -1   1 458.372 26.7955   1
   3  -1   1 450.108 26.7869   1
  -4   1  -1 116.962 7.44170   1
  -4   1  -1 138.886 7.72110   3
  -4   1  -1 121.968 7.70646   2
  -4   1  -1 120.036 7.72516   3
  -4   1  -1 126.303 8.33986   6
  -4   1  -1 129.170 7.72229   2
  -4   1  -1 131.191 8.18506   5
  -5   1  -1 51.3627 4.10243   6
  -5   1  -1 53.0637 3.94279   5
  -6   1  -1 37.9388 3.86396  12
  -6   1  -1 32.1649 3.05672   6
  -6   1  -1 33.9070 4.36926  15
  -6   1  -1 38.3364 5.49491  14
  -6   1  -1 29.8360 2.83134   5
  -6   1  -1 30.4200 2.15295  10
  -6   1  -1 33.7765 4.15697  13
  -7   1  -1 158.927 15.1404  14
  -7   1  -1 131.154 10.4498   6
  -7   1  -1 159.673 11.2861  12
  -7   1  -1 150.834 8.42917  10
  -7   1  -1 163.597 12.8543  13
  -7   1  -1 157.192 12.4346  15
  -8   1  -1 0.38555 1.75665  15
  -8   1  -1 0.11616 1.77081  13
  -8   1  -1 3.03953 3.17831  14
  -9   1  -1 95.1634 7.66047  15
  -9   1  -1 74.7749 9.14580  14
  -9   1  -1 75.4316 7.45095  13
 -10   1  -1 8.01633 1.79163  15
 -10   1  -1 8.75559 2.64241  14
 -10   0   1 12.7378 3.05392  14
 -10   0   1 23.9520 2.79515  13
  -9   0   1 2.29062 1.72330  13
  -9   0   1 3.60783 2.58334  14
  -8   0   1 37.3451 5.02678  13
  -8   0   1 32.1174 5.66313  14
  -8   0   1 35.6417 2.50701  10
  -8   0   1 34.9316 4.70639  15
  -7   0   1 42.9475 2.97387  10
  -7   0   1 40.3353 3.61918   5
  -7   0   1 38.8411 4.42546  12
  -7   0   1 45.2215 6.10668  14
  -7   0   1 48.9503 5.57565  13
  -7   0   1 46.9444 5.12422  15
  -6   0   1 70.7816 6.52670  13
  -6   0   1 66.6624 4.12366  10
  -6   0   1 64.5436 4.19909   3
  -6   0   1 66.6875 4.30681   2
  -6   0   1 62.8940 5.66491  12
  -6   0   1 66.3378 6.17967  15
  -6   0   1 67.1853 4.94658   5
  -6   0   1 65.3260 4.91841   6
  -6   0   1 67.8199 4.26626   9
  -6   0   1 71.3485 7.57165  14
  -5   0   1 130.580 8.16734   5
  -5   0   1 125.730 7.69849   2
  -5   0   1 122.834 7.66310   3
  -5   0   1 114.518 8.18288   6
  -4   0   1 128.333 8.45072   6
  -4   0   1 134.129 8.07460   3
  -4   0   1 133.592 8.38173   5
  -4   0   1 125.423 8.07045   2
   3   0  -1 463.043 26.6905   1
   3   0  -1 477.509 26.7115   1
  -3   0   1 434.274 26.6852   1
  -3   0   1 384.122 27.4046   2
  -3   0   1 387.766 27.6498   3
  -3   0   1 472.458 27.6921   3
  -3   0   1 487.614 27.7178   5
  -3   0   1 436.939 26.6691   1
  -3   0   1 528.505 27.9888   6
  -3   0   1 477.841 27.3634   2
   2   0  -1 245.901 17.1035   3
   2   0  -1 296.137 16.5261   1
   2   0  -1 292.873 16.5107   1
  -2   0   1 290.373 17.1279   3
  -2   0   1 288.330 17.1280   5
  -2   0   1 280.993 16.5015   1
  -2   0   1 297.729 16.9511   2
  -2   0   1 253.157 17.1010   3
   1   0  -1 694.957 38.6684   1
   1   0  -1 614.398 40.0513   3
   1   0  -1 683.234 38.6926   1
   1   0  -1 634.009 39.5217   2
  -1   0   1 622.367 39.7951   5
  -1   0   1 671.000 39.4805   2
  -1   0   1 678.131 38.6915   1
  -1   0   1 649.801 40.0661   3
  -1   0   1 684.405 38.6611   1
   0   0  -1 11.2701 0.96835   2
   0   0  -1 12.1357 0.88171   3
   0   0  -1 12.8043 0.86228   1
   0   0  -1 10.4648 1.01599   7
   0   0  -1 12.5189 0.86786   1
   0   0   1 13.7991 0.86571   1
   0   0   1 12.7751 0.86882   1
   0   0   1 10.9692 0.89161   3
   0   0   1 11.7568 0.93053   2
  -1   0  -1 998.132 60.5569   6
  -1   0  -1 1017.13 59.5601   2
  -1   0  -1 994.072 60.4850   3
  -1   0  -1 926.198 59.5110   2
  -1   0  -1 926.303 60.4793   3
  -1   0  -1 901.898 84.0559   4
  -1   0  -1 987.465 58.2665   1
  -1   0  -1 1046.56 58.2871   1
  -1   0  -1 971.716 60.9048   7
  -1   0  -1 1018.72 60.0139   5
   1   0   1 1085.50 58.2882   1
   1   0   1 1054.82 58.2828   1
  -2   0  -1 111.077 6.38409   1
  -2   0  -1 107.869 6.38580   1
  -2   0  -1 116.243 9.41092   4
  -2   0  -1 107.757 6.55079   2
  -2   0  -1 112.457 6.62608   3
  -2   0  -1 100.454 6.86044   7
  -2   0  -1 103.484 6.62774   3
  -2   0  -1 106.403 6.89859   6
  -2   0  -1 98.1658 6.54561   2
  -2   0  -1 115.994 6.80533   5
   2   0   1 117.364 6.38683   1
  -3   0  -1 88.3969 5.47413   5
  -3   0  -1 86.5673 5.11532   2
  -3   0  -1 96.3427 7.49887   4
  -3   0  -1 82.3644 4.96275   1
  -3   0  -1 79.8913 5.11420   2
  -3   0  -1 82.1443 4.95919   1
  -3   0  -1 88.1300 5.57707   6
  -3   0  -1 80.3355 5.14922   3
  -3   0  -1 71.9512 5.39610   7
  -3   0  -1 90.8406 5.15092   3
   3   0   1 83.0260 4.95929   1
   3   0   1 84.7607 4.96269   1
  -4   0  -1 755.539 49.4232   3
  -4   0  -1 877.749 49.4375   3
  -4   0  -1 907.371 49.5331   5
  -4   0  -1 709.846 47.5793   1
  -4   0  -1 832.393 49.9628   6
  -5   0  -1 8.08972 1.24805   5
  -5   0  -1 6.67769 1.28027   6
  -6   0  -1 132.343 10.8047  13
  -6   0  -1 127.211 8.78536   5
  -6   0  -1 126.712 8.92415   6
  -6   0  -1 127.536 10.3805  15
  -6   0  -1 131.646 9.58973  12
  -6   0  -1 135.583 8.79076  11
  -6   0  -1 130.597 7.27596  10
  -6   0  -1 138.030 13.1535  14
  -7   0  -1 0.70512 1.95267  12
  -7   0  -1 0.35016 2.13124  13
  -7   0  -1 1.04130 2.55008  14
  -7   0  -1 0.38657 1.99866  15
  -7   0  -1 0.08811 0.43174  10
  -7   0  -1 0.80686 1.00701   5
  -8   0  -1 79.3516 8.17083  13
  -8   0  -1 77.8235 6.83718  12
  -8   0  -1 82.3942 7.84103  15
  -8   0  -1 83.7293 10.2193  14
  -9   0  -1 39.3054 6.07449  14
  -9   0  -1 29.8803 4.57328  13
  -9   0  -1 29.0838 3.89402  15
 -10   0  -1 25.2403 3.51095  13
 -10   0  -1 37.5260 4.94319  14
  -9   1   1 76.1420 6.91312  15
  -9   1   1 66.9378 7.00540  13
  -9   1   1 67.8889 8.33733  14
  -8   1   1 99.7255 8.81686  15
  -8   1   1 88.6768 8.47695  13
  -8   1   1 97.6188 10.5437  14
  -8   1   1 93.3780 5.59726  10
  -7   1   1 52.2920 3.29084  10
  -7   1   1 54.2516 5.91752  13
  -7   1   1 55.1606 7.11404  14
  -7   1   1 45.8577 4.07032   5
  -7   1   1 31.5680 4.25796   6
  -7   1   1 54.7609 5.41337  15
  -6   1   1 56.4654 5.47790  15
  -6   1   1 58.6970 6.70932  14
  -6   1   1 62.0109 6.06895  13
  -6   1   1 56.1240 4.41853   5
  -6   1   1 65.5909 5.66755  12
  -6   1   1 54.7921 4.54078   6
  -6   1   1 56.1800 3.84016   9
  -6   1   1 55.7633 3.78636   2
  -6   1   1 57.6383 3.64413   3
  -6   1   1 56.8775 3.66678  10
  -5   1   1 132.179 8.77700   5
  -5   1   1 130.969 8.92193   6
  -5   1   1 133.870 8.28115   3
  -5   1   1 135.718 8.32373   2
  -4   1   1 2135.41 133.696   3
  -4   1   1 2320.40 133.740   6
  -4   1   1 2171.77 132.567   5
  -4   1   1 2144.12 131.228   2
   3  -1  -1 7.82810 0.60831   1
   3  -1  -1 8.19495 0.62529   1
  -3   1   1 6.86225 0.89971   2
  -3   1   1 6.73630 0.57971   1
  -3   1   1 7.36814 0.61806   1
  -3   1   1 8.34186 0.84852   2
  -3   1   1 7.28807 0.90701   6
  -3   1   1 6.40589 0.54412   3
  -3   1   1 8.71705 1.05313   5
  -3   1   1 7.65125 0.60295   3
   2  -1  -1 489.044 35.9773   3
   2  -1  -1 621.198 34.7059   1
   2  -1  -1 609.754 34.6966   1
  -2   1   1 567.523 34.6786   1
  -2   1   1 602.157 36.0015   3
  -2   1   1 607.115 35.5136   2
  -2   1   1 646.162 35.8921   5
   1  -1  -1 720.385 41.7085   1
   1  -1  -1 660.372 43.2160   3
   1  -1  -1 758.626 41.7527   1
   1  -1  -1 628.714 42.6136   2
  -1   1   1 756.198 41.7218   1
  -1   1   1 737.343 42.9640   5
  -1   1   1 677.993 43.2252   3
  -1   1   1 740.116 42.5976   2
  -1   1   1 721.826 41.7806   1
   0  -1  -1 22.6729 1.78576   2
   0  -1  -1 24.3084 1.85624   7
   0  -1  -1 28.7483 1.69269   1
   0  -1  -1 29.4935 1.68887   1
   0  -1  -1 28.0470 1.74397   3
   0   1   1 30.0242 1.69506   1
   0   1   1 26.7874 1.68521   1
   0   1   1 25.4377 1.77229   2
   0   1   1 26.7984 1.74851   3
  -1  -1  -1 1728.12 98.3686   1
  -1  -1  -1 1607.75 102.743   7
  -1  -1  -1 1783.10 100.572   2
  -1  -1  -1 1693.30 102.106   3
  -1  -1  -1 1586.80 142.282   4
  -1  -1  -1 1452.69 102.092   3
  -1  -1  -1 1641.73 102.204   6
  -1  -1  -1 1659.40 100.544   2
  -1  -1  -1 1662.43 101.430   5
   1   1   1 1857.81 98.3960   1
   1   1   1 1798.86 98.3957   1
  -2  -1  -1 33.8263 2.08878   3
  -2  -1  -1 31.4649 2.34631   7
  -2  -1  -1 34.1998 2.00985   1
  -2  -1  -1 31.2238 2.07795   3
  -2  -1  -1 33.9578 2.28508   5
  -2  -1  -1 35.4076 3.19263   4
  -2  -1  -1 33.3796 2.07791   2
  -2  -1  -1 31.6663 2.00801   1
  -2  -1  -1 34.3279 2.30767   6
  -2  -1  -1 32.8725 2.09129   2
   2   1   1 34.5348 2.01591   1
   2   1   1 34.3872 2.00866   1
  -3  -1  -1 1619.29 97.5794   2
  -3  -1  -1 1519.15 99.1606   3
  -3  -1  -1 1672.06 99.2493   3
  -3  -1  -1 1816.93 138.131   4
  -3  -1  -1 1585.44 95.5540   1
  -3  -1  -1 1604.32 99.3596   6
  -3  -1  -1 1713.58 97.6709   2
  -3  -1  -1 1780.85 98.5778   5
  -3  -1  -1 1486.16 95.5328   1
  -3  -1  -1 1515.02 99.8945   7
   3   1   1 1633.91 95.5613   1
  -4  -1  -1 167.734 10.3146   3
  -4  -1  -1 167.679 10.7773   6
  -4  -1  -1 154.302 10.3125   3
  -4  -1  -1 190.991 14.8945   4
  -4  -1  -1 178.187 10.7007   5
  -5  -1  -1 86.3489 6.12136   6
  -5  -1  -1 94.9329 6.14147   5
  -6  -1  -1 25.3982 4.29812  14
  -6  -1  -1 21.6965 2.99534  12
  -6  -1  -1 23.4009 2.65409  11
  -6  -1  -1 22.8880 3.52503  13
  -6  -1  -1 23.3251 2.33877   5
  -6  -1  -1 21.7879 3.20879  15
  -6  -1  -1 22.4006 1.58508  10
  -7  -1  -1 71.3108 8.38767  14
  -7  -1  -1 69.0681 6.35954  15
  -7  -1  -1 64.9846 5.20165   5
  -7  -1  -1 76.7177 6.94746  13
  -7  -1  -1 74.5691 6.58217  12
  -7  -1  -1 69.6670 4.00445  10
  -8  -1  -1 145.853 11.2602  12
  -8  -1  -1 147.375 11.8130  15
  -8  -1  -1 151.275 15.7048  14
  -8  -1  -1 148.574 12.6015  13
  -9  -1  -1 7.81434 2.42165  13
  -9  -1  -1 4.19616 3.67641  14
 -10  -1  -1 41.7360 4.47363  13
 -10  -1  -1 38.2307 5.64243  14
 -10   2   1 5.25778 1.98198  14
  -9   2   1 63.7268 5.97291  15
  -9   2   1 67.8506 7.36149  14
  -9   2   1 45.1858 5.47147  13
  -8   2   1 70.1884 7.56384  13
  -8   2   1 78.2574 4.96994  10
  -8   2   1 85.7278 9.49075  14
  -8   2   1 111.938 8.67811  15
  -7   2   1 108.328 11.2881  14
  -7   2   1 103.153 6.17232  10
  -7   2   1 109.961 9.34869  15
  -7   2   1 99.7051 9.37995  13
  -7   2   1 96.3994 7.65604   6
  -6   2   1 2.63262 0.90593   5
  -6   2   1 2.93971 1.94048  13
  -6   2   1 3.44203 1.92547  15
  -6   2   1 2.21814 0.63918   2
  -6   2   1 2.82996 2.26696  14
  -6   2   1 2.38931 0.76684  10
  -6   2   1 1.87030 0.80468   9
  -6   2   1 2.41837 0.36462   3
  -6   2   1 3.05300 1.29038   6
  -5   2   1 390.591 24.2338   6
  -5   2   1 370.201 23.9200   5
  -5   2   1 390.550 23.5233   3
  -4   2   1 4.25997 0.47232   3
  -4   2   1 4.80536 0.68049   2
  -4   2   1 5.31406 1.08516   6
  -4   2   1 5.48080 1.01863   5
   3  -2  -1 282.236 17.4840   1
   3  -2  -1 315.140 17.4967   1
  -3   2   1 299.822 18.3103   5
  -3   2   1 272.367 17.4544   1
  -3   2   1 328.685 18.0190   2
  -3   2   1 265.120 17.4825   1
  -3   2   1 304.352 18.1314   3
  -3   2   1 312.151 18.4859   6
   2  -2  -1 414.508 28.5175   3
   2  -2  -1 484.330 27.5100   1
   2  -2  -1 402.387 28.2204   2
   2  -2  -1 504.111 27.5133   1
  -2   2   1 502.231 28.7737   6
  -2   2   1 455.224 27.5104   1
  -2   2   1 511.148 28.2202   2
  -2   2   1 457.363 27.4871   1
  -2   2   1 474.357 28.5386   5
  -2   2   1 480.562 28.5373   3
   1  -2  -1 74.8955 4.38639   1
   1  -2  -1 72.2735 4.53377   3
   1  -2  -1 80.2462 4.38942   1
   1  -2  -1 68.8702 4.61008   2
  -1   2   1 73.2598 4.37420   1
  -1   2   1 76.3536 4.60013   2
  -1   2   1 68.6138 4.53660   3
  -1   2   1 67.6292 4.38265   1
   0  -2  -1 4314.13 233.788   1
   0  -2  -1 3602.14 242.546   3
   0  -2  -1 3854.51 239.089   2
   0  -2  -1 4239.70 233.794   1
   0   2   1 3881.74 233.707   1
   0   2   1 3973.46 239.089   2
   0   2   1 4053.12 233.785   1
  -1  -2  -1 50.0061 3.04658   1
  -1  -2  -1 50.7823 3.16971   3
  -1  -2  -1 48.4286 4.59182   4
  -1  -2  -1 49.7643 3.22168   2
  -1  -2  -1 44.5544 3.15743   3
  -1  -2  -1 48.7443 3.19658   2
  -1  -2  -1 54.6202 3.05488   1
   1   2   1 52.8648 3.05869   1
   1   2   1 52.3436 3.04985   1
  -2  -2  -1 80.4738 5.13638   2
  -2  -2  -1 88.3175 5.09914   2
  -2  -2  -1 88.8120 7.37793   4
  -2  -2  -1 84.2093 4.92443   1
  -2  -2  -1 82.6153 5.25224   5
  -2  -2  -1 76.5977 5.08826   3
  -2  -2  -1 74.9084 5.15822   6
  -2  -2  -1 83.3758 4.91920   1
  -2  -2  -1 87.1784 5.11918   3
   2   2   1 84.6209 4.92081   1
   2   2   1 84.0710 4.93286   1
  -3  -2  -1 149.482 9.97629   3
  -3  -2  -1 172.514 10.2109   5
  -3  -2  -1 180.698 14.3096   4
  -3  -2  -1 164.552 9.63655   1
  -3  -2  -1 167.899 9.95792   2
  -3  -2  -1 169.656 9.90753   2
  -3  -2  -1 151.688 9.62880   1
  -3  -2  -1 174.642 10.0138   3
  -3  -2  -1 149.167 10.1489   6
   3   2   1 161.324 9.64901   1
   3   2   1 162.699 9.63250   1
  -4  -2  -1 249.255 16.4686   3
  -4  -2  -1 246.151 15.8823   1
  -4  -2  -1 270.799 16.3230   2
  -4  -2  -1 298.625 16.5040   3
  -4  -2  -1 319.793 23.5270   4
  -4  -2  -1 266.683 16.7797   6
  -4  -2  -1 300.355 16.8084   5
  -4  -2  -1 274.529 16.2832   2
   4   2   1 228.134 15.8894   1
  -5  -2  -1 102.204 6.78063   5
  -6  -2  -1 17.1684 2.56244  12
  -6  -2  -1 13.4941 3.57755  14
  -6  -2  -1 14.8688 2.09213  11
  -6  -2  -1 17.3102 3.05094  13
  -6  -2  -1 13.3564 1.73152   5
  -6  -2  -1 12.4311 1.10465  10
  -7  -2  -1 182.467 11.4138  11
  -7  -2  -1 176.482 13.7624  13
  -7  -2  -1 170.421 9.25866  10
  -7  -2  -1 176.564 17.0200  14
  -7  -2  -1 143.814 11.0882   5
  -7  -2  -1 176.970 12.3724  12
  -8  -2  -1 71.3032 6.67116  12
  -8  -2  -1 80.3696 9.67615  14
  -8  -2  -1 83.2304 7.70783  13
  -9  -2  -1 37.3176 6.13562  14
  -9  -2  -1 27.7074 4.38690  13
  -9  -2  -1 38.1648 3.94272  12
 -10  -2  -1 0.69515 1.62580  13
 -10  -2  -1 -0.7563 1.62415  14
  -9   3   1 0.57266 2.02240  14
  -9   3   1 -0.1449 1.53636  15
  -8   3   1 15.0685 1.56870  10
  -8   3   1 12.3080 3.00278  13
  -8   3   1 16.7050 3.26560  15
  -8   3   1 13.2264 3.95489  14
  -7   3   1 14.0654 1.59546  10
  -7   3   1 12.0570 3.67584  14
  -7   3   1 10.1071 2.16216   6
  -7   3   1 12.9607 2.96881  13
  -7   3   1 15.6292 3.00533  15
  -6   3   1 145.752 9.78596   6
  -6   3   1 127.304 11.3353  13
  -6   3   1 151.549 13.9992  14
  -6   3   1 136.329 8.13942  10
  -6   3   1 134.215 8.85688   2
  -6   3   1 143.296 11.2450  15
  -6   3   1 144.466 8.69906   3
  -6   3   1 135.186 8.70316   9
  -5   3   1 138.237 8.59201   2
  -5   3   1 132.189 7.83549  10
  -5   3   1 133.122 9.17039   6
  -5   3   1 140.943 8.43719   3
  -5   3   1 138.199 10.5312  15
  -5   3   1 124.927 8.37015   9
  -4   3   1 1.14904 0.50304   2
  -4   3   1 1.39959 0.27187   3
  -4   3   1 0.66596 0.74207   6
  -3   3   1 409.789 24.9303   6
  -3   3   1 433.855 24.3961   2
  -3   3   1 409.851 24.5490   3
  -3   3   1 358.727 23.6312   1
   2  -3  -1 1.08989 0.25063   1
   2  -3  -1 0.77975 0.21275   3
   2  -3  -1 1.51810 0.26214   1
   2  -3  -1 0.58542 0.50315   2
  -2   3   1 1.26893 0.48751   2
  -2   3   1 0.72613 0.23281   1
  -2   3   1 2.41308 0.65937   6
  -2   3   1 1.01170 0.21982   1
  -2   3   1 0.76160 0.22929   3
   1  -3  -1 108.186 6.13418   1
   1  -3  -1 105.225 6.11751   1
   1  -3  -1 106.468 6.34504   3
   1  -3  -1 97.3023 6.41535   2
  -1   3   1 99.1869 6.10889   1
  -1   3   1 105.211 6.49859   6
  -1   3   1 104.064 6.44436   2
  -1   3   1 97.1704 6.33694   3
  -1   3   1 96.8594 6.12089   1
   0  -3  -1 -1.8515 0.17305   1
   0  -3  -1 -1.7260 0.19181   3
   0  -3  -1 -2.0632 0.43824   4
   0  -3  -1 -0.1695 0.23434   1
   0  -3  -1 -0.6441 0.47236   2
   0   3   1 -1.5244 0.18593   1
   0   3   1 -1.6353 0.26464   6
   0   3   1 -1.9236 0.17402   3
   0   3   1 -1.3391 0.46441   2
   0   3   1 -1.7020 0.18628   1
  -1  -3  -1 399.489 23.5501   3
  -1  -3  -1 411.321 22.6865   1
  -1  -3  -1 383.999 32.9168   4
   1   3   1 330.317 23.3336   2
   1   3   1 382.632 22.6740   1
   1   3   1 401.306 22.6931   1
  -2  -3  -1 86.4867 5.13433   1
  -2  -3  -1 85.8979 5.13073   1
  -2  -3  -1 72.1127 5.29030   3
  -2  -3  -1 95.1422 5.34479   3
  -2  -3  -1 80.3007 5.40738   2
  -2  -3  -1 82.2866 5.49138   5
  -2  -3  -1 94.6041 5.38024   2
  -2  -3  -1 92.6566 7.72876   4
   2   3   1 88.1716 5.15503   1
   2   3   1 83.5682 5.12862   1
  -3  -3  -1 46.5031 4.07859   4
  -3  -3  -1 40.7368 2.85166   5
  -3  -3  -1 44.0115 2.67162   2
  -3  -3  -1 37.4247 2.47964   1
  -3  -3  -1 39.5993 2.73162   2
  -3  -3  -1 40.6803 2.49118   1
  -3  -3  -1 36.4060 2.54042   3
  -3  -3  -1 46.3071 2.60623   3
   3   3   1 39.1283 2.50756   1
  -4  -3  -1 307.140 24.9815   4
  -4  -3  -1 303.679 17.5737   3
  -4  -3  -1 279.998 17.8141   5
  -4  -3  -1 259.570 17.3590   2
  -5  -3  -1 199.133 11.7732   3
  -5  -3  -1 192.231 12.2840   5
  -5  -3  -1 177.034 11.6450   2
  -5  -3  -1 205.736 17.1521   4
  -6  -3  -1 274.206 18.1678   5
  -6  -3  -1 304.665 26.1371  14
  -6  -3  -1 297.291 21.3827  13
  -6  -3  -1 277.485 15.5955  10
  -6  -3  -1 305.316 19.4517  12
  -6  -3  -1 282.491 18.1638  11
  -7  -3  -1 2.34637 3.07844  14
  -7  -3  -1 3.39893 1.67690  11
  -7  -3  -1 5.20738 2.13881  12
  -7  -3  -1 2.51402 1.85738  13
  -7  -3  -1 2.26161 1.13125   5
  -7  -3  -1 3.44922 0.65165  10
  -8  -3  -1 -0.5301 2.52146  13
  -8  -3  -1 -0.4178 3.59421  14
  -8  -3  -1 2.59777 2.37315  12
  -9  -3  -1 27.1660 4.74357  14
  -9  -3  -1 31.5181 3.50872  12
  -9  -3  -1 19.2854 3.32376  13
 -10  -3  -1 18.0284 2.78178  13
 -10  -3  -1 11.6716 2.74663  14
  -9   4   1 52.3259 7.12139  14
  -9   4   1 74.5126 5.97126  15
  -8   4   1 50.2946 3.31022  10
  -8   4   1 49.5596 5.75575  15
  -8   4   1 45.2037 7.01256  14
  -7   4   1 63.1492 4.30028  10
  -7   4   1 65.5331 8.28378  14
  -7   4   1 68.0283 6.78711  15
  -6   4   1 149.080 9.54189   9
  -6   4   1 167.079 9.55063   3
  -6   4   1 161.046 13.0653  16
  -6   4   1 152.099 14.9919  14
  -6   4   1 143.745 9.74333   2
  -6   4   1 143.131 10.5194   6
  -6   4   1 166.381 12.1732  15
  -6   4   1 158.694 8.99566  10
  -6   4   1 123.676 12.1678  13
  -5   4   1 2.76288 1.68248  14
  -5   4   1 3.38232 1.10783   9
  -5   4   1 1.06936 1.77872  16
  -5   4   1 3.27649 1.92200  13
  -5   4   1 3.20663 0.81027   8
  -5   4   1 2.00469 0.72262   2
  -5   4   1 2.10861 0.38874   3
  -5   4   1 1.59553 1.45312  15
  -5   4   1 2.16452 1.11415   6
  -5   4   1 2.03355 0.68499  10
  -4   4   1 232.891 15.0564   6
  -4   4   1 236.040 14.4968   3
  -4   4   1 235.415 14.6066   2
  -3   4   1 16.4293 1.54465   2
  -3   4   1 16.4508 1.60737   6
  -3   4   1 15.5379 1.18944   3
   2  -4  -1 457.641 24.5170   1
   2  -4  -1 416.164 24.5238   1
  -2   4   1 386.642 24.4793   1
  -2   4   1 350.633 24.5031   1
  -2   4   1 445.401 25.3238   2
  -2   4   1 426.797 25.7267   6
  -2   4   1 429.030 25.4253   3
   1  -4  -1 291.218 15.8090   1
   1  -4  -1 281.155 16.3712   2
   1  -4  -1 222.051 22.8328   4
   1  -4  -1 280.964 16.4007   3
   1  -4  -1 279.589 15.8211   1
  -1   4   1 261.741 15.7936   1
  -1   4   1 262.350 16.3885   3
  -1   4   1 270.296 16.5746   6
  -1   4   1 249.410 15.7978   1
  -1   4   1 277.696 16.4248   2
   0  -4  -1 821.226 46.8907   3
   0  -4  -1 820.788 46.3237   2
   0  -4  -1 749.389 65.3019   4
   0  -4  -1 806.070 45.1628   1
   0  -4  -1 808.556 45.1759   1
   0   4   1 688.150 46.8592   3
   0   4   1 734.810 45.1553   1
   0   4   1 769.022 46.9525   6
   0   4   1 725.546 46.3735   2
   0   4   1 771.157 45.1678   1
  -1  -4  -1 190.442 10.7168   1
  -1  -4  -1 191.253 15.6623   4
  -1  -4  -1 182.119 10.7073   1
  -1  -4  -1 184.656 11.1180   2
  -1  -4  -1 209.862 11.1419   3
   1   4   1 181.066 10.7253   1
   1   4   1 156.442 11.0902   3
   1   4   1 178.539 10.7018   1
   1   4   1 145.450 11.1784   2
  -2  -4  -1 143.155 9.33596   1
  -2  -4  -1 169.512 9.71979   3
  -2  -4  -1 174.481 13.8192   4
  -2  -4  -1 164.337 9.73097   2
   2   4   1 151.455 9.33986   1
   2   4   1 145.054 9.36460   1
  -3  -4  -1 329.307 27.8011   4
  -3  -4  -1 321.796 19.7081   3
  -3  -4  -1 314.539 19.5384   2
  -3  -4  -1 321.440 19.9187   5
  -4  -4  -1 139.566 9.19169   5
  -4  -4  -1 149.392 12.8434   4
  -4  -4  -1 138.331 8.82335   2
  -4  -4  -1 142.497 8.80732   3
  -5  -4  -1 467.457 27.9251   5
  -5  -4  -1 458.937 29.2010  12
  -5  -4  -1 456.017 27.4573   3
  -5  -4  -1 402.811 25.6916   9
  -5  -4  -1 431.107 32.0455  13
  -5  -4  -1 499.454 39.0630   4
  -5  -4  -1 449.871 24.2377  10
  -5  -4  -1 427.215 27.1456   2
  -5  -4  -1 467.059 27.6890  11
  -6  -4  -1 63.2086 6.50886  13
  -6  -4  -1 56.8215 7.76207  14
  -6  -4  -1 61.2209 3.74100  10
  -6  -4  -1 60.9221 5.76287  12
  -6  -4  -1 64.2008 4.82473  11
  -6  -4  -1 56.2415 4.65244   5
  -7  -4  -1 51.0466 3.13610  10
  -7  -4  -1 54.2239 4.36201  11
  -7  -4  -1 49.6383 5.34847  12
  -7  -4  -1 36.9071 4.04624   5
  -7  -4  -1 51.1775 5.69042  13
  -7  -4  -1 50.6663 6.95989  14
  -8  -4  -1 277.187 26.2429  14
  -8  -4  -1 301.833 21.7587  13
  -8  -4  -1 267.473 19.0627  12
  -9  -4  -1 10.2546 3.30191  14
  -9  -4  -1 9.83056 2.56390  12
  -9  -4  -1 12.5819 3.04712  13
 -10  -4  -1 25.1265 3.41011  13
  -9   5   1 34.1591 3.63907  15
  -8   5   1 39.4898 6.26494  14
  -8   5   1 46.4769 3.04077  10
  -8   5   1 43.6883 5.04040  15
  -7   5   1 101.255 8.80809  15
  -7   5   1 103.698 9.67861  16
  -7   5   1 94.7864 10.8580  14
  -7   5   1 103.105 6.26757  10
  -6   5   1 3.21587 0.95048  10
  -6   5   1 4.33588 2.09181  16
  -6   5   1 2.41484 1.27809   6
  -6   5   1 3.14301 2.64279  14
  -6   5   1 4.16785 1.96261  15
  -6   5   1 3.71175 1.25775   9
  -5   5   1 198.519 11.7210  10
  -5   5   1 216.448 15.1328  15
  -5   5   1 209.276 13.5671   6
  -5   5   1 192.459 16.5222  16
  -5   5   1 207.190 12.9994   2
  -5   5   1 205.140 12.7010   9
  -5   5   1 208.142 12.7245   3
  -5   5   1 198.905 15.8143   8
  -4   5   1 35.3042 2.89435   2
  -4   5   1 31.1146 2.77494  10
  -4   5   1 30.2213 3.72575  15
  -4   5   1 32.9145 3.27112   9
  -4   5   1 39.1009 2.47228   3
  -4   5   1 34.9027 3.04424   6
  -4   5   1 35.5463 3.79322   8
  -3   5   1 285.700 17.2134   6
  -3   5   1 261.224 16.8190   2
  -3   5   1 266.849 16.6808   3
  -2   5   1 161.412 10.1649   3
  -2   5   1 164.285 10.5224   6
  -2   5   1 165.943 10.4239   2
   1  -5  -1 164.681 10.3925   1
   1  -5  -1 183.645 10.7789   3
   1  -5  -1 185.253 10.9285   2
   1  -5  -1 169.108 15.0263   4
  -1   5   1 176.579 10.7689   3
  -1   5   1 163.854 10.3777   1
  -1   5   1 175.984 11.0007   6
  -1   5   1 173.075 10.9991   2
   0  -5  -1 299.964 16.6811   3
   0  -5  -1 285.798 16.6646   2
   0  -5  -1 287.820 16.0695   1
   0  -5  -1 270.322 16.0653   1
   0  -5  -1 284.896 23.3040   4
   0   5   1 249.540 16.6407   3
   0   5   1 244.980 16.7248   6
   0   5   1 252.523 16.0459   1
   0   5   1 261.890 16.7866   2
   0   5   1 270.388 16.0710   1
  -1  -5  -1 86.7758 5.57364   1
  -1  -5  -1 98.7334 8.28935   4
  -1  -5  -1 96.1636 5.96683   2
  -1  -5  -1 99.5578 5.80847   3
   1   5   1 80.7594 5.56067   1
  -2  -5  -1 460.121 27.6495   3
  -2  -5  -1 441.664 27.4116   2
  -2  -5  -1 451.869 38.7275   4
  -3  -5  -1 66.8523 4.61022   2
  -3  -5  -1 71.5235 4.97818   5
  -3  -5  -1 66.9308 4.42748   3
  -3  -5  -1 74.8091 6.63209   4
  -4  -5  -1 126.869 10.4661  13
  -4  -5  -1 130.773 7.96597   3
  -4  -5  -1 121.056 7.38780  10
  -4  -5  -1 141.426 11.7389   4
  -4  -5  -1 127.507 8.50158   5
  -4  -5  -1 125.850 8.08345   2
  -4  -5  -1 116.377 7.86346   9
  -5  -5  -1 56.8279 4.37258  11
  -5  -5  -1 50.1593 3.64453   9
  -5  -5  -1 56.4339 4.28120   5
  -5  -5  -1 51.0948 3.43553  10
  -5  -5  -1 51.4545 3.61642   2
  -5  -5  -1 57.1310 5.59168   4
  -5  -5  -1 53.2077 4.99601  12
  -5  -5  -1 50.8996 3.37908   3
  -5  -5  -1 52.9775 5.90706  13
  -6  -5  -1 78.8154 6.76777  12
  -6  -5  -1 72.5487 5.61028  11
  -6  -5  -1 78.0724 4.63779  10
  -6  -5  -1 78.3117 7.85639  13
  -6  -5  -1 68.2397 5.63323   5
  -7  -5  -1 90.9734 7.80585  12
  -7  -5  -1 94.6386 6.98113  11
  -7  -5  -1 89.7131 5.46096  10
  -7  -5  -1 96.4224 9.20889  13
  -8  -5  -1 29.0136 4.68337  13
  -8  -5  -1 27.4161 3.78630  12
  -9  -5  -1 169.016 11.6651  13
  -9  -5  -1 119.024 9.73510  12
  -8   6   1 91.7022 5.41636  10
  -8   6   1 92.2692 7.51888  15
  -7   6   1 2.44173 1.85274  15
  -7   6   1 2.94014 1.06121  10
  -7   6   1 0.87611 2.22071  16
  -6   6   1 115.894 7.76325   9
  -6   6   1 125.990 10.9479  16
  -6   6   1 110.995 7.26391  10
  -6   6   1 123.423 9.74928  15
  -5   6   1 84.3569 5.38360  10
  -5   6   1 71.9047 5.89583   6
  -5   6   1 81.7204 6.46209   8
  -5   6   1 86.8954 7.12456  15
  -5   6   1 71.2021 5.55040   2
  -5   6   1 79.1645 8.30931  16
  -5   6   1 79.1339 5.90221   9
  -4   6   1 155.189 12.1712  15
  -4   6   1 157.418 13.4008   8
  -4   6   1 164.805 10.7044   2
  -4   6   1 158.012 10.6090   9
  -4   6   1 203.572 11.2428   6
  -4   6   1 149.260 9.59533  10
  -4   6   1 161.718 10.2788   3
  -3   6   1 218.226 13.8241   6
  -3   6   1 190.051 13.2753   9
  -3   6   1 211.960 17.2395   8
  -3   6   1 210.667 13.5853   2
  -3   6   1 222.722 13.2564   3
  -2   6   1 5.09686 0.65034   3
  -2   6   1 5.46419 1.15919   2
  -2   6   1 7.11958 1.18864   6
  -1   6   1 538.365 33.4636   2
  -1   6   1 553.354 33.4781   3
   0  -6  -1 59.0004 4.32853   2
   0  -6  -1 63.6617 5.77402   4
   0  -6  -1 62.4119 4.04777   3
  -1  -6  -1 42.5581 2.89564   3
  -1  -6  -1 42.9905 3.20231   2
  -1  -6  -1 43.8863 4.21952   4
  -2  -6  -1 174.422 11.4239   3
  -2  -6  -1 192.346 16.2535   4
  -2  -6  -1 187.706 11.5862   2
  -3  -6  -1 138.023 11.5649   4
  -3  -6  -1 107.584 10.1164   8
  -3  -6  -1 125.136 8.52543   5
  -3  -6  -1 122.308 8.04118   9
  -3  -6  -1 131.819 7.96025   3
  -3  -6  -1 131.001 8.18285   2
  -4  -6  -1 244.829 16.1324   2
  -4  -6  -1 249.951 15.5465   9
  -4  -6  -1 264.048 19.8308  13
  -4  -6  -1 246.702 19.8355   8
  -4  -6  -1 259.427 16.3252  11
  -4  -6  -1 262.412 16.0790   3
  -4  -6  -1 253.585 17.6187  12
  -4  -6  -1 290.621 23.1172   4
  -4  -6  -1 272.791 16.8015   5
  -4  -6  -1 267.020 14.4810  10
  -5  -6  -1 23.4743 1.96997  10
  -5  -6  -1 20.3880 3.96162  13
  -5  -6  -1 22.5153 3.10403  12
  -5  -6  -1 21.8490 1.58899   3
  -5  -6  -1 21.7751 2.66542   5
  -5  -6  -1 26.1034 2.77873  11
  -5  -6  -1 22.2750 2.33232   9
  -6  -6  -1 53.3182 5.26574  12
  -6  -6  -1 47.4708 4.68885   5
  -6  -6  -1 59.4843 3.86991  10
  -6  -6  -1 60.9733 4.84881  11
  -6  -6  -1 66.1046 7.22178  13
  -6  -6  -1 58.0600 3.61620   9
  -7  -6  -1 -0.1303 1.76017  12
  -7  -6  -1 -0.5452 0.69139  10
  -7  -6  -1 3.07838 2.84488  13
  -8  -6  -1 54.1119 4.88609  12
  -8  -6  -1 52.0926 5.98908  13
  -9  -6  -1 5.57808 1.43550  12
  -9  -6  -1 7.57778 2.20683  13
  -8   7   1 0.45759 0.96402  15
  -8   7   1 0.38140 1.19591  16
  -8   7   1 1.04574 0.44659  10
  -7   7   1 52.2740 5.62512  16
  -7   7   1 49.1939 4.77970  15
  -6   7   1 27.5815 4.17294  16
  -6   7   1 23.4908 2.63563   9
  -6   7   1 21.2901 2.22477  10
  -6   7   1 24.3429 3.22562  15
  -5   7   1 37.4486 3.13302  10
  -5   7   1 34.4763 4.95445  16
  -5   7   1 39.5683 3.81663   9
  -5   7   1 38.3671 4.08113  15
  -4   7   1 259.528 17.9378   2
  -4   7   1 301.808 17.6696   9
  -4   7   1 282.052 18.3755   6
  -4   7   1 299.955 16.2773  10
  -4   7   1 301.223 22.5323   8
  -4   7   1 270.949 17.6209   3
  -3   7   1 65.7871 5.52592   9
  -3   7   1 69.4426 6.68715   8
  -3   7   1 64.8665 4.40610   3
  -3   7   1 69.8006 5.12472   2
  -3   7   1 64.3965 5.04266   6
  -2   7   1 116.957 7.41891   3
  -2   7   1 119.414 10.4851   8
  -2   7   1 111.891 7.98700   2
  -1  -7  -1 384.390 22.5539   3
  -1  -7  -1 335.964 28.3664   8
  -1  -7  -1 370.524 22.5838   2
  -2  -7  -1 43.4239 4.29359  12
  -2  -7  -1 48.1251 3.54136   2
  -2  -7  -1 45.4974 3.86116   9
  -2  -7  -1 45.1978 3.09400   3
  -2  -7  -1 48.4828 4.70260   4
  -2  -7  -1 40.3607 4.32195   8
  -3  -7  -1 151.162 10.0695   5
  -3  -7  -1 153.897 8.71737  10
  -3  -7  -1 136.250 11.9614   8
  -3  -7  -1 166.808 13.6236   4
  -3  -7  -1 149.594 9.53712   9
  -3  -7  -1 137.640 10.5571  12
  -3  -7  -1 151.620 9.66359   2
  -3  -7  -1 144.264 9.35250   3
  -4  -7  -1 0.15662 0.83534  10
  -4  -7  -1 -0.0782 1.16128   9
  -4  -7  -1 1.64748 1.24294   5
  -4  -7  -1 0.46198 0.73979   2
  -4  -7  -1 0.50252 1.40723  12
  -4  -7  -1 0.65694 0.65292   8
  -4  -7  -1 0.35306 1.07040   4
  -4  -7  -1 0.25204 1.70347  13
  -5  -7  -1 226.092 17.5492  13
  -5  -7  -1 241.122 12.6183  10
  -5  -7  -1 193.751 14.4701   5
  -5  -7  -1 236.820 15.6064  12
  -5  -7  -1 213.438 13.4179   9
  -6  -7  -1 10.7315 2.40458  12
  -6  -7  -1 9.93376 1.83546  11
  -6  -7  -1 8.65893 1.31025  10
  -6  -7  -1 8.11407 0.99318   9
  -6  -7  -1 9.38779 2.85609  13
  -7  -7  -1 69.8839 7.53519  13
  -7  -7  -1 78.4898 4.70593  10
  -7  -7  -1 73.4200 6.21672  12
  -8  -7  -1 17.3729 2.19244  12
  -8  -7  -1 19.0630 3.30119  13
  -7   8   1 33.6870 3.91043  16
  -7   8   1 33.3523 2.58967  10
  -6   8   1 35.3973 2.81875   9
  -6   8   1 33.0101 3.06831  10
  -6   8   1 29.2454 4.28183  16
  -5   8   1 185.649 15.7060  16
  -5   8   1 194.149 12.1480   9
  -4   8   1 -0.1230 1.35152  16
  -4   8   1 1.01605 1.32612   8
  -4   8   1 1.43318 1.63369   9
  -3   8   1 10.1544 2.14745   9
  -3   8   1 9.81001 2.47427   8
  -2   8   1 108.179 10.1188   8
  -1   8   1 44.2501 5.59063   8
   0  -8  -1 216.470 17.5949   8
  -1  -8  -1 180.764 14.8095   8
  -2  -8  -1 83.2541 5.87740   9
  -2  -8  -1 81.9089 5.63584   2
  -2  -8  -1 86.0069 6.39722  12
  -2  -8  -1 77.7807 7.08622   8
  -2  -8  -1 71.9295 5.10022   3
  -3  -8  -1 2.25610 1.12255  10
  -3  -8  -1 3.09378 1.14369   5
  -3  -8  -1 2.37814 0.79818   2
  -3  -8  -1 2.74659 0.48062   3
  -3  -8  -1 1.72708 1.49055  12
  -3  -8  -1 3.74997 1.30020   9
  -3  -8  -1 2.84210 1.19179   8
  -4  -8  -1 143.493 10.7145   5
  -4  -8  -1 169.940 9.41708  10
  -4  -8  -1 161.534 11.4741  12
  -4  -8  -1 183.953 13.7263  13
  -4  -8  -1 152.827 10.0722   9
  -4  -8  -1 155.578 12.2075   8
  -5  -8  -1 6.42033 1.87162  12
  -5  -8  -1 6.25401 3.04468  13
  -5  -8  -1 6.18604 1.55056   9
  -5  -8  -1 7.70771 1.44253  10
  -6  -8  -1 79.3974 7.79496  13
  -6  -8  -1 66.6128 4.33395  10
  -6  -8  -1 61.7533 5.55218  12
  -7  -8  -1 59.4922 3.54709  10
  -7  -8  -1 54.3971 5.84056  13
  -7  -8  -1 45.7388 4.72203  12
  -8  -8  -1 2.99992 1.63688  13
  -7   9   1 11.1217 1.10352  10
  -6   9   1 48.7805 3.53532  10
  -6   9   1 55.0785 5.21930  16
  -5   9   1 7.40077 1.43720  10
  -5   9   1 5.62803 1.54846   9
  -5   9   1 5.73773 1.97845  16
  -4   9   1 85.6135 7.49215   8
  -4   9   1 97.6437 8.71087  16
  -4   9   1 99.2721 7.01751   9
  -4   9   1 85.9271 6.06806  10
  -3   9   1 427.694 24.9231   9
  -3   9   1 395.599 32.0827   8
  -2   9   1 20.5755 3.73284   8
  -1   9   1 167.149 14.7768   8
   0  -9  -1 2.79076 1.72681   8
  -1  -9  -1 58.3286 5.79876   8
  -1  -9  -1 55.0608 5.23732  12
  -2  -9  -1 53.9867 5.27196   8
  -2  -9  -1 46.2790 4.39020   5
  -2  -9  -1 57.0331 4.46042   9
  -2  -9  -1 53.3870 5.03800  12
  -3  -9  -1 86.5932 7.14208  12
  -3  -9  -1 91.6027 5.89698  10
  -3  -9  -1 97.1441 6.77407   9
  -3  -9  -1 93.1575 7.79762   8
  -4  -9  -1 34.0011 4.71435  13
  -4  -9  -1 36.1378 3.59699   9
  -4  -9  -1 35.8313 3.14555  10
  -5  -9  -1 16.4121 1.95332  10
  -5  -9  -1 17.4168 3.67004  13
  -5  -9  -1 20.4061 2.27043   9
  -6  -9  -1 107.103 6.41913  10
  -6  -9  -1 108.466 9.61659  13
  -7  -9  -1 -0.0110 0.44572  10
  -7  -9  -1 0.69425 1.48599  13
  -5  10   1 18.1679 2.70992  16
  -5  10   1 13.5342 1.63836  10
  -5  10   1 14.5167 1.62509   9
  -4  10   1 49.2722 4.08196   9
  -4  10   1 50.9663 5.51641  16
  -3  10   1 131.522 12.1153  16
  -3  10   1 158.670 10.1634   9
  -3  10   1 159.029 12.4298   8
  -2  10   1 154.721 13.1785  16
  -2  10   1 152.571 11.1802   9
  -2  10   1 171.195 13.8892   8
   1 -10  -1 38.1306 4.75690   8
  -1  10   1 36.2719 5.26462   8
   0 -10  -1 212.590 15.6954   8
   0  10   1 158.855 15.9705   8
  -1 -10  -1 87.7648 7.85578   8
  -2 -10  -1 6.59087 1.66036   9
  -2 -10  -1 4.25490 1.49299   8
  -3 -10  -1 81.0397 6.74844   8
  -3 -10  -1 86.9427 5.98221   9
  -4 -10  -1 10.0505 2.50416  13
  -4 -10  -1 13.5016 1.73348  10
  -4 -10  -1 10.2211 1.79222   9
  -5 -10  -1 74.4544 4.58499  10
  -5 -10  -1 76.2101 7.15545  13
  -5 -10  -1 69.8628 4.57908   9
  -6 -10  -1 6.24623 1.79660  13
  -6 -10  -1 6.86102 0.83851  10
  -4  11   1 2.52755 1.24177  16
  -4  11   1 1.12659 1.12197   9
  -3  11   1 22.7623 2.65516   9
  -3  11   1 26.1709 3.16830  16
  -2  11   1 11.5865 2.19467   9
  -2  11   1 7.42222 1.81097  16
  -2  11   1 14.7068 2.24434   8
   1 -11  -1 83.1516 6.82976   8
  -1  11   1 60.8143 6.78466   8
   0 -11  -1 108.434 9.04178   8
   0  11   1 94.9648 9.69278   8
  -1 -11  -1 21.7401 2.88314   9
  -1 -11  -1 29.9646 3.35019   8
  -2 -11  -1 87.8943 7.47696   8
  -2 -11  -1 99.4443 6.68470   9
  -3 -11  -1 12.6184 1.97271   9
  -3 -11  -1 18.5275 2.94893  13
  -4 -11  -1 56.5800 5.35370  13
  -4 -11  -1 42.1765 3.28557   9
  -4 -11  -1 52.4115 3.30260  10
  -5 -11  -1 3.77694 1.54676  13
  -5 -11  -1 7.43284 0.92055  10
   1 -12  -1 71.7599 5.73794   8
  -1  12   1 58.2309 5.62475   8
   0 -12  -1 10.5039 1.54954   8
   0  12   1 6.32794 1.98150   8
  -1 -12  -1 102.005 7.06656   8
  -1 -12  -1 82.3762 5.88318   9
   1  12   1 67.9339 7.67672   8
  -2 -12  -1 5.99250 1.17369   9
  -2 -12  -1 4.23640 1.65201  13
  -3 -12  -1 41.3055 2.86029   9
  -3 -12  -1 39.4049 3.90060  13
   2  11  -2 12.1871 2.09532   8
  -2 -11   2 18.4769 2.36216  13
   1  11  -2 0.87776 1.11716   8
  -1 -11   2 1.19392 0.63441   8
   0  11  -2 31.9265 3.15792   8
   0  11  -2 25.3960 3.71005  17
   0 -11   2 44.0705 3.45014   8
  -1  11  -2 34.4549 3.90519  17
  -4 -10   2 15.0110 1.67905   9
  -4 -10   2 10.9762 2.09008  13
  -3 -10   2 22.9597 2.48665   9
  -3 -10   2 13.7289 2.61347  13
  -3 -10   2 20.3483 2.01225   8
   2  10  -2 1.25093 1.48662   8
  -2 -10   2 2.73077 0.94009   8
   1  10  -2 57.1526 6.72102   8
  -1 -10   2 83.0999 6.65265   8
   0  10  -2 40.7844 5.14029   8
   0 -10   2 51.8986 4.87721   8
  -1  10  -2 54.5519 4.75909   9
  -1  10  -2 52.7092 5.12303   8
  -2  10  -2 43.7697 4.08375   9
  -2  10  -2 34.2739 4.90961  17
  -3  10  -2 4.32577 1.07892  10
  -3  10  -2 2.30808 0.96846   9
  -3  10  -2 2.05676 1.31884  17
  -4  10  -2 54.5164 3.58796  10
  -6  -9   2 9.17866 1.10339  10
  -6  -9   2 12.5496 1.93551  13
  -5  -9   2 1.99980 0.79265  10
  -5  -9   2 1.30397 0.80713   9
  -5  -9   2 2.41102 1.64464  13
  -4  -9   2 70.7011 5.69585   8
  -4  -9   2 73.0361 6.75452  13
  -4  -9   2 80.0632 5.60284   9
  -3  -9   2 54.0357 5.05953   8
  -3  -9   2 55.4829 4.55438   9
  -2  -9   2 20.5124 2.78308   8
   1   9  -2 77.5950 8.71490   8
  -1  -9   2 89.0933 7.78592   8
   0   9  -2 0.80673 2.01914   8
  -1   9  -2 79.7389 7.56700   8
  -1   9  -2 68.9808 6.51897   9
  -2   9  -2 0.32626 1.10941   8
  -2   9  -2 1.00640 1.88580   9
  -3   9  -2 24.4482 2.54862  10
  -3   9  -2 24.2373 3.31059  16
  -3   9  -2 21.9533 3.86693  17
  -3   9  -2 26.9598 2.87271   9
  -4   9  -2 7.78318 1.91587  16
  -4   9  -2 6.21902 1.35572   9
  -4   9  -2 8.13898 1.53629  10
  -5   9  -2 34.1078 2.48084  10
  -5   9  -2 34.1871 3.62629  16
  -7  -8   2 46.1846 4.43207  13
  -7  -8   2 49.7928 3.13817  10
  -6  -8   2 29.5645 2.53959  10
  -6  -8   2 29.4574 2.30542   9
  -6  -8   2 21.9875 3.39220  13
  -5  -8   2 37.2405 3.33509   9
  -5  -8   2 40.8671 4.70029  13
  -5  -8   2 37.4985 3.28219  10
  -4  -8   2 53.2242 5.75114  13
  -4  -8   2 49.5877 4.67861   8
  -4  -8   2 56.5713 4.82027   9
  -3  -8   2 44.8118 4.28186   9
  -3  -8   2 52.1929 5.04607   8
  -2  -8   2 164.005 13.6987   8
   1   8  -2 0.14333 1.62704   8
  -1  -8   2 0.98756 1.14106   8
   0   8  -2 70.4380 7.70661   8
  -1   8  -2 -0.1994 1.91279   9
  -1   8  -2 0.10200 1.35858   8
  -2   8  -2 85.2286 7.92826  16
  -2   8  -2 88.9296 6.90534   9
  -2   8  -2 78.8812 7.63092   8
  -3   8  -2 23.0444 3.51485  16
  -3   8  -2 19.5280 2.28819   8
  -3   8  -2 17.6350 2.80566   9
  -3   8  -2 14.9735 2.17731  10
  -3   8  -2 19.4866 3.81476  17
  -4   8  -2 8.83402 1.82654  10
  -4   8  -2 9.31968 2.36302  16
  -4   8  -2 11.2412 3.09550  17
  -4   8  -2 15.3179 2.26012   9
  -5   8  -2 46.5174 5.34164  16
  -5   8  -2 45.8689 3.36782  10
  -5   8  -2 44.2439 2.90520   9
  -6   8  -2 35.0891 3.85198  16
  -6   8  -2 33.5173 2.36841  10
  -7  -7   2 10.0366 2.30375  13
  -7  -7   2 7.58823 1.13714  10
  -6  -7   2 54.2401 6.08704  13
  -6  -7   2 47.2588 3.48831  10
  -6  -7   2 45.5860 3.56789   9
  -5  -7   2 153.533 9.21237  10
  -5  -7   2 151.027 11.8135   8
  -5  -7   2 159.932 12.7319  13
  -5  -7   2 162.061 10.1867   9
  -4  -7   2 11.5647 1.98211   8
  -4  -7   2 11.3428 2.81980  13
  -4  -7   2 12.7898 2.16300   9
  -3  -7   2 64.8989 5.39495   9
  -3  -7   2 61.3900 5.98464   8
  -3  -7   2 60.6719 5.04502   5
  -2  -7   2 2.35760 1.48636   8
   0   7  -2 10.1270 2.68466   8
  -1   7  -2 122.656 9.17016   9
  -1   7  -2 126.708 11.4749   8
  -2   7  -2 44.7832 4.58570   7
  -2   7  -2 51.0710 5.30570  16
  -2   7  -2 50.3801 5.49304   8
  -2   7  -2 47.2964 4.43204   9
  -2   7  -2 43.1476 4.10034   2
  -3   7  -2 12.8091 2.42704   7
  -3   7  -2 17.3598 2.57392   8
  -3   7  -2 18.9353 2.80512   9
  -3   7  -2 15.9791 2.18959  10
  -3   7  -2 16.5610 3.27308  16
  -4   7  -2 90.7399 6.33456  10
  -4   7  -2 94.4592 10.1061  17
  -4   7  -2 100.771 9.31645  16
  -4   7  -2 104.573 7.07410   9
  -5   7  -2 1.82331 1.65795  16
  -5   7  -2 0.35838 1.10517  10
  -5   7  -2 1.11691 1.03763   9
  -6   7  -2 43.6412 3.29149  10
  -6   7  -2 47.6550 5.61999  16
  -7   7  -2 11.4654 2.32254  16
  -7   7  -2 14.5047 1.00665  10
  -8  -6   2 36.2803 2.37579  10
  -8  -6   2 32.5591 3.87318  13
  -7  -6   2 45.1891 3.46523  10
  -7  -6   2 49.5973 5.84948  13
  -7  -6   2 46.9490 2.88647   9
  -7  -6   2 38.7119 5.76512  14
  -6  -6   2 73.9782 4.95573  10
  -6  -6   2 69.9630 5.26334   9
  -6  -6   2 66.5879 7.04637  13
  -6  -6   2 73.8049 8.21692  14
  -5  -6   2 25.1643 2.68371  10
  -5  -6   2 25.4071 2.80204   9
  -5  -6   2 23.7836 2.57549   8
  -5  -6   2 22.0485 4.10770  13
  -4  -6   2 181.089 10.6024   9
  -4  -6   2 177.252 9.59450  10
  -4  -6   2 144.893 10.4362   2
  -4  -6   2 168.747 10.9216   5
  -4  -6   2 142.544 10.0699   3
  -4  -6   2 165.303 12.9844   8
  -3  -6   2 28.0610 2.89393   5
  -3  -6   2 25.2888 3.28829   8
  -3  -6   2 26.5592 3.14600   9
  -3  -6   2 24.2997 2.50602   2
  -3  -6   2 23.6120 1.94201   3
  -2  -6   2 119.025 10.1291   8
   0   6  -2 126.811 11.3809   8
  -1   6  -2 126.907 8.79860   2
  -1   6  -2 132.463 8.11268   3
  -1   6  -2 128.516 11.2666   8
  -1   6  -2 113.240 8.89171   9
  -2   6  -2 24.1271 3.58027   8
  -2   6  -2 22.0652 1.68667   3
  -2   6  -2 23.4397 3.17886   9
  -2   6  -2 18.5241 2.41654  10
  -2   6  -2 23.8195 2.58130   2
  -2   6  -2 20.4560 2.36437   6
  -2   6  -2 21.2421 2.84112   7
  -2   6  -2 20.8268 3.29992  16
  -3   6  -2 231.035 15.7883   2
  -3   6  -2 257.715 19.7360   8
  -3   6  -2 282.027 19.8415  16
  -3   6  -2 241.163 16.7001   7
  -3   6  -2 246.827 15.3873   3
  -3   6  -2 243.020 14.2980  10
  -3   6  -2 265.372 15.5244   9
  -3   6  -2 230.763 16.1403   6
  -4   6  -2 36.3218 3.61299   9
  -4   6  -2 37.0861 3.22376  10
  -4   6  -2 29.8911 3.17597   6
  -4   6  -2 32.5888 5.38151  17
  -4   6  -2 35.9278 4.69810  16
  -5   6  -2 76.8541 7.46258  15
  -5   6  -2 83.3592 5.67698  10
  -5   6  -2 95.3519 8.87284  16
  -5   6  -2 85.3169 5.82759   9
  -6   6  -2 120.084 10.1222  15
  -6   6  -2 140.286 11.5578  16
  -6   6  -2 127.327 7.69007  10
  -7   6  -2 12.8954 2.92573  16
  -7   6  -2 12.6306 2.40872  15
  -7   6  -2 12.0707 1.28032  10
  -8   6  -2 13.3715 2.38763  16
  -8   6  -2 30.3071 2.95176  15
  -8  -5   2 -0.1817 1.79666  14
  -8  -5   2 0.09214 0.77466  10
  -8  -5   2 -0.5800 2.32805  13
  -7  -5   2 104.529 10.7371  14
  -7  -5   2 88.1991 5.74352  10
  -7  -5   2 85.4475 8.57052  13
  -7  -5   2 87.8685 5.70378   9
  -6  -5   2 12.7393 1.78301  10
  -6  -5   2 10.0100 2.63706  13
  -6  -5   2 15.8407 4.33738  14
  -6  -5   2 12.8425 1.96122   9
  -5  -5   2 146.052 8.89695   9
  -5  -5   2 135.492 10.6633   8
  -5  -5   2 138.608 11.1978  13
  -5  -5   2 139.061 8.06908  10
  -5  -5   2 116.798 8.73495   2
  -5  -5   2 131.162 9.15464   5
  -4  -5   2 137.938 8.09928  10
  -4  -5   2 137.974 11.1863   8
  -4  -5   2 133.908 8.69003   3
  -4  -5   2 132.759 8.98274   2
  -4  -5   2 138.862 9.34361   5
  -4  -5   2 141.229 9.01766   9
  -3  -5   2 110.389 7.40952   5
  -3  -5   2 104.718 7.26951   9
  -3  -5   2 112.927 7.16600   2
  -3  -5   2 105.808 6.82673   3
  -3  -5   2 96.3977 8.91748   8
  -2  -5   2 10.6574 0.98736   3
  -2  -5   2 10.2424 1.42337   2
   0   5  -2 387.195 25.6737   2
   0   5  -2 435.013 25.4764   3
  -1   5  -2 49.5195 3.17746   3
  -1   5  -2 46.7055 3.80557   2
  -1   5  -2 43.8959 3.61528   6
  -2   5  -2 578.359 33.6203   2
  -2   5  -2 497.518 42.0085   8
  -2   5  -2 573.490 33.4902   3
  -2   5  -2 530.667 34.0727   6
  -3   5  -2 41.0152 3.70726   9
  -3   5  -2 35.5287 3.10086  10
  -3   5  -2 34.9531 3.22579   6
  -3   5  -2 35.3852 4.84312  16
  -3   5  -2 38.4482 4.10385   8
  -3   5  -2 37.4437 2.54438   3
  -3   5  -2 37.7887 3.19238   2
  -3   5  -2 34.4638 3.58978   7
  -4   5  -2 32.4331 3.52329   6
  -4   5  -2 33.8498 5.39531  17
  -4   5  -2 40.6996 2.61592   3
  -4   5  -2 38.5469 3.17929  10
  -4   5  -2 37.6798 3.15612   2
  -4   5  -2 34.2855 5.72630  14
  -4   5  -2 40.8082 4.88588  16
  -4   5  -2 35.6084 4.30851  15
  -4   5  -2 38.8642 3.56158   9
  -5   5  -2 147.309 17.0909  14
  -5   5  -2 190.835 10.6571  10
  -5   5  -2 197.613 14.0342  15
  -5   5  -2 190.930 11.1641   9
  -5   5  -2 196.607 15.3674  16
  -5   5  -2 166.853 12.3406   6
  -6   5  -2 50.4405 7.56372  14
  -6   5  -2 71.8860 7.28864  16
  -6   5  -2 63.5336 6.16558  15
  -6   5  -2 69.7066 4.43329  10
  -7   5  -2 20.8569 4.30368  14
  -7   5  -2 26.0974 1.93693  10
  -7   5  -2 22.8592 3.84793  16
  -7   5  -2 18.1232 3.14733  15
  -8   5  -2 7.98107 2.53035  16
  -8   5  -2 8.80916 1.95500  15
  -9  -4   2 -0.5421 1.57529  14
  -9  -4   2 0.83381 1.88503  13
  -8  -4   2 80.2381 7.68388  13
  -8  -4   2 84.7991 9.64412  14
  -8  -4   2 87.8183 5.30522  10
  -7  -4   2 10.5212 3.10377  13
  -7  -4   2 16.1930 1.78403   9
  -7  -4   2 11.3738 4.18131  14
  -7  -4   2 14.4897 1.77822  10
  -6  -4   2 50.8223 7.49232  14
  -6  -4   2 39.7186 3.69215   5
  -6  -4   2 48.6200 3.79128   9
  -6  -4   2 44.2042 5.60041  13
  -6  -4   2 44.8134 3.38010  10
  -5  -4   2 75.0992 5.28775   5
  -5  -4   2 63.6101 4.63072   3
  -5  -4   2 74.0466 4.68057  10
  -5  -4   2 69.2451 4.98003   2
  -5  -4   2 74.7845 5.21418   9
  -5  -4   2 82.1023 7.15603  13
  -5  -4   2 72.3075 6.02691   8
  -4  -4   2 89.2862 7.71564   8
  -4  -4   2 97.2126 6.25207   2
  -4  -4   2 96.5779 6.50848   5
  -4  -4   2 91.7715 5.96213   3
  -4  -4   2 91.9476 7.87904  13
  -4  -4   2 89.0770 6.30329   9
  -4  -4   2 90.2728 5.68102  10
  -3  -4   2 147.832 9.39448   3
  -3  -4   2 149.945 9.77004   5
  -3  -4   2 150.671 9.54552   2
  -2  -4   2 282.584 17.4541   2
  -2  -4   2 282.496 17.4781   3
   1   4  -2 400.860 26.8171   2
   1   4  -2 447.644 26.7520   3
  -1  -4   2 466.129 26.6250   2
  -1  -4   2 426.936 26.7780   3
   0   4  -2 51.2256 3.79362   2
   0   4  -2 51.6484 3.24652   3
   0   4  -2 45.5681 3.17528   1
   0   4  -2 50.8557 3.57470   6
   0  -4   2 49.0608 3.13917   1
  -1   4  -2 71.8499 4.93630   6
  -1   4  -2 67.5825 4.91172   2
  -1   4  -2 69.5742 4.44947   3
  -2   4  -2 6.81877 1.28088   6
  -2   4  -2 8.15279 0.72018   3
  -2   4  -2 7.07813 1.21297   2
  -3   4  -2 154.635 10.7602   7
  -3   4  -2 154.355 10.1767   2
  -3   4  -2 162.031 10.6015   6
  -3   4  -2 161.685 9.86756   3
  -4   4  -2 224.321 13.5334   9
  -4   4  -2 242.956 13.7566   3
  -4   4  -2 225.669 17.7452  16
  -4   4  -2 226.650 14.0058   2
  -4   4  -2 220.731 14.6190   6
  -4   4  -2 188.105 20.4275  14
  -4   4  -2 207.999 18.9185  17
  -4   4  -2 219.191 16.2449  15
  -5   4  -2 -0.3336 1.02586   6
  -5   4  -2 0.70596 0.60011   2
  -5   4  -2 0.46831 0.93455   9
  -5   4  -2 0.30141 1.97790  16
  -5   4  -2 0.12179 0.15332   3
  -5   4  -2 -0.2705 2.34714  14
  -5   4  -2 0.85955 1.14572  15
  -6   4  -2 29.3171 3.36754   6
  -6   4  -2 34.7547 2.78464  10
  -6   4  -2 40.2496 5.09185  16
  -6   4  -2 35.4569 6.00754  14
  -6   4  -2 37.9104 4.83460  15
  -7   4  -2 1.21460 0.61184  10
  -7   4  -2 1.80945 1.87120  16
  -7   4  -2 1.06945 2.11109  15
  -7   4  -2 0.69708 2.11560  14
  -8   4  -2 35.9267 4.62732  16
  -8   4  -2 31.3768 5.22215  14
  -8   4  -2 38.1511 4.24806  15
  -9   4  -2 17.9973 2.56012  15
  -9  -3   2 38.8102 2.31623  10
  -9  -3   2 33.4386 4.11416  13
  -9  -3   2 38.5442 5.69222  14
  -8  -3   2 40.4913 5.54431  13
  -8  -3   2 47.9674 3.27359  10
  -8  -3   2 40.2337 7.04872  14
  -7  -3   2 69.9278 4.47745   9
  -7  -3   2 75.7892 9.55695  14
  -7  -3   2 62.2364 6.44930  13
  -7  -3   2 66.5136 4.41402  10
  -7  -3   2 52.0363 5.78249  12
  -6  -3   2 33.7964 2.57689   3
  -6  -3   2 45.3596 4.65484  13
  -6  -3   2 42.7743 2.99839  10
  -6  -3   2 36.0055 3.36673   5
  -6  -3   2 46.9024 6.86732  14
  -6  -3   2 39.8827 3.19901   9
  -5  -3   2 2.38908 0.46828   3
  -5  -3   2 2.46522 1.75390  13
  -5  -3   2 3.44046 0.95289  10
  -5  -3   2 2.39892 0.89340   8
  -5  -3   2 2.12439 0.80121   2
  -5  -3   2 2.55049 1.00627   5
  -5  -3   2 3.48838 1.13543   9
  -4  -3   2 577.513 35.9986   3
  -4  -3   2 613.599 36.1516   5
  -4  -3   2 575.679 35.6650   2
  -3  -3   2 7.79734 0.80539   3
  -3  -3   2 11.9482 1.37834   5
  -3  -3   2 7.80934 0.98120   2
   2   3  -2 714.860 45.6244   1
  -2  -3   2 820.529 47.4074   3
  -2  -3   2 857.641 46.8585   2
  -2  -3   2 719.518 45.6240   1
   1   3  -2 1193.13 73.3526   2
   1   3  -2 1175.15 74.1261   3
   1   3  -2 1195.18 71.4846   1
  -1  -3   2 1218.93 74.1923   3
  -1  -3   2 1193.01 71.4447   1
  -1  -3   2 1250.28 71.4580   1
  -1  -3   2 1303.21 73.1802   2
   0   3  -2 358.544 22.3901   6
   0   3  -2 344.083 21.3420   1
   0   3  -2 388.835 22.1233   3
   0   3  -2 364.089 22.1526   2
   0   3  -2 347.005 21.2956   1
   0  -3   2 369.289 21.3229   1
   0  -3   2 361.941 22.1528   3
   0  -3   2 359.358 21.9618   2
   0  -3   2 358.158 21.3160   1
  -1   3  -2 309.935 18.3322   3
  -1   3  -2 283.775 17.6485   1
  -1   3  -2 296.024 18.4056   2
  -1   3  -2 276.731 17.6919   1
  -1   3  -2 313.670 18.7514   6
   1  -3   2 304.071 17.6817   1
   1  -3   2 312.248 17.6814   1
  -2   3  -2 0.22297 0.71586   6
  -2   3  -2 0.66066 0.59813   2
  -2   3  -2 0.98727 0.24402   3
  -2   3  -2 1.14401 0.80679   7
  -3   3  -2 138.846 8.24849   3
  -3   3  -2 133.211 8.94006   7
  -3   3  -2 125.406 8.44803   2
  -3   3  -2 130.194 8.88173   6
  -4   3  -2 2.34159 0.92187   6
  -4   3  -2 1.79760 0.27622   3
  -4   3  -2 1.47142 0.56707   2
  -4   3  -2 1.76602 0.75943   7
  -5   3  -2 211.834 11.6421   3
  -5   3  -2 183.557 12.7062   6
  -5   3  -2 187.362 14.2411  15
  -5   3  -2 163.073 14.7528  13
  -5   3  -2 204.468 15.5935  16
  -5   3  -2 171.758 17.9731  14
  -5   3  -2 192.512 11.6354   2
  -5   3  -2 184.485 11.1024   9
  -5   3  -2 180.749 10.6846  10
  -6   3  -2 77.7518 7.36386  16
  -6   3  -2 62.3504 5.43775   6
  -6   3  -2 64.3167 8.50657  14
  -6   3  -2 63.9081 6.66185  15
  -6   3  -2 59.5875 6.57533  13
  -7   3  -2 28.8053 4.33882  15
  -7   3  -2 25.8928 1.96315  10
  -7   3  -2 30.1407 4.52689  16
  -7   3  -2 27.4355 5.26889  14
  -8   3  -2 85.8103 8.00631  15
  -8   3  -2 69.1590 9.06576  14
  -8   3  -2 91.0916 7.95582  16
  -9   3  -2 2.17717 1.72715  15
  -9   3  -2 2.59681 2.13688  14
 -10  -2   2 9.71821 2.38379  14
  -9  -2   2 24.3961 1.80990  10
  -9  -2   2 26.6698 4.99694  14
  -9  -2   2 26.0088 3.58440  13
  -8  -2   2 16.2222 4.31543  14
  -8  -2   2 14.3218 1.60479  10
  -8  -2   2 12.7749 2.73161  13
  -7  -2   2 274.048 23.6122  14
  -7  -2   2 229.821 16.9061  12
  -7  -2   2 258.264 13.8796  10
  -7  -2   2 201.014 15.8400   5
  -7  -2   2 286.568 19.0484  13
  -7  -2   2 252.391 14.5404   9
  -6  -2   2 7.04295 0.78264   3
  -6  -2   2 10.3711 1.50036   9
  -6  -2   2 10.7881 2.18052  12
  -6  -2   2 8.98325 1.46824   5
  -6  -2   2 7.57590 3.26576  14
  -6  -2   2 9.28424 1.17483   2
  -6  -2   2 9.81092 1.35287  10
  -6  -2   2 6.87442 2.28624  13
  -5  -2   2 68.6388 4.60688   5
  -5  -2   2 61.0212 4.27728   2
  -5  -2   2 64.6561 4.09496   3
  -5  -2   2 63.1325 4.39318   9
  -5  -2   2 60.5367 5.17291   8
  -5  -2   2 62.5859 5.92165  13
  -5  -2   2 58.2536 3.91488  10
  -4  -2   2 116.311 7.52136   5
  -4  -2   2 111.961 7.20970   3
  -4  -2   2 117.206 7.34469   2
  -3  -2   2 304.728 17.7031   5
  -3  -2   2 252.580 16.8909   1
  -3  -2   2 288.654 17.5636   3
  -3  -2   2 303.311 17.4914   2
   2   2  -2 226.919 14.0626   3
   2   2  -2 230.424 13.5845   1
   2   2  -2 208.452 14.1909   2
   2   2  -2 229.149 13.6166   1
  -2  -2   2 229.209 13.5782   1
  -2  -2   2 222.771 14.1683   5
  -2  -2   2 223.240 13.5845   1
  -2  -2   2 238.178 14.1132   3
  -2  -2   2 252.012 14.0740   2
   1   2  -2 979.306 58.7601   1
   1   2  -2 938.781 60.2546   2
   1   2  -2 1001.63 60.9425   3
   1   2  -2 1046.97 58.7400   1
  -1  -2   2 1037.07 60.9944   3
  -1  -2   2 986.896 60.1230   2
  -1  -2   2 1027.61 58.7490   1
  -1  -2   2 989.782 58.7336   1
   0   2  -2 318.145 19.5831   3
   0   2  -2 291.796 19.8109   6
   0   2  -2 319.167 19.5788   2
   0   2  -2 317.853 18.8856   1
   0   2  -2 328.132 18.9236   1
   0  -2   2 337.148 18.9069   1
   0  -2   2 321.750 19.4444   2
   0  -2   2 330.116 18.8996   1
   0  -2   2 312.163 19.6300   3
  -1   2  -2 247.567 14.4237   1
  -1   2  -2 239.486 15.2759   6
  -1   2  -2 250.376 14.9345   3
  -1   2  -2 259.871 14.9973   2
   1  -2   2 245.624 14.3998   1
   1  -2   2 228.514 14.8450   2
   1  -2   2 213.178 14.9482   3
   1  -2   2 264.741 14.4123   1
  -2   2  -2 557.572 36.4254   3
  -2   2  -2 624.307 36.4084   3
  -2   2  -2 620.152 36.0796   2
  -2   2  -2 597.778 37.0747   7
  -2   2  -2 514.381 35.9378   2
  -2   2  -2 577.870 35.0937   1
  -2   2  -2 618.095 36.8589   6
  -2   2  -2 593.938 35.0713   1
   2  -2   2 642.522 35.0883   1
   2  -2   2 630.608 35.0885   1
  -3   2  -2 351.231 21.9833   6
  -3   2  -2 341.961 21.2892   2
  -3   2  -2 350.152 22.0127   7
  -3   2  -2 358.041 21.4078   3
  -4   2  -2 255.732 15.7930   2
  -4   2  -2 254.891 16.4506   7
  -4   2  -2 253.103 16.6096   6
  -4   2  -2 269.969 15.8573   3
  -5   2  -2 228.073 16.6566  15
  -5   2  -2 219.730 20.8893  14
  -5   2  -2 223.242 12.4708  10
  -5   2  -2 215.070 17.0650  13
  -5   2  -2 246.967 17.8131  16
  -5   2  -2 228.956 14.9020   6
  -6   2  -2 62.2376 6.28213  15
  -6   2  -2 51.1768 6.33100  13
  -6   2  -2 53.7286 7.10132  14
  -6   2  -2 62.9046 6.32469  16
  -6   2  -2 56.9427 3.55355  10
  -6   2  -2 55.1764 4.85105   6
  -7   2  -2 153.159 11.7363  16
  -7   2  -2 132.576 13.9467  14
  -7   2  -2 132.777 7.13134  10
  -7   2  -2 134.550 11.2313  15
  -7   2  -2 108.267 9.20993   6
  -7   2  -2 126.634 11.4203  13
  -8   2  -2 0.95861 2.53877  13
  -8   2  -2 0.31653 2.41483  15
  -8   2  -2 0.75473 2.12485  14
  -9   2  -2 71.9993 8.65316  14
  -9   2  -2 86.7682 7.34776  15
 -10  -1   2 43.7329 5.51673  14
  -9  -1   2 15.0157 2.81307  13
  -9  -1   2 12.6226 1.29674  10
  -9  -1   2 17.8133 4.03590  14
  -8  -1   2 140.389 8.14470  10
  -8  -1   2 128.700 11.5415  13
  -8  -1   2 152.856 14.7202  14
  -7  -1   2 10.7388 1.72580   5
  -7  -1   2 9.08730 1.37705  10
  -7  -1   2 11.1317 3.88135  14
  -7  -1   2 9.58814 2.37396  13
  -7  -1   2 11.5876 1.43761   9
  -7  -1   2 12.4855 2.35863  12
  -6  -1   2 117.455 8.05732   3
  -6  -1   2 124.514 9.57819  12
  -6  -1   2 138.346 8.03882   9
  -6  -1   2 133.491 10.5674  13
  -6  -1   2 149.711 13.1840  14
  -6  -1   2 134.530 7.56739  10
  -6  -1   2 125.848 8.18029   2
  -6  -1   2 126.884 8.64310   5
  -5  -1   2 902.447 53.9187   5
  -5  -1   2 860.147 53.2142   2
  -5  -1   2 888.365 53.8877   3
  -4  -1   2 29.9132 2.41917   5
  -4  -1   2 29.1537 2.27879   2
  -4  -1   2 32.2017 2.10478   3
   3   1  -2 241.140 14.5462   1
   3   1  -2 244.148 14.5170   1
  -3  -1   2 263.765 15.0155   2
  -3  -1   2 225.061 14.5058   1
  -3  -1   2 259.618 15.1781   5
  -3  -1   2 223.757 14.4923   1
  -3  -1   2 263.431 15.0681   3
   2   1  -2 10.6095 1.17636   2
   2   1  -2 5.79730 0.56198   1
   2   1  -2 5.75466 0.53376   3
  -2  -1   2 5.28463 0.55116   1
  -2  -1   2 5.88669 0.79990   5
  -2  -1   2 6.03680 0.58890   3
  -2  -1   2 10.1787 0.92752   2
   1   1  -2 1339.96 75.2220   1
   1   1  -2 1274.05 77.0090   2
   1   1  -2 1260.29 78.1287   3
   1   1  -2 1260.99 75.1927   1
  -1  -1   2 1251.96 76.8976   2
  -1  -1   2 1270.39 75.3632   1
  -1  -1   2 1281.56 75.2063   1
  -1  -1   2 1319.74 78.0696   3
   0   1  -2 17.2921 1.18039   1
   0   1  -2 18.4825 1.50547   2
   0   1  -2 15.3943 1.40108   6
   0   1  -2 17.3340 1.16643   3
   0   1  -2 18.0775 1.15620   1
   0  -1   2 17.8346 1.17092   1
   0  -1   2 17.9908 1.16441   1
   0  -1   2 16.1633 1.33219   2
   0  -1   2 16.5928 1.20050   3
  -1   1  -2 1073.35 68.5640   7
  -1   1  -2 1102.87 65.3937   1
  -1   1  -2 1084.16 68.0257   3
  -1   1  -2 1113.05 67.8810   3
  -1   1  -2 1088.97 68.1447   6
  -1   1  -2 1177.56 66.9402   2
   1  -1   2 1149.31 65.3859   1
   1  -1   2 1137.45 65.4339   1
  -2   1  -2 541.168 34.3891   7
  -2   1  -2 575.815 33.9063   3
  -2   1  -2 548.992 34.2313   6
  -2   1  -2 572.970 33.4453   2
  -2   1  -2 583.089 47.0826   4
  -2   1  -2 553.114 32.6148   1
  -2   1  -2 541.247 32.5991   1
  -2   1  -2 537.920 33.8509   3
  -2   1  -2 509.089 33.3721   2
   2  -1   2 568.546 32.6081   1
   2  -1   2 582.994 32.6092   1
  -3   1  -2 217.171 12.2292   3
  -3   1  -2 176.974 12.1102   2
  -3   1  -2 221.609 12.1698   2
  -3   1  -2 206.934 12.7995   6
  -3   1  -2 195.382 11.7897   1
  -3   1  -2 209.955 12.2383   3
  -3   1  -2 193.555 12.6855   7
  -3   1  -2 189.999 11.7858   1
   3  -1   2 193.402 11.7824   1
   3  -1   2 200.125 11.7852   1
  -4   1  -2 234.954 15.3074   7
  -4   1  -2 247.328 15.5290   6
  -4   1  -2 246.930 15.2361   5
  -5   1  -2 21.7582 2.08343   5
  -5   1  -2 23.8217 2.52444   6
  -6   1  -2 228.967 16.7642  13
  -6   1  -2 214.789 20.2363  14
  -6   1  -2 200.528 14.2437   6
  -6   1  -2 219.773 16.2484  15
  -6   1  -2 224.649 15.0420  12
  -6   1  -2 204.754 11.6824  10
  -6   1  -2 228.749 16.9683  16
  -7   1  -2 39.7589 6.70392  14
  -7   1  -2 41.1836 4.78706  12
  -7   1  -2 42.0239 5.57563  13
  -7   1  -2 43.4017 5.09131  16
  -7   1  -2 38.5775 4.81244  15
  -7   1  -2 30.8402 3.49034   6
  -8   1  -2 32.0379 4.65154  15
  -8   1  -2 25.6966 5.27354  14
  -8   1  -2 32.7471 4.70918  13
  -9   1  -2 32.0367 4.17390  15
  -9   1  -2 30.3695 4.46290  13
  -9   1  -2 32.4017 5.34292  14
 -10   1  -2 19.9497 3.59937  14
 -10   0   2 10.5089 2.69313  14
  -9   0   2 143.813 7.81375  10
  -9   0   2 144.861 14.1893  14
  -9   0   2 127.459 11.2356  13
  -8   0   2 27.4098 2.25911  10
  -8   0   2 24.0395 3.73143  15
  -8   0   2 23.8993 5.26365  14
  -8   0   2 26.4287 4.08964  13
  -7   0   2 61.2252 6.19720  13
  -7   0   2 56.1869 5.25040  12
  -7   0   2 50.8501 4.38951   5
  -7   0   2 57.8293 5.91901  15
  -7   0   2 60.1168 7.72341  14
  -7   0   2 56.8883 3.80024  10
  -7   0   2 55.7556 3.81166   9
  -6   0   2 203.772 12.2144   9
  -6   0   2 198.083 13.2417   5
  -6   0   2 192.110 14.2141  12
  -6   0   2 212.865 11.5578  10
  -6   0   2 199.618 15.1951  15
  -6   0   2 205.016 12.6794   3
  -6   0   2 212.869 15.6723  13
  -6   0   2 212.769 19.0219  14
  -5   0   2 157.178 10.0645   6
  -5   0   2 154.616 9.50272   3
  -5   0   2 152.613 9.88895   5
  -5   0   2 146.890 9.53983   2
  -4   0   2 320.259 19.9551   2
  -4   0   2 335.898 20.2750   5
  -4   0   2 348.286 20.5136   6
  -4   0   2 311.607 20.0911   3
   3   0  -2 6.36875 0.59436   1
   3   0  -2 6.16620 0.62782   1
  -3   0   2 6.49321 0.83904   2
  -3   0   2 5.72270 0.56622   1
  -3   0   2 6.77186 0.89141   5
  -3   0   2 6.29953 0.56898   3
  -3   0   2 6.00269 0.57736   1
   2   0  -2 0.72282 0.60684   2
   2   0  -2 1.21130 0.28802   1
   2   0  -2 1.47822 0.26712   1
   2   0  -2 2.19846 0.27178   3
   2   0  -2 0.53965 0.28095   7
  -2   0   2 1.42976 0.26772   3
  -2   0   2 1.20255 0.48101   2
  -2   0   2 0.97769 0.24620   1
  -2   0   2 1.10659 0.44820   5
  -2   0   2 0.62661 0.23364   1
   1   0  -2 1715.60 102.776   2
   1   0  -2 1803.71 100.845   1
   1   0  -2 1556.26 105.017   7
   1   0  -2 1610.91 104.481   3
   1   0  -2 1747.79 100.631   1
  -1   0   2 1740.03 102.703   2
  -1   0   2 1674.76 103.498   5
  -1   0   2 1690.19 104.535   3
  -1   0   2 1823.58 100.662   1
  -1   0   2 1805.39 100.980   1
   0   0  -2 1218.36 71.8779   1
   0   0  -2 1267.90 71.8861   1
   0   0  -2 1182.19 74.5428   3
   0   0  -2 1161.50 74.9459   7
   0   0  -2 1272.33 73.2615   2
   0   0   2 1273.99 71.8616   1
   0   0   2 1252.15 71.9369   1
   0   0   2 1190.09 73.1999   2
   0   0   2 1192.44 74.3381   3
  -1   0  -2 11.8073 1.11022   7
  -1   0  -2 12.0226 0.92212   2
  -1   0  -2 11.7006 0.84947   2
  -1   0  -2 12.3842 0.76600   1
  -1   0  -2 12.4460 0.78468   3
  -1   0  -2 12.2476 0.78013   1
  -1   0  -2 12.0066 0.79761   3
  -1   0  -2 11.0084 1.18036   6
  -1   0  -2 9.02467 1.25369   4
   1   0   2 13.4875 0.78510   1
   1   0   2 13.0605 0.78461   1
  -2   0  -2 341.998 20.9602   3
  -2   0  -2 338.749 20.1816   1
  -2   0  -2 348.655 21.0171   5
  -2   0  -2 351.181 21.4042   7
  -2   0  -2 315.000 20.6324   2
  -2   0  -2 347.093 20.6507   2
  -2   0  -2 343.889 20.9457   3
  -2   0  -2 348.153 20.1779   1
  -2   0  -2 335.935 21.2986   6
  -2   0  -2 338.527 29.2940   4
   2   0   2 361.277 20.1827   1
   2   0   2 359.014 20.1941   1
  -3   0  -2 647.417 40.3208   7
  -3   0  -2 635.478 40.1724   6
  -3   0  -2 664.109 55.4929   4
  -3   0  -2 661.773 39.7493   5
  -4   0  -2 1.61734 0.60645   7
  -4   0  -2 1.68289 0.87404   6
  -4   0  -2 2.58000 0.75403   5
  -5   0  -2 374.007 24.1427   6
  -5   0  -2 393.079 23.8372   5
  -6   0  -2 86.2496 6.39013   6
  -6   0  -2 93.8730 9.57888  14
  -6   0  -2 96.4165 7.86618  15
  -6   0  -2 73.6513 7.69281  16
  -6   0  -2 92.4991 6.21983  11
  -6   0  -2 95.1321 7.24641  12
  -6   0  -2 88.1025 6.16481   5
  -6   0  -2 90.6155 7.81249  13
  -6   0  -2 82.9196 4.77816  10
  -7   0  -2 179.409 12.1605  12
  -7   0  -2 166.770 16.0695  14
  -7   0  -2 143.453 10.7724   5
  -7   0  -2 178.894 13.5997  13
  -7   0  -2 156.543 12.7349  15
  -8   0  -2 46.8988 5.85238  15
  -8   0  -2 49.9583 6.29442  13
  -8   0  -2 48.5672 7.77986  14
  -8   0  -2 44.2715 4.79833  12
  -9   0  -2 9.52760 2.49715  13
  -9   0  -2 13.8461 3.82347  14
  -9   0  -2 7.80724 2.81434  15
 -10   0  -2 12.1511 2.97302  14
 -10   1   2 11.3562 2.68955  14
  -9   1   2 1.68578 2.32646  14
  -9   1   2 3.32463 1.69445  15
  -9   1   2 1.97661 0.62776  10
  -9   1   2 0.87921 2.07136  13
  -8   1   2 27.6437 2.34577  10
  -8   1   2 30.5995 4.39019  15
  -8   1   2 29.8197 5.17775  14
  -8   1   2 30.0134 4.24853  13
  -7   1   2 91.7315 5.71816   9
  -7   1   2 91.1376 5.55840  10
  -7   1   2 96.7181 10.2047  14
  -7   1   2 89.4529 8.24341  15
  -7   1   2 91.2635 8.34639  13
  -7   1   2 80.0612 6.48788   5
  -6   1   2 30.0522 2.43903  10
  -6   1   2 31.2694 2.10799   3
  -6   1   2 28.1725 3.50579  12
  -6   1   2 30.2636 2.53552   9
  -6   1   2 28.3658 2.82272   5
  -6   1   2 33.7856 4.64264  14
  -6   1   2 31.3588 3.86749  15
  -6   1   2 29.2384 3.77343  13
  -6   1   2 29.9279 2.99908   6
  -6   1   2 31.1688 2.32942   2
  -5   1   2 114.304 7.75671   6
  -5   1   2 112.207 7.12034   3
  -5   1   2 113.584 7.22848   2
  -5   1   2 115.448 7.60888   5
  -4   1   2 119.402 7.61068   2
  -4   1   2 126.295 7.99510   6
  -4   1   2 120.423 7.53885   3
  -4   1   2 118.884 7.82134   5
   3  -1  -2 391.225 22.6173   1
   3  -1  -2 389.527 22.5983   1
  -3   1   2 394.183 23.2180   2
  -3   1   2 358.479 22.5924   1
  -3   1   2 407.534 23.4915   5
  -3   1   2 407.154 23.4377   3
  -3   1   2 340.184 22.5574   1
   2  -1  -2 19.2986 1.72956   2
   2  -1  -2 22.5558 1.43302   1
   2  -1  -2 20.6461 1.39985   1
   2  -1  -2 21.8302 1.41697   3
  -2   1   2 22.7224 1.61979   2
  -2   1   2 22.0177 1.44413   3
  -2   1   2 22.8852 1.62143   5
  -2   1   2 21.3782 1.39312   1
  -2   1   2 20.6214 1.41002   1
   1  -1  -2 938.559 51.3957   1
   1  -1  -2 843.391 53.3043   3
   1  -1  -2 852.879 52.6142   2
   1  -1  -2 833.534 53.6971   7
   1  -1  -2 870.747 51.3754   1
  -1   1   2 873.750 53.3247   3
  -1   1   2 906.253 51.4460   1
  -1   1   2 882.815 52.9337   5
  -1   1   2 886.775 51.3892   1
  -1   1   2 874.452 52.5588   2
   0  -1  -2 1204.89 67.7931   1
   0  -1  -2 1165.10 69.0937   2
   0  -1  -2 1090.64 70.2554   3
   0  -1  -2 1212.14 67.8695   1
   0  -1  -2 1140.75 70.6803   7
   0   1   2 1048.68 70.1214   3
   0   1   2 1190.76 67.7474   1
   0   1   2 1203.25 67.8520   1
   0   1   2 1131.40 69.0562   2
  -1  -1  -2 15.6567 1.16763   2
  -1  -1  -2 17.4256 1.06067   1
  -1  -1  -2 16.8698 1.07830   3
  -1  -1  -2 16.5602 1.36988   6
  -1  -1  -2 16.0796 1.05126   1
  -1  -1  -2 13.2174 1.69921   4
  -1  -1  -2 16.1237 1.15581   5
  -1  -1  -2 16.1754 1.13003   2
  -1  -1  -2 15.8457 1.08810   3
  -1  -1  -2 16.3042 1.43102   7
   1   1   2 17.7804 1.05638   1
   1   1   2 16.9276 1.06434   1
  -2  -1  -2 317.758 21.0336   7
  -2  -1  -2 343.079 20.9201   6
  -2  -1  -2 363.814 20.6611   5
  -2  -1  -2 331.475 28.9398   4
  -3  -1  -2 0.85287 0.55151   7
  -3  -1  -2 1.56967 0.51687   5
  -3  -1  -2 1.76745 0.63090   6
  -3  -1  -2 1.90827 0.64075   4
  -4  -1  -2 745.235 43.0108   5
  -4  -1  -2 755.329 60.1142   4
  -4  -1  -2 646.313 43.5245   7
  -4  -1  -2 675.708 43.3847   6
  -5  -1  -2 172.101 10.5795   5
  -5  -1  -2 156.605 10.6755   6
  -6  -1  -2 145.189 14.5609  14
  -6  -1  -2 153.992 9.82264  11
  -6  -1  -2 151.750 10.7481  12
  -6  -1  -2 151.637 11.7920  13
  -6  -1  -2 134.440 11.3463  15
  -6  -1  -2 147.134 9.77683   5
  -7  -1  -2 35.6715 4.61189  13
  -7  -1  -2 28.5162 4.05269  15
  -7  -1  -2 30.8587 3.89621  12
  -7  -1  -2 26.9730 2.73690   5
  -7  -1  -2 32.7808 5.58583  14
  -7  -1  -2 30.3586 3.29530  11
  -8  -1  -2 2.53572 2.40915  15
  -8  -1  -2 -0.3959 2.45828  13
  -8  -1  -2 0.79066 2.36477  14
  -8  -1  -2 1.57972 1.65226  12
  -9  -1  -2 64.5768 9.00522  14
  -9  -1  -2 65.9470 7.06412  13
 -10  -1  -2 -0.1710 1.72570  14
 -10  -1  -2 -0.0558 1.59613  13
 -10   2   2 27.3803 4.05811  14
  -9   2   2 -1.6245 1.39907  15
  -9   2   2 0.37052 0.53181  10
  -9   2   2 -0.4853 1.87009  14
  -8   2   2 84.5441 8.73362  13
  -8   2   2 98.3777 5.90732  10
  -8   2   2 104.010 8.82066  15
  -8   2   2 101.472 11.0435  14
  -7   2   2 0.63581 2.07575  15
  -7   2   2 0.45870 1.01411   5
  -7   2   2 -0.0693 0.73475  10
  -7   2   2 0.25527 2.00902  13
  -7   2   2 -1.2464 1.09345   6
  -7   2   2 1.65757 1.83916  14
  -7   2   2 0.47042 0.91383   9
  -6   2   2 136.585 9.12770   2
  -6   2   2 143.791 14.0675  14
  -6   2   2 151.484 9.04699   3
  -6   2   2 138.142 9.71069   5
  -6   2   2 142.922 8.93396   9
  -6   2   2 139.413 11.6961  13
  -6   2   2 156.640 11.7045  15
  -6   2   2 146.550 9.94733   6
  -6   2   2 147.639 8.44593  10
  -5   2   2 208.810 12.5816   2
  -5   2   2 200.622 12.5248   3
  -5   2   2 199.360 13.1782   6
  -5   2   2 200.822 12.9992   5
  -4   2   2 374.228 22.7112   2
  -4   2   2 377.138 23.1014   5
  -4   2   2 357.134 22.8683   3
  -4   2   2 390.445 23.3427   6
   3  -2  -2 767.506 44.4767   1
   3  -2  -2 757.601 44.4826   1
  -3   2   2 808.178 45.5790   2
  -3   2   2 691.066 44.4673   1
  -3   2   2 678.073 44.4287   1
  -3   2   2 806.380 46.0657   5
  -3   2   2 799.176 46.1424   3
   2  -2  -2 3.26189 0.40813   3
   2  -2  -2 4.02614 0.43347   1
   2  -2  -2 3.18679 0.66508   2
   2  -2  -2 2.97138 0.43818   1
  -2   2   2 3.71444 0.69218   5
  -2   2   2 3.55301 0.45657   1
  -2   2   2 3.34842 0.38321   1
  -2   2   2 3.57539 0.44359   3
  -2   2   2 4.02805 0.59005   2
   1  -2  -2 1798.33 111.550   2
   1  -2  -2 1981.43 109.347   1
   1  -2  -2 1799.46 113.507   3
   1  -2  -2 1859.61 109.425   1
  -1   2   2 1875.29 109.311   1
  -1   2   2 1784.18 109.444   1
  -1   2   2 1815.72 113.522   3
  -1   2   2 1981.00 111.517   2
   0  -2  -2 642.798 35.5345   1
   0  -2  -2 659.022 35.5388   1
   0  -2  -2 597.759 37.2700   7
   0  -2  -2 569.667 36.3902   2
   0  -2  -2 622.858 36.8661   3
   0   2   2 607.404 35.5403   1
   0   2   2 591.795 36.3708   2
   0   2   2 602.025 35.5240   1
   0   2   2 553.738 36.8707   3
  -1  -2  -2 171.858 9.23048   1
  -1  -2  -2 133.020 13.5188   4
  -1  -2  -2 147.607 9.57258   3
  -1  -2  -2 169.360 9.51554   2
  -1  -2  -2 159.313 9.56798   3
  -1  -2  -2 142.136 9.54916   5
  -1  -2  -2 153.897 9.89320   7
  -1  -2  -2 152.007 9.49377   2
  -1  -2  -2 158.521 9.22962   1
   1   2   2 157.358 9.23804   1
   1   2   2 169.485 9.23068   1
  -2  -2  -2 18.7065 1.09882   3
  -2  -2  -2 16.5682 1.56734   7
  -2  -2  -2 15.9230 1.33215   6
  -2  -2  -2 19.0725 1.15388   2
  -2  -2  -2 18.3837 1.06767   1
  -2  -2  -2 17.7993 1.31354   5
  -2  -2  -2 15.3505 1.09270   3
  -2  -2  -2 17.5632 1.14547   2
  -2  -2  -2 17.5705 1.98183   4
  -2  -2  -2 16.7241 1.06361   1
   2   2   2 17.8852 1.07737   1
   2   2   2 17.3762 1.07236   1
  -3  -2  -2 484.230 39.2637   4
  -3  -2  -2 429.447 28.1907   6
  -3  -2  -2 451.233 28.4783   7
  -3  -2  -2 472.561 27.9879   5
  -4  -2  -2 433.975 25.6700   5
  -4  -2  -2 458.049 35.9470   4
  -4  -2  -2 364.865 25.7888   6
  -5  -2  -2 65.9451 5.70321   4
  -5  -2  -2 48.9237 4.03992   5
  -6  -2  -2 211.762 14.5717  12
  -6  -2  -2 219.418 19.9455  14
  -6  -2  -2 217.866 16.2180  13
  -6  -2  -2 203.717 13.5866   5
  -6  -2  -2 197.969 14.1445  18
  -6  -2  -2 225.351 13.7119  11
  -6  -2  -2 213.509 11.3630  10
  -7  -2  -2 43.0523 3.94870   5
  -7  -2  -2 49.3116 5.95326  13
  -7  -2  -2 48.6663 7.45218  14
  -7  -2  -2 49.3050 5.27730  12
  -7  -2  -2 51.9192 4.15838  11
  -8  -2  -2 54.2924 8.57123  14
  -8  -2  -2 56.6144 5.93085  12
  -8  -2  -2 52.5546 6.63824  13
  -9  -2  -2 36.0237 4.78024  13
  -9  -2  -2 35.6441 5.99573  14
  -9  -2  -2 28.8814 3.69985  12
 -10  -2  -2 9.85622 2.27316  13
 -10  -2  -2 7.06417 2.45522  14
  -9   3   2 89.5374 4.87769  10
  -9   3   2 75.5851 7.31227  15
  -9   3   2 84.6122 9.35725  14
  -8   3   2 33.5502 2.61276  10
  -8   3   2 32.5507 5.17661  14
  -8   3   2 32.1343 4.41553  13
  -8   3   2 33.0054 4.77840  15
  -7   3   2 71.6616 5.05043   9
  -7   3   2 70.9982 6.07497   6
  -7   3   2 71.2283 7.54153  13
  -7   3   2 87.8576 7.74980  15
  -7   3   2 76.9191 4.94524  10
  -7   3   2 89.3327 9.29987  14
  -6   3   2 151.984 10.0867   2
  -6   3   2 174.615 12.7067  15
  -6   3   2 161.942 9.91013   9
  -6   3   2 157.885 15.3320  14
  -6   3   2 154.184 10.8338   6
  -6   3   2 161.476 9.29061  10
  -6   3   2 164.783 9.95742   3
  -6   3   2 149.518 12.7900  13
  -5   3   2 45.5555 3.78028   5
  -5   3   2 48.7201 3.99056   6
  -5   3   2 51.0797 5.02681  15
  -5   3   2 46.8616 3.32067  10
  -5   3   2 55.9861 4.56078   8
  -5   3   2 45.9580 3.66844   9
  -5   3   2 49.6378 3.27420   3
  -5   3   2 53.0114 3.55469   2
  -4   3   2 762.318 44.6163   2
  -4   3   2 769.347 45.5935   6
  -4   3   2 699.084 45.1591   5
  -4   3   2 726.442 45.0815   3
   3  -3  -2 0.21274 0.22093   1
  -3   3   2 0.39106 0.22014   3
  -3   3   2 0.87494 0.47161   2
  -3   3   2 0.69641 0.46930   6
  -3   3   2 0.14004 0.57544   5
  -3   3   2 0.29651 0.18344   1
   2  -3  -2 378.418 23.3080   3
   2  -3  -2 406.578 22.4980   1
   2  -3  -2 352.338 23.1791   2
   2  -3  -2 385.825 22.4962   1
  -2   3   2 371.650 22.4621   1
  -2   3   2 415.599 23.1580   2
  -2   3   2 388.474 23.3231   3
  -2   3   2 350.617 22.4894   1
   1  -3  -2 423.612 24.2728   1
   1  -3  -2 394.599 25.1573   3
   1  -3  -2 402.263 24.9610   2
   1  -3  -2 454.559 24.2743   1
  -1   3   2 384.893 25.1650   3
  -1   3   2 391.803 24.2696   1
  -1   3   2 432.606 24.9458   2
  -1   3   2 416.355 24.2513   1
   0  -3  -2 299.289 18.2585   3
   0  -3  -2 325.978 17.6096   1
   0  -3  -2 312.802 18.1382   2
   0  -3  -2 318.061 17.6167   1
   0   3   2 283.800 17.6102   1
   0   3   2 299.036 17.5987   1
   0   3   2 291.783 18.1275   2
   0   3   2 259.674 18.2560   3
  -1  -3  -2 128.465 7.39179   3
  -1  -3  -2 110.148 7.38743   3
  -1  -3  -2 121.217 7.12884   1
  -1  -3  -2 128.143 7.12704   1
  -1  -3  -2 113.096 10.5374   4
  -1  -3  -2 129.869 7.41656   2
  -1  -3  -2 113.001 7.39976   2
   1   3   2 110.025 7.12567   1
   1   3   2 125.716 7.13158   1
  -2  -3  -2 7.44718 0.54700   1
  -2  -3  -2 8.00118 0.71152   2
  -2  -3  -2 9.96000 0.58260   3
  -2  -3  -2 6.60071 0.55052   1
  -2  -3  -2 7.20176 0.83716   5
  -2  -3  -2 6.73385 0.75406   2
  -2  -3  -2 8.67538 0.56775   3
  -2  -3  -2 7.20736 1.17334   4
   2   3   2 6.68881 0.56946   1
   2   3   2 6.82113 0.55072   1
  -3  -3  -2 99.4139 5.73975   2
  -3  -3  -2 99.8839 5.71662   2
  -3  -3  -2 91.4641 5.51651   1
  -3  -3  -2 102.330 8.46322   4
  -3  -3  -2 84.0514 5.50990   1
  -3  -3  -2 85.8833 5.70041   3
  -3  -3  -2 94.8587 5.97889   5
  -3  -3  -2 104.502 5.72634   3
   3   3   2 86.6195 5.52603   1
   3   3   2 87.7619 5.52138   1
  -4  -3  -2 107.956 6.62169   2
  -4  -3  -2 109.041 6.62214   2
  -4  -3  -2 99.9978 6.69966   3
  -4  -3  -2 113.953 7.13566   5
  -4  -3  -2 113.930 6.70529   3
  -4  -3  -2 124.931 10.0499   4
  -5  -3  -2 389.440 32.3083   4
  -5  -3  -2 355.228 23.0515   5
  -6  -3  -2 4.39977 1.66867  12
  -6  -3  -2 4.70049 1.77537  13
  -6  -3  -2 1.53694 0.92409   5
  -6  -3  -2 3.12244 1.15940  11
  -6  -3  -2 1.05011 2.30270  14
  -6  -3  -2 2.74201 0.45070  10
  -6  -3  -2 3.20124 1.22444  18
  -7  -3  -2 176.806 11.1212  11
  -7  -3  -2 138.536 10.7557   5
  -7  -3  -2 163.589 16.4775  14
  -7  -3  -2 174.583 11.9506  12
  -7  -3  -2 171.737 13.2519  13
  -8  -3  -2 383.962 25.0050  12
  -8  -3  -2 359.896 27.4003  13
  -9  -3  -2 45.6784 5.26014  13
  -9  -3  -2 44.5635 4.92954  12
  -9  -3  -2 40.4125 6.31350  14
 -10  -3  -2 31.4898 3.99969  13
  -9   4   2 31.0286 4.46150  14
  -9   4   2 43.4303 4.19208  15
  -8   4   2 63.6129 4.15285  10
  -8   4   2 65.8932 6.32661  15
  -8   4   2 60.4991 7.45658  14
  -7   4   2 118.970 7.56743   9
  -7   4   2 117.328 12.1148  14
  -7   4   2 124.998 10.2443  15
  -7   4   2 116.063 7.21024  10
  -6   4   2 1.25376 0.71589   2
  -6   4   2 1.58265 0.99928   6
  -6   4   2 2.05275 0.37520   3
  -6   4   2 2.74270 1.00795  10
  -6   4   2 2.62028 1.20038   9
  -6   4   2 3.11111 1.45817  15
  -6   4   2 1.51980 2.27615  14
  -6   4   2 0.39102 1.96188  13
  -5   4   2 157.579 15.1537  13
  -5   4   2 194.173 12.2973   9
  -5   4   2 209.773 15.8725   8
  -5   4   2 211.009 12.6814   2
  -5   4   2 190.001 18.3757  14
  -5   4   2 209.566 13.2524   6
  -5   4   2 212.811 12.4956   3
  -5   4   2 203.485 14.8493  15
  -5   4   2 199.103 11.4814  10
  -4   4   2 4.83809 1.09710   6
  -4   4   2 4.20060 0.53849   3
  -4   4   2 4.58230 0.88574   2
  -3   4   2 260.508 16.6276   3
  -3   4   2 270.534 16.6581   2
  -3   4   2 283.505 17.0426   6
   2  -4  -2 427.733 24.0654   1
   2  -4  -2 388.052 24.7920   2
   2  -4  -2 384.895 24.9100   3
   2  -4  -2 433.110 24.0409   1
  -2   4   2 400.284 24.9233   3
  -2   4   2 376.386 24.0428   1
  -2   4   2 376.875 23.9983   1
  -2   4   2 432.578 24.8035   2
  -2   4   2 455.931 25.2344   6
   1  -4  -2 45.5726 5.30811   4
   1  -4  -2 63.8678 3.71910   3
   1  -4  -2 61.4154 3.94864   2
   1  -4  -2 60.8171 3.61300   1
   1  -4  -2 64.0077 3.60577   1
  -1   4   2 55.9924 3.70867   3
  -1   4   2 53.8329 3.59567   1
  -1   4   2 59.8843 3.94647   2
  -1   4   2 56.1387 3.57767   1
  -1   4   2 64.5001 3.93204   6
   0  -4  -2 75.1863 4.43330   2
   0  -4  -2 71.3135 4.24391   3
   0  -4  -2 73.5786 4.10270   1
   0  -4  -2 59.7359 6.10188   4
   0  -4  -2 70.8562 4.11379   1
   0   4   2 59.9816 4.23091   3
   0   4   2 63.3758 4.43368   2
   0   4   2 63.3774 4.10206   1
   0   4   2 66.8375 4.09201   1
  -1  -4  -2 50.5781 2.98377   1
  -1  -4  -2 49.8179 2.99216   1
  -1  -4  -2 54.6099 3.28370   2
  -1  -4  -2 48.1949 4.62219   4
  -1  -4  -2 53.7919 3.09936   3
   1   4   2 38.9656 3.07017   3
   1   4   2 47.6450 2.99154   1
   1   4   2 45.7892 3.06131   6
   1   4   2 41.9177 3.29772   2
   1   4   2 50.4629 2.99556   1
  -2  -4  -2 456.110 28.1775   1
  -2  -4  -2 532.861 29.2580   3
  -2  -4  -2 466.309 29.2581   5
  -2  -4  -2 501.208 28.9354   2
  -2  -4  -2 468.335 28.1775   1
  -2  -4  -2 520.490 41.0771   4
   2   4   2 461.897 28.1928   1
   2   4   2 430.585 28.1716   1
  -3  -4  -2 2.18039 0.49321   2
  -3  -4  -2 2.04466 0.66879   5
  -3  -4  -2 2.08629 0.92522   4
  -3  -4  -2 1.66066 0.25738   3
  -4  -4  -2 12.6272 1.95805   4
  -4  -4  -2 12.0150 0.82999   3
  -4  -4  -2 10.9880 0.97503   2
  -4  -4  -2 11.8035 1.37760   5
  -5  -4  -2 41.6552 3.73188  11
  -5  -4  -2 42.4818 2.70695  10
  -5  -4  -2 45.3034 4.36874  12
  -5  -4  -2 43.5524 3.31891   5
  -5  -4  -2 45.8767 4.75958   4
  -5  -4  -2 42.1713 4.01023  18
  -5  -4  -2 40.8472 4.48724  13
  -6  -4  -2 125.674 9.33236   5
  -6  -4  -2 140.178 14.1232  14
  -6  -4  -2 146.433 9.97963  18
  -6  -4  -2 143.771 11.6490  13
  -6  -4  -2 140.855 9.50020  11
  -6  -4  -2 153.856 10.6318  12
  -6  -4  -2 140.355 7.78886  10
  -7  -4  -2 77.9440 5.95146  11
  -7  -4  -2 80.6885 7.08110  12
  -7  -4  -2 76.3168 7.90882  13
  -7  -4  -2 74.2748 9.54747  14
  -7  -4  -2 77.1584 4.27889  10
  -8  -4  -2 222.492 22.2541  14
  -8  -4  -2 239.099 18.3120  13
  -8  -4  -2 241.107 16.3764  12
  -9  -4  -2 75.1974 8.90830  14
  -9  -4  -2 87.2938 7.10351  12
  -9  -4  -2 83.1405 7.77065  13
 -10  -4  -2 2.52632 1.73562  13
  -9   5   2 8.00585 1.78099  15
  -8   5   2 82.3982 7.45578  15
  -8   5   2 82.4528 5.03762  10
  -7   5   2 1.96644 0.80339  10
  -7   5   2 2.26126 0.97602   9
  -7   5   2 2.08307 1.90258  15
  -6   5   2 94.1900 6.35013   9
  -6   5   2 92.8032 5.88286  10
  -6   5   2 90.1867 8.95630  16
  -6   5   2 80.8204 6.64000   6
  -6   5   2 98.7288 7.89892  15
  -5   5   2 163.417 11.0707   6
  -5   5   2 171.050 10.3002   3
  -5   5   2 174.309 13.2819   8
  -5   5   2 159.248 10.4523   9
  -5   5   2 150.928 9.56088  10
  -5   5   2 154.376 10.5472   2
  -5   5   2 172.316 12.4347  15
  -4   5   2 456.352 28.5522   6
  -4   5   2 472.640 27.9757   3
  -4   5   2 408.443 26.6804   9
  -4   5   2 470.332 27.9614   2
  -4   5   2 483.157 35.1511   8
  -4   5   2 431.811 31.1942  15
  -3   5   2 47.5874 3.18400   3
  -3   5   2 46.4243 3.62990   6
  -3   5   2 51.1016 3.59181   2
   2  -5  -2 13.7008 2.00326   4
  -2   5   2 18.8401 1.68921   2
  -2   5   2 16.8087 1.21965   3
  -2   5   2 14.7813 1.17052   1
  -2   5   2 18.1502 1.62919   6
   1  -5  -2 291.565 16.3425   1
   1  -5  -2 280.414 16.2992   1
   1  -5  -2 248.449 23.6640   4
   1  -5  -2 295.231 16.9549   2
   1  -5  -2 297.864 16.9164   3
  -1   5   2 295.448 17.1312   6
  -1   5   2 245.260 16.3028   1
  -1   5   2 274.209 16.9777   2
  -1   5   2 257.016 16.2802   1
  -1   5   2 268.465 16.9029   3
   0  -5  -2 6.99778 1.23204   4
   0  -5  -2 6.26793 0.61553   1
   0  -5  -2 6.86460 0.60802   3
   0  -5  -2 7.37749 1.00104   2
   0  -5  -2 5.99270 0.58484   1
   0   5   2 5.52438 0.59236   1
   0   5   2 6.95188 0.82038   6
   0   5   2 6.76123 0.96176   2
   0   5   2 5.50838 0.59253   3
   0   5   2 6.83818 0.62350   1
  -1  -5  -2 774.785 64.5224   4
  -1  -5  -2 830.116 46.1999   3
   1   5   2 667.933 44.4913   1
  -2  -5  -2 118.251 10.8467   4
  -2  -5  -2 118.057 7.61848   2
  -2  -5  -2 124.625 7.52625   3
  -3  -5  -2 130.443 8.73735   5
  -3  -5  -2 129.608 8.43835   2
  -3  -5  -2 141.408 12.1774   4
  -3  -5  -2 136.668 8.35724   3
  -4  -5  -2 533.560 34.3135   5
  -4  -5  -2 582.378 48.0696   4
  -5  -5  -2 125.574 8.46550  18
  -5  -5  -2 112.008 6.51278  10
  -5  -5  -2 112.955 6.99536   3
  -5  -5  -2 115.938 9.78691  13
  -5  -5  -2 116.342 7.77966   5
  -5  -5  -2 118.046 7.91972  11
  -5  -5  -2 108.383 7.01330   2
  -5  -5  -2 115.860 8.62212  12
  -5  -5  -2 106.774 6.73443   9
  -5  -5  -2 122.720 10.8099   4
  -6  -5  -2 160.066 12.9195  13
  -6  -5  -2 154.152 8.62276  10
  -6  -5  -2 156.737 11.3113  12
  -6  -5  -2 163.581 10.4935  11
  -6  -5  -2 139.130 10.2669   5
  -7  -5  -2 9.52326 1.84021  11
  -7  -5  -2 10.9440 2.32663  12
  -7  -5  -2 7.60192 0.84750  10
  -7  -5  -2 8.45809 2.75743  13
  -8  -5  -2 0.67436 1.49972  12
  -8  -5  -2 1.26537 2.10277  13
  -9  -5  -2 11.3708 2.17143  12
  -9  -5  -2 18.6894 3.41382  13
  -8   6   2 7.28135 1.88812  15
  -8   6   2 9.73871 1.15112  10
  -7   6   2 134.592 7.71233  10
  -7   6   2 121.107 10.9570  16
  -7   6   2 124.329 7.76160   9
  -7   6   2 126.318 10.0634  15
  -6   6   2 61.3890 4.84694   9
  -6   6   2 61.7407 4.47189  10
  -6   6   2 61.5498 5.79706  15
  -6   6   2 63.5666 7.29833  16
  -5   6   2 78.8332 5.94672   9
  -5   6   2 84.0523 6.92180   8
  -5   6   2 75.8846 5.96707   6
  -5   6   2 78.5152 5.29151  10
  -5   6   2 77.8091 5.10478   3
  -5   6   2 70.3574 5.53322   2
  -5   6   2 83.6710 6.80409  15
  -4   6   2 49.1718 4.72303  15
  -4   6   2 52.7599 5.12595   8
  -4   6   2 50.2302 3.86148   2
  -4   6   2 52.3579 3.99711   6
  -4   6   2 42.2114 3.50305  10
  -4   6   2 48.6029 3.32245   3
  -4   6   2 48.9061 4.29370   9
  -3   6   2 12.5597 1.72058   6
  -3   6   2 19.1633 2.77010   8
  -3   6   2 10.0950 0.97535   3
  -3   6   2 12.6853 1.68775   2
  -2   6   2 201.915 12.5474   3
  -2   6   2 195.891 12.8084   2
  -2   6   2 207.009 12.9233   6
   1  -6  -2 101.255 8.86583   4
  -1   6   2 94.1118 6.22143   3
  -1   6   2 100.618 6.47424   6
  -1   6   2 96.6449 6.62040   2
   0  -6  -2 1361.72 118.619   4
   0  -6  -2 1433.60 85.1527   3
  -1  -6  -2 117.070 7.56427   2
  -1  -6  -2 113.575 7.36358   3
  -1  -6  -2 123.017 10.6075   4
  -2  -6  -2 111.811 7.12658   3
  -2  -6  -2 117.764 10.3664   4
  -2  -6  -2 111.529 7.31049   2
  -3  -6  -2 524.679 42.5515   4
  -3  -6  -2 491.474 29.9721   2
  -3  -6  -2 481.880 30.5250   5
  -3  -6  -2 476.774 30.1615   3
  -4  -6  -2 93.8534 6.04133   3
  -4  -6  -2 110.070 9.31335   4
  -4  -6  -2 95.0527 6.28070   2
  -4  -6  -2 97.8752 6.78560   5
  -4  -6  -2 93.8215 6.70183  11
  -4  -6  -2 92.8844 5.69897  10
  -4  -6  -2 93.3376 6.25593   9
  -4  -6  -2 101.784 8.73531  13
  -4  -6  -2 88.4774 7.58857  12
  -5  -6  -2 185.730 15.7512   4
  -5  -6  -2 178.517 12.5457  12
  -5  -6  -2 170.702 11.3481   5
  -5  -6  -2 193.948 14.2153  13
  -5  -6  -2 156.333 10.5734   2
  -5  -6  -2 182.926 11.2911  11
  -5  -6  -2 166.801 10.1951   9
  -5  -6  -2 170.545 9.67745  10
  -5  -6  -2 164.116 10.5222   3
  -6  -6  -2 13.8574 1.52278  10
  -6  -6  -2 10.0702 2.58184  12
  -6  -6  -2 16.3144 2.25209  11
  -6  -6  -2 16.8862 3.46516  13
  -7  -6  -2 39.3332 4.89533  12
  -7  -6  -2 36.6353 2.53337  10
  -7  -6  -2 41.1958 5.51621  13
  -7  -6  -2 41.5325 3.71084  11
  -8  -6  -2 75.4998 7.58528  13
  -8  -6  -2 73.1276 6.29038  12
  -9  -6  -2 37.0761 3.63163  12
  -9  -6  -2 38.4447 5.21341  13
  -8   7   2 30.9644 3.35407  15
  -8   7   2 37.4170 2.45111  10
  -7   7   2 23.0310 2.00886  10
  -7   7   2 17.5304 3.07066  16
  -7   7   2 14.8637 2.66843  15
  -6   7   2 22.6532 2.55071   9
  -6   7   2 25.5170 2.40844  10
  -6   7   2 23.3812 3.30953  15
  -6   7   2 28.7579 4.30582  16
  -5   7   2 188.336 14.1707  15
  -5   7   2 195.468 11.4031  10
  -5   7   2 193.196 15.2544   8
  -5   7   2 189.495 12.2219   9
  -4   7   2 161.106 10.5891   9
  -4   7   2 151.542 10.5551   2
  -4   7   2 158.769 10.8144   6
  -4   7   2 179.868 13.5305   8
  -4   7   2 150.232 9.64692  10
  -3   7   2 145.486 11.6860   8
  -3   7   2 135.063 9.01489   6
  -3   7   2 121.192 8.93717   9
  -3   7   2 131.461 8.44985   3
  -3   7   2 132.074 8.95958   2
  -2   7   2 53.1764 5.63698   8
  -2   7   2 47.2702 4.05291   2
  -2   7   2 50.7788 3.86844   6
  -2   7   2 51.5736 3.46333   3
   0  -7  -2 107.105 7.25239   2
   0  -7  -2 110.378 6.94868   3
  -1  -7  -2 17.7074 1.90455   2
  -1  -7  -2 20.2807 2.48665   4
  -1  -7  -2 19.5529 1.49924   3
  -2  -7  -2 214.136 13.2475   9
  -2  -7  -2 197.534 17.1015   8
  -2  -7  -2 217.370 13.5238   3
  -2  -7  -2 224.196 12.4592  10
  -2  -7  -2 223.732 19.2679   4
  -2  -7  -2 230.649 13.7309   2
  -3  -7  -2 9.22932 1.59452   9
  -3  -7  -2 0.76715 0.79342  10
  -3  -7  -2 0.30423 1.04145   5
  -3  -7  -2 1.53579 0.92230   8
  -3  -7  -2 7.52543 1.11044   2
  -3  -7  -2 0.43066 0.71464   4
  -3  -7  -2 0.29425 1.32974  12
  -3  -7  -2 0.74693 0.29665   3
  -4  -7  -2 70.6335 5.30012   5
  -4  -7  -2 62.2055 4.75419   2
  -4  -7  -2 66.8405 4.92186   9
  -4  -7  -2 76.5570 7.38563  13
  -4  -7  -2 69.1926 5.07455  11
  -4  -7  -2 78.5898 4.55953  10
  -4  -7  -2 65.4941 4.44865   3
  -4  -7  -2 77.8376 7.14317   4
  -4  -7  -2 68.5942 6.01617  12
  -5  -7  -2 22.8487 4.25482  13
  -5  -7  -2 24.5631 2.54977   9
  -5  -7  -2 23.9218 3.55923   4
  -5  -7  -2 22.0572 2.82590   5
  -5  -7  -2 28.6392 2.34569  10
  -5  -7  -2 28.9465 2.99297  11
  -5  -7  -2 25.8632 3.57778  12
  -6  -7  -2 79.7898 5.95078  11
  -6  -7  -2 73.4087 4.83774  10
  -6  -7  -2 80.6773 8.51903  13
  -6  -7  -2 78.6249 7.04094  12
  -7  -7  -2 27.1204 3.48474  12
  -7  -7  -2 26.0358 2.73763  11
  -7  -7  -2 19.1665 4.13261  13
  -7  -7  -2 26.1488 1.96662  10
  -8  -7  -2 3.40442 2.02816  13
  -8  -7  -2 -0.9867 1.73928  12
  -9  -7  -2 27.1194 3.34727  13
  -7   8   2 3.45817 0.92394  10
  -7   8   2 3.45189 1.30142  15
  -7   8   2 3.92285 1.58106  16
  -6   8   2 85.4747 5.48619  10
  -6   8   2 85.8874 8.12263  16
  -6   8   2 89.2757 5.77958   9
  -6   8   2 69.9595 6.58979  15
  -5   8   2 10.7080 2.78528  16
  -5   8   2 10.4436 1.70722  10
  -5   8   2 13.0104 2.29652   9
  -5   8   2 12.1662 1.56142   8
  -4   8   2 357.326 27.3777   8
  -4   8   2 335.480 21.1885   9
  -3   8   2 213.577 14.2224   9
  -3   8   2 228.251 18.3584   8
  -2   8   2 15.1702 3.15535   8
   0  -8  -2 2.34318 1.47325   8
  -1  -8  -2 10.1041 0.99562   3
  -1  -8  -2 11.7091 1.62895   2
  -1  -8  -2 13.3011 2.14115   9
  -1  -8  -2 12.9911 2.09211   8
  -2  -8  -2 1.05035 1.18733   8
  -2  -8  -2 2.28310 0.99477  10
  -2  -8  -2 1.96894 0.44623   3
  -2  -8  -2 1.63488 0.87118   2
  -2  -8  -2 1.06517 1.07181  12
  -2  -8  -2 1.02533 1.28855   9
  -3  -8  -2 155.282 10.4190   2
  -3  -8  -2 166.306 12.8844   8
  -3  -8  -2 160.742 14.6486   4
  -3  -8  -2 169.133 11.8656  12
  -3  -8  -2 177.556 10.3600   9
  -3  -8  -2 162.805 10.9197   5
  -3  -8  -2 145.322 10.0953   3
  -3  -8  -2 172.200 9.45714  10
  -4  -8  -2 70.8558 4.33131  10
  -4  -8  -2 66.1559 4.81768   9
  -4  -8  -2 57.7478 6.49508  13
  -4  -8  -2 56.7874 4.85892   5
  -4  -8  -2 61.8208 5.99832  12
  -4  -8  -2 58.6107 6.32394   4
  -5  -8  -2 25.9232 2.52762   9
  -5  -8  -2 24.3436 2.19535  10
  -5  -8  -2 24.2559 3.31476  12
  -5  -8  -2 27.0763 4.56941  13
  -6  -8  -2 102.474 5.93357  10
  -6  -8  -2 88.5615 6.87200  11
  -6  -8  -2 101.581 9.61377  13
  -6  -8  -2 94.5154 7.98829  12
  -7  -8  -2 5.71182 2.89758  13
  -7  -8  -2 5.20421 0.81283  10
  -7  -8  -2 4.97796 1.68456  12
  -8  -8  -2 36.4957 3.60496  12
  -8  -8  -2 54.5740 4.96656  13
  -7   9   2 19.2837 1.60120  10
  -7   9   2 21.7627 2.74680  16
  -6   9   2 5.30743 1.09456   9
  -6   9   2 4.53628 1.71859  16
  -6   9   2 4.08168 1.28682  10
  -5   9   2 28.8442 3.01757   9
  -5   9   2 30.8880 4.09944  16
  -4   9   2 102.356 7.36971   9
  -4   9   2 93.5357 8.41063   8
  -3   9   2 257.938 20.5056   8
  -3   9   2 241.348 15.9148   9
  -2   9   2 96.7943 9.40771   8
  -1   9   2 28.3013 4.45070   8
   0  -9  -2 166.776 13.8705   8
  -1  -9  -2 32.1256 3.77194   8
  -1  -9  -2 37.8120 3.73556   9
  -2  -9  -2 51.6723 4.28573   9
  -2  -9  -2 49.7288 4.25649   5
  -2  -9  -2 59.1268 5.38872  12
  -2  -9  -2 55.6122 5.25411   8
  -3  -9  -2 93.7974 6.53032   9
  -3  -9  -2 88.2381 7.52971  12
  -3  -9  -2 95.9901 5.90203  10
  -3  -9  -2 87.1332 7.50980   8
  -4  -9  -2 90.1138 7.52970  12
  -4  -9  -2 92.8046 5.79899  10
  -4  -9  -2 84.5262 6.09067   9
  -4  -9  -2 93.1721 8.44812  13
  -5  -9  -2 132.529 10.2148  12
  -5  -9  -2 147.713 12.0381  13
  -5  -9  -2 140.096 8.48762   9
  -5  -9  -2 131.714 8.01427  10
  -6  -9  -2 -0.1513 2.48881  13
  -6  -9  -2 2.05309 0.69488  10
  -6  -9  -2 0.11622 1.23240  12
  -7  -9  -2 83.2814 4.20657  10
  -7  -9  -2 59.1756 5.45164  12
  -7  -9  -2 69.8473 6.62106  13
  -6  10   2 7.11701 1.06496  10
  -6  10   2 5.64099 1.51355  16
  -5  10   2 43.1496 3.40678   9
  -5  10   2 43.5664 3.33715  10
  -5  10   2 42.3660 4.58580  16
  -4  10   2 5.30888 1.16790   8
  -4  10   2 6.85850 2.01135   9
  -4  10   2 4.35421 2.14993  16
  -3  10   2 7.29528 2.07774   8
  -3  10   2 8.94745 2.43180   9
  -2  10   2 30.5151 4.15202   8
   1 -10  -2 91.2562 7.99963   8
  -1  10   2 72.0353 8.06807   8
   0 -10  -2 112.916 9.99427   8
  -1 -10  -2 113.563 9.64991   8
  -1 -10  -2 114.367 7.95022   9
  -1 -10  -2 104.251 8.35945  12
  -2 -10  -2 103.678 7.15798   9
  -2 -10  -2 101.466 8.11819  12
  -2 -10  -2 103.280 8.73074   8
  -3 -10  -2 1.68033 1.84063  13
  -3 -10  -2 -0.3545 1.08666  10
  -3 -10  -2 -0.5895 1.37234   9
  -3 -10  -2 0.75312 1.22468  12
  -3 -10  -2 0.16814 0.64499   8
  -4 -10  -2 117.545 7.11415  10
  -4 -10  -2 114.756 7.57526   9
  -4 -10  -2 111.614 8.59966  12
  -4 -10  -2 124.676 10.3115  13
  -5 -10  -2 23.8319 1.88211   9
  -5 -10  -2 25.0626 2.34186  10
  -5 -10  -2 26.7290 3.29909  12
  -5 -10  -2 27.7403 3.80545  13
  -6 -10  -2 53.2652 4.92359  13
  -6 -10  -2 44.2322 2.92128  10
  -5  11   2 3.25120 1.17916  16
  -4  11   2 25.7462 3.24163  16
  -4  11   2 28.3537 2.66615   9
  -3  11   2 71.0827 5.36497   9
  -3  11   2 70.0424 6.04222   8
  -3  11   2 64.9479 6.29329  16
   2 -11  -2 29.5296 3.85486   8
  -2  11   2 26.1015 3.50827  16
  -2  11   2 24.3252 3.40963   8
   1 -11  -2 62.8094 5.78882   8
  -1  11   2 51.6970 6.30815   8
   0 -11  -2 27.5276 3.20996   8
   0 -11  -2 20.9296 2.76907  12
   0  11   2 22.6719 4.10061   8
  -1 -11  -2 110.594 8.28861  12
  -1 -11  -2 108.117 9.40208   8
  -1 -11  -2 124.854 8.03313   9
  -2 -11  -2 20.4577 2.61049   9
  -2 -11  -2 21.9113 2.37311   8
  -3 -11  -2 58.6262 3.96995  10
  -3 -11  -2 56.6828 4.33577   9
  -3 -11  -2 61.2755 6.11356  13
  -4 -11  -2 32.0135 2.50575   9
  -4 -11  -2 34.4361 3.92709  13
  -4 -11  -2 34.3332 2.53867  10
  -5 -11  -2 90.3403 7.43696  13
  -5 -11  -2 93.3713 5.40639  10
   2 -12  -2 30.7057 2.96682   8
  -2  12   2 21.9900 2.77920  16
  -2  12   2 24.8219 2.62519   8
  -2  12   2 28.4101 3.02720   9
   1 -12  -2 0.59023 1.21635   8
  -1  12   2 0.69022 1.04211   8
   0 -12  -2 103.522 8.58262   8
  -1 -12  -2 6.56074 1.10698   8
  -1 -12  -2 5.22148 1.33413   9
   1  12   2 4.08523 1.83687   8
  -2 -12  -2 35.4257 2.84977   9
  -2 -12  -2 27.6017 3.30985  13
  -3 -12  -2 48.9121 3.36381   9
  -3 -12  -2 46.7038 4.66997  13
   3  10  -3 13.0215 2.30608   8
  -3 -10   3 21.2845 2.62808  13
  -3 -10   3 19.8369 2.09032   9
  -2 -10   3 47.3864 4.31393  13
  -2 -10   3 39.0639 3.66482   8
   1  10  -3 11.4872 2.15018   8
  -1 -10   3 14.3872 1.97948   8
   0  10  -3 20.3495 2.43211   8
   0 -10   3 22.6085 2.72059   8
  -1  10  -3 43.5167 3.61134   9
  -1  10  -3 34.7051 4.35630  17
  -2  10  -3 0.99012 0.95800   9
  -2  10  -3 1.86748 1.32261  17
  -5  -9   3 43.5918 4.09171  13
  -5  -9   3 43.7662 3.08462   9
  -4  -9   3 27.4722 3.55148  13
  -4  -9   3 30.4289 2.81179   9
   3   9  -3 28.6793 4.78428   8
  -3  -9   3 39.8244 3.68140   8
  -3  -9   3 43.5557 3.69309   9
  -3  -9   3 48.9243 5.15399  13
   2   9  -3 44.4943 5.85555   8
  -2  -9   3 50.3852 4.74159   8
   1   9  -3 5.20589 2.35167   8
  -1  -9   3 5.56305 1.90907   8
   0   9  -3 90.8200 8.50327   8
   0   9  -3 97.9464 7.70223   9
  -1   9  -3 7.01545 1.86318   8
  -1   9  -3 6.07812 1.85119   9
  -2   9  -3 48.1927 4.46118   9
  -2   9  -3 41.3512 5.30018  17
  -3   9  -3 10.8174 2.75860  17
  -3   9  -3 10.3518 1.79110  10
  -3   9  -3 14.1935 1.83833   9
  -4   9  -3 8.72634 1.83199  16
  -6  -8   3 23.9199 2.98496  13
  -6  -8   3 24.1910 2.04028  10
  -6  -8   3 26.5778 1.95361   9
  -5  -8   3 90.8977 6.35449   9
  -5  -8   3 103.436 8.18982  13
  -4  -8   3 6.94595 1.34397   8
  -4  -8   3 7.83522 2.05777   9
  -4  -8   3 10.9000 2.47391  13
  -3  -8   3 112.357 9.50688   8
  -3  -8   3 109.667 8.06411   9
   2   8  -3 9.72492 2.87096   8
  -2  -8   3 11.8192 2.38436   8
   1   8  -3 81.7174 8.94809   8
  -1  -8   3 91.7243 8.28337   8
   0   8  -3 25.1079 4.12359   8
  -1   8  -3 2.49601 1.94374   8
  -1   8  -3 1.94746 2.18035   9
  -2   8  -3 42.4344 4.59726   9
  -2   8  -3 39.6850 4.15845   8
  -2   8  -3 39.6824 3.72042  10
  -3   8  -3 6.29009 1.94355  16
  -3   8  -3 9.73625 1.67201  10
  -3   8  -3 7.77706 3.08858  17
  -3   8  -3 5.97383 1.66916   9
  -4   8  -3 39.2208 3.22545  10
  -4   8  -3 34.6618 3.01195   9
  -4   8  -3 35.7685 4.51592  16
  -4   8  -3 30.3885 4.32883  17
  -5   8  -3 2.86273 1.35935  16
  -5   8  -3 4.24283 0.90570  10
  -6   8  -3 31.0922 1.90577  10
  -6   8  -3 31.5303 3.34801  16
  -7  -7   3 35.7841 2.51592  10
  -7  -7   3 32.8141 3.92979  13
  -6  -7   3 66.3562 4.63156   9
  -6  -7   3 68.0172 4.47842  10
  -6  -7   3 70.1385 6.34986  13
  -5  -7   3 3.21598 1.30320   9
  -5  -7   3 0.63943 0.47113   8
  -5  -7   3 0.13787 2.13112  13
  -5  -7   3 0.90585 1.16247  10
  -4  -7   3 150.398 12.1008   8
  -4  -7   3 144.652 12.0615  13
  -4  -7   3 148.423 9.84802   9
  -3  -7   3 3.15964 1.59660   8
  -2  -7   3 67.2930 6.61660   8
   1   7  -3 84.2360 8.93213   8
   0   7  -3 11.1198 2.20436   7
   0   7  -3 14.5604 3.11146   8
  -1   7  -3 158.907 13.1994   8
  -1   7  -3 162.753 10.6045   9
  -1   7  -3 134.389 10.7994   7
  -2   7  -3 5.12781 2.08019  16
  -2   7  -3 7.54486 2.02960   9
  -2   7  -3 7.31672 2.08860   8
  -2   7  -3 6.41076 1.74148  10
  -3   7  -3 42.6690 3.95840   9
  -3   7  -3 35.7497 5.53640  17
  -3   7  -3 40.4725 3.74218  10
  -3   7  -3 42.5160 4.90591  16
  -4   7  -3 0.96373 2.60235  17
  -4   7  -3 3.64687 1.11405  10
  -4   7  -3 3.48724 1.58490   9
  -4   7  -3 5.31033 2.34342  16
  -5   7  -3 162.673 9.64435  10
  -5   7  -3 169.156 13.6058  16
  -6   7  -3 13.3556 2.61103  16
  -6   7  -3 9.63631 1.14749  10
  -7   7  -3 4.23760 1.43220  16
  -8  -6   3 7.48446 0.86339  10
  -7  -6   3 37.5388 5.05275  14
  -7  -6   3 36.3797 2.94149  10
  -7  -6   3 47.1041 2.84400   9
  -7  -6   3 41.7749 4.50176  13
  -6  -6   3 1.37031 1.92602  14
  -6  -6   3 -0.8878 1.23187   9
  -6  -6   3 -0.9728 1.42695  13
  -6  -6   3 0.64808 0.85927  10
  -5  -6   3 90.9724 5.75861  10
  -5  -6   3 81.5504 6.96422   8
  -5  -6   3 81.9900 6.30897   9
  -5  -6   3 80.9661 8.14863  13
  -4  -6   3 12.3602 3.20433  13
  -4  -6   3 16.8065 2.55846   8
  -4  -6   3 18.6856 2.58146   9
  -3  -6   3 66.3104 5.22668   5
  -3  -6   3 70.5439 6.56059   8
  -2  -6   3 104.049 9.06504   8
  -2  -6   3 101.655 7.25378   5
   1   6  -3 14.5844 3.18072   8
   0   6  -3 139.880 12.6344   8
  -1   6  -3 16.4717 2.32863   2
  -1   6  -3 16.0898 2.67975   7
  -1   6  -3 15.9773 1.40933   3
  -1   6  -3 20.4446 3.10205   9
  -1   6  -3 20.8262 3.35849   8
  -2   6  -3 300.488 20.2795   7
  -2   6  -3 314.062 23.3349  16
  -2   6  -3 291.104 19.3327   2
  -2   6  -3 294.144 18.7993   3
  -2   6  -3 328.540 24.3176   8
  -2   6  -3 300.131 17.3855  10
  -2   6  -3 306.864 18.7915   9
  -3   6  -3 19.1666 4.35593  17
  -3   6  -3 15.9533 2.62178   7
  -3   6  -3 19.4556 3.45078  16
  -3   6  -3 17.9119 2.33370   8
  -3   6  -3 25.2047 3.07631   9
  -3   6  -3 18.3096 2.25721  10
  -3   6  -3 15.4916 2.24505   6
  -4   6  -3 60.5392 4.86066   9
  -4   6  -3 61.4085 7.72612  17
  -4   6  -3 59.1838 6.41974  16
  -4   6  -3 55.9030 4.47071  10
  -5   6  -3 42.5134 5.64238  16
  -5   6  -3 37.7154 3.24311  10
  -5   6  -3 37.0463 2.70099   9
  -6   6  -3 73.6094 7.31793  16
  -6   6  -3 66.1856 6.29567  15
  -6   6  -3 75.7283 4.66348  10
  -7   6  -3 34.5632 4.11565  16
  -7   6  -3 27.6941 3.23650  15
  -8  -5   3 35.6891 4.71692  14
  -8  -5   3 37.5446 2.45394  10
  -8  -5   3 24.8125 3.59134  13
  -7  -5   3 6.81742 3.25145  14
  -7  -5   3 5.09838 2.02212  13
  -7  -5   3 2.53294 0.95494   9
  -7  -5   3 3.14902 1.17822  10
  -6  -5   3 17.1396 3.15286  13
  -6  -5   3 28.8170 5.00082  14
  -6  -5   3 22.8993 2.67032   9
  -6  -5   3 21.7034 2.26409  10
  -5  -5   3 63.7889 6.35338  13
  -5  -5   3 54.0760 4.04568  10
  -5  -5   3 44.9892 4.17089   5
  -5  -5   3 52.9996 4.87606   8
  -5  -5   3 58.3475 4.68539   9
  -4  -5   3 148.851 10.5938   3
  -4  -5   3 176.679 13.3694  13
  -4  -5   3 186.843 13.7492   8
  -4  -5   3 171.154 11.2630   5
  -4  -5   3 159.421 10.9180   2
  -4  -5   3 181.058 10.8780   9
  -3  -5   3 172.378 11.8159   3
  -3  -5   3 209.174 12.4481   5
  -3  -5   3 198.997 15.2628   8
  -3  -5   3 179.691 12.0899   2
  -2  -5   3 65.2050 6.22487   8
   0   5  -3 75.9171 4.82289   3
   0   5  -3 74.2533 5.58748   2
   0   5  -3 65.0296 7.38518   8
  -1   5  -3 169.169 11.8903   7
  -1   5  -3 173.496 11.2688   2
  -1   5  -3 163.727 14.3684   8
  -1   5  -3 181.970 10.7068   3
  -1   5  -3 162.521 11.1209   9
  -1   5  -3 162.842 11.2463   6
  -2   5  -3 35.0136 3.84164   9
  -2   5  -3 34.1251 3.00572  10
  -2   5  -3 37.1677 3.36920   6
  -2   5  -3 40.4440 3.34684   2
  -2   5  -3 36.7208 2.53342   3
  -2   5  -3 37.5334 4.32180   8
  -2   5  -3 36.0893 4.27865  16
  -2   5  -3 33.6570 3.55655   7
  -3   5  -3 18.2022 2.66203   9
  -3   5  -3 18.1659 2.23812   6
  -3   5  -3 19.9711 2.37155  10
  -3   5  -3 21.4852 2.27292   2
  -3   5  -3 18.3216 2.54408   8
  -3   5  -3 19.6518 3.33471  16
  -3   5  -3 19.7430 1.50158   3
  -3   5  -3 19.0598 2.66849   7
  -4   5  -3 154.173 12.0395  16
  -4   5  -3 135.073 13.2154  17
  -4   5  -3 134.154 8.32086  10
  -4   5  -3 131.725 9.53613   6
  -4   5  -3 143.968 8.96831   9
  -4   5  -3 130.833 8.91925   2
  -4   5  -3 126.885 10.6212  15
  -5   5  -3 0.98073 0.77102  10
  -5   5  -3 0.49050 2.26085  16
  -5   5  -3 0.59970 1.89722  17
  -5   5  -3 0.37053 0.82311   9
  -5   5  -3 0.19484 1.77563  15
  -6   5  -3 25.3479 3.84912  15
  -6   5  -3 20.0711 4.11134  16
  -6   5  -3 19.7389 2.08230  10
  -7   5  -3 11.9001 3.02629  16
  -7   5  -3 11.6513 2.51402  15
  -8   5  -3 25.9269 3.63839  16
  -8   5  -3 22.3940 2.96896  15
  -9  -4   3 24.1363 3.74922  14
  -8  -4   3 76.1478 4.80324  10
  -8  -4   3 69.7002 7.03621  13
  -8  -4   3 87.6302 8.89935  14
  -7  -4   3 6.82079 2.55222  13
  -7  -4   3 9.15194 3.79031  14
  -7  -4   3 7.55087 1.34492  10
  -7  -4   3 8.80714 1.51392   9
  -6  -4   3 -0.4391 2.96377  14
  -6  -4   3 0.20094 1.41836  13
  -6  -4   3 0.80868 1.28147   9
  -6  -4   3 0.45544 1.00625  10
  -5  -4   3 15.7698 1.81871  10
  -5  -4   3 13.6291 2.06734   9
  -5  -4   3 10.3016 1.79478   5
  -5  -4   3 11.9177 1.70939   2
  -5  -4   3 10.7091 2.68160  13
  -5  -4   3 11.4679 1.18269   3
  -5  -4   3 14.6990 2.06530   8
  -4  -4   3 184.194 11.4172   5
  -4  -4   3 188.477 13.6157  13
  -4  -4   3 171.496 13.8409   8
  -4  -4   3 167.118 11.1244   2
  -4  -4   3 168.017 10.9709   9
  -4  -4   3 165.735 10.8952   3
  -3  -4   3 2.30030 0.52616   3
  -3  -4   3 2.15179 1.20012   8
  -3  -4   3 2.76206 0.92986   2
  -3  -4   3 3.34087 0.90279   5
  -2  -4   3 1386.42 85.1820   3
  -2  -4   3 1407.57 84.1089   2
   1   4  -3 65.8985 5.47644   2
   1   4  -3 81.1686 4.95748   3
   0   4  -3 335.211 22.2100   2
   0   4  -3 374.481 22.0083   3
  -1   4  -3 362.925 24.9807   7
  -1   4  -3 390.580 24.2150   2
  -1   4  -3 399.776 24.5674   6
  -1   4  -3 403.343 23.9931   3
  -2   4  -3 71.0293 5.40383   6
  -2   4  -3 75.6535 5.26621   2
  -2   4  -3 68.1905 5.59942   7
  -2   4  -3 75.0491 4.70211   3
  -3   4  -3 222.166 24.9038  14
  -3   4  -3 304.319 17.1382   3
  -3   4  -3 280.146 21.3372   8
  -3   4  -3 262.606 19.8789  15
  -3   4  -3 261.421 15.6017  10
  -3   4  -3 270.471 16.7756   9
  -3   4  -3 295.410 18.3486   7
  -3   4  -3 296.180 18.0451   6
  -3   4  -3 284.882 21.4557  16
  -4   4  -3 56.6032 4.11953  10
  -4   4  -3 57.4321 4.89448   7
  -4   4  -3 46.7952 7.51739  14
  -4   4  -3 57.6682 4.28034   2
  -4   4  -3 57.2338 4.55015   9
  -4   4  -3 63.4982 3.84005   3
  -4   4  -3 57.6750 4.91281   6
  -4   4  -3 56.1468 5.56484  15
  -4   4  -3 64.8206 7.18820  17
  -4   4  -3 64.0575 6.68956  16
  -5   4  -3 46.6616 5.35765  15
  -5   4  -3 42.6921 2.97891   2
  -5   4  -3 53.5456 3.53509  10
  -5   4  -3 51.6075 5.79530  16
  -5   4  -3 43.2619 7.03024  14
  -5   4  -3 41.3528 4.05667   6
  -5   4  -3 48.2846 6.30547  17
  -5   4  -3 47.5702 2.89380   3
  -5   4  -3 47.1055 2.98993   9
  -6   4  -3 24.0079 5.18000  14
  -6   4  -3 29.0063 4.59683  16
  -6   4  -3 20.5688 3.71141  15
  -6   4  -3 23.2365 2.16651  10
  -7   4  -3 31.3440 5.90542  14
  -7   4  -3 31.8028 5.00810  16
  -7   4  -3 43.3309 5.08478  15
  -8   4  -3 26.2011 3.32626  15
  -8   4  -3 16.7332 3.33178  16
  -9   4  -3 7.19306 1.60747  15
  -9  -3   3 36.6457 5.19623  14
  -9  -3   3 34.8966 2.30834  10
  -8  -3   3 5.62900 3.01799  14
  -8  -3   3 7.79430 1.31549  10
  -8  -3   3 7.84743 2.47835  13
  -7  -3   3 53.3374 3.91022  10
  -7  -3   3 58.1837 7.67843  14
  -7  -3   3 55.5210 4.04999   9
  -7  -3   3 45.0349 5.34277  13
  -6  -3   3 48.9077 6.79247  14
  -6  -3   3 44.4794 3.66755   9
  -6  -3   3 40.9349 3.13155  10
  -6  -3   3 38.8100 3.49039   5
  -6  -3   3 42.7461 5.04390  13
  -5  -3   3 116.508 8.03039   2
  -5  -3   3 118.388 9.83468  13
  -5  -3   3 115.133 7.78494   3
  -5  -3   3 127.879 8.06975   9
  -5  -3   3 129.782 8.29417   5
  -5  -3   3 124.494 9.91299   8
  -5  -3   3 127.477 7.38738  10
  -4  -3   3 23.5653 1.81281   3
  -4  -3   3 24.9459 3.35336  13
  -4  -3   3 25.0447 2.79851   8
  -4  -3   3 22.7019 2.19840   2
  -4  -3   3 24.7599 2.20888   5
  -4  -3   3 25.6311 2.76025   9
  -3  -3   3 287.957 18.7281   2
  -3  -3   3 320.096 18.9885   5
  -3  -3   3 303.826 18.7734   3
  -2  -3   3 554.427 32.8877   5
  -2  -3   3 522.955 32.8509   3
  -2  -3   3 532.039 32.5725   2
   1   3  -3 139.896 9.14264   2
   1   3  -3 131.303 8.46875   1
   1   3  -3 143.127 8.69707   3
  -1  -3   3 141.793 8.77668   3
  -1  -3   3 132.841 8.42053   1
  -1  -3   3 152.094 8.91321   2
   0   3  -3 1018.20 57.3558   3
   0   3  -3 1009.73 56.9461   2
   0   3  -3 869.002 55.2929   1
   0  -3   3 873.471 55.2480   1
  -1   3  -3 2.61812 0.87411   2
  -1   3  -3 2.18893 0.91338   6
  -1   3  -3 3.98837 0.47238   3
  -1   3  -3 2.48467 1.15044   7
  -2   3  -3 576.556 37.7069   7
  -2   3  -3 616.705 36.7670   3
  -2   3  -3 621.655 36.6292   2
  -2   3  -3 588.986 37.3801   6
  -3   3  -3 43.3283 3.28902   2
  -3   3  -3 43.8640 3.64610   6
  -3   3  -3 46.1991 3.81345   7
  -3   3  -3 45.9599 2.93449   3
  -4   3  -3 66.5861 5.25144   6
  -4   3  -3 61.9911 6.97254  17
  -4   3  -3 62.5225 6.23516  15
  -4   3  -3 65.4347 4.40697  10
  -4   3  -3 53.6404 7.91685  14
  -4   3  -3 69.8662 5.23374   7
  -4   3  -3 70.8660 4.61324   2
  -4   3  -3 68.5736 6.65991  16
  -4   3  -3 74.2559 4.33710   3
  -4   3  -3 69.1792 4.67827   9
  -5   3  -3 95.4647 7.16247   6
  -5   3  -3 90.1179 5.80430  10
  -5   3  -3 101.377 9.51858  17
  -5   3  -3 105.894 9.25491  16
  -5   3  -3 98.9615 8.43958  15
  -5   3  -3 81.0327 10.4588  14
  -6   3  -3 45.3967 5.91426  16
  -6   3  -3 40.3245 6.84137  14
  -6   3  -3 39.1031 2.87116  10
  -6   3  -3 40.1732 5.28607  15
  -7   3  -3 25.1915 4.16117  16
  -7   3  -3 21.5246 3.75780  15
  -7   3  -3 17.1721 4.66686  14
  -8   3  -3 2.34017 1.71636  15
  -8   3  -3 0.69189 1.52974  16
  -8   3  -3 1.39066 2.91002  14
  -9   3  -3 43.8261 5.56684  14
  -9   3  -3 48.5288 4.59636  15
  -9  -2   3 3.23154 0.75474  10
  -9  -2   3 2.36570 2.28147  14
  -8  -2   3 117.700 12.3948  14
  -8  -2   3 114.874 6.47154  10
  -8  -2   3 85.3111 8.59787  13
  -7  -2   3 13.3310 1.73377   9
  -7  -2   3 14.0716 1.78701  10
  -7  -2   3 14.5016 2.78745  13
  -7  -2   3 12.8958 4.48926  14
  -6  -2   3 297.633 17.0308   9
  -6  -2   3 249.923 17.5763   3
  -6  -2   3 302.098 21.0941  13
  -6  -2   3 256.143 18.0002   5
  -6  -2   3 294.762 21.4889   8
  -6  -2   3 295.619 15.9369  10
  -6  -2   3 328.855 26.7465  14
  -5  -2   3 125.142 9.96776  13
  -5  -2   3 119.670 7.85103   3
  -5  -2   3 123.534 9.92231   8
  -5  -2   3 126.326 8.28402   5
  -5  -2   3 122.131 7.35919  10
  -5  -2   3 127.229 8.01432   9
  -5  -2   3 125.276 8.07633   2
  -4  -2   3 50.5108 3.32083   3
  -4  -2   3 50.3400 3.67262   5
  -4  -2   3 47.0721 3.51869   2
  -3  -2   3 50.8260 3.58728   5
  -3  -2   3 49.0075 3.31970   3
  -3  -2   3 51.5780 3.57375   2
   2   2  -3 142.682 9.49974   2
   2   2  -3 141.594 9.13027   3
   2   2  -3 139.650 8.84353   1
  -2  -2   3 168.106 9.33349   2
  -2  -2   3 149.766 9.33190   5
  -2  -2   3 145.845 8.85068   1
  -2  -2   3 148.639 9.19595   3
   1   2  -3 420.524 24.6738   1
   1   2  -3 396.059 24.7078   1
   1   2  -3 445.938 25.5825   3
   1   2  -3 412.655 25.5965   2
  -1  -2   3 411.810 24.6785   1
  -1  -2   3 416.925 24.6897   1
  -1  -2   3 413.527 25.4037   2
  -1  -2   3 427.469 25.6420   3
   0   2  -3 193.193 11.3899   3
   0   2  -3 186.735 10.9988   1
   0   2  -3 189.695 11.6262   2
   0   2  -3 180.215 11.0406   1
   0  -2   3 186.663 11.0164   1
   0  -2   3 170.580 11.4180   2
   0  -2   3 194.300 11.0272   1
   0  -2   3 177.018 11.4448   3
  -1   2  -3 987.624 56.3992   2
  -1   2  -3 891.143 54.9140   1
  -1   2  -3 917.850 57.3996   6
  -1   2  -3 991.415 56.9650   3
  -1   2  -3 908.568 57.8173   7
   1  -2   3 918.566 54.8867   1
   1  -2   3 932.077 54.8976   1
  -2   2  -3 141.373 9.09333   7
  -2   2  -3 125.441 8.95242   6
  -2   2  -3 137.646 8.41004   3
  -2   2  -3 138.840 8.60665   2
  -3   2  -3 223.515 14.2167   7
  -3   2  -3 228.094 13.5358   2
  -3   2  -3 221.997 13.4802   3
  -3   2  -3 201.906 14.1176   6
  -4   2  -3 407.110 27.8173   6
  -4   2  -3 459.741 26.6764   2
  -4   2  -3 424.109 27.7933   7
  -4   2  -3 464.484 26.9584   3
  -5   2  -3 7.85784 2.45356  15
  -5   2  -3 8.07368 2.21442  17
  -5   2  -3 8.63430 2.74786  14
  -5   2  -3 4.38707 1.57403   6
  -5   2  -3 8.16925 2.18550  13
  -5   2  -3 8.75762 1.13774  10
  -5   2  -3 7.96150 2.48211  16
  -6   2  -3 178.283 18.0795  14
  -6   2  -3 189.340 10.3394  10
  -6   2  -3 171.418 12.7837   6
  -6   2  -3 172.881 14.9793  13
  -6   2  -3 223.564 15.8319  16
  -6   2  -3 197.093 14.7708  15
  -7   2  -3 0.15244 1.63297  15
  -7   2  -3 3.48380 3.26348  14
  -7   2  -3 1.79571 1.73648  16
  -7   2  -3 2.25650 1.92080  13
  -8   2  -3 56.7064 5.89999  15
  -8   2  -3 46.5310 7.68807  14
  -8   2  -3 56.9988 5.94700  16
  -9   2  -3 4.24393 2.49770  15
  -9   2  -3 3.16896 2.24854  14
  -9  -1   3 83.5469 5.06478  10
  -9  -1   3 95.2175 9.74904  14
  -8  -1   3 15.5821 1.66499  10
  -8  -1   3 14.0439 2.95806  13
  -8  -1   3 18.5568 4.71781  14
  -7  -1   3 210.874 18.6270  14
  -7  -1   3 179.351 14.3797  13
  -7  -1   3 175.413 10.6000  10
  -7  -1   3 182.531 11.2184   9
  -6  -1   3 113.040 9.22988  13
  -6  -1   3 116.427 8.46840   8
  -6  -1   3 113.817 7.12765   9
  -6  -1   3 105.699 7.52753   5
  -6  -1   3 96.0320 7.10199   2
  -6  -1   3 113.992 6.68687  10
  -6  -1   3 102.522 6.94725   3
  -6  -1   3 122.773 11.6867  14
  -5  -1   3 2.01521 0.76989   8
  -5  -1   3 2.14254 0.40324   3
  -5  -1   3 1.83647 0.68696  10
  -5  -1   3 2.28459 0.92811   5
  -5  -1   3 1.64351 0.99867   9
  -5  -1   3 2.24396 0.75434   2
  -4  -1   3 262.840 15.7322   5
  -4  -1   3 238.186 15.5155   3
  -4  -1   3 255.901 15.5482   2
  -3  -1   3 8.43278 1.04171   5
  -3  -1   3 5.64251 0.59771   1
  -3  -1   3 7.25581 0.70290   3
  -3  -1   3 7.48706 0.93660   2
   2   1  -3 545.116 34.6916   2
   2   1  -3 575.837 34.8594   3
   2   1  -3 569.092 33.6656   1
   2   1  -3 598.295 33.6353   1
   2   1  -3 522.270 35.3336   7
  -2  -1   3 583.460 34.9086   3
  -2  -1   3 551.418 33.6206   1
  -2  -1   3 600.776 34.5540   2
  -2  -1   3 577.690 34.7646   5
  -2  -1   3 584.857 33.6439   1
   1   1  -3 90.5485 6.81727   7
   1   1  -3 103.004 6.24937   1
   1   1  -3 102.956 6.29013   1
   1   1  -3 108.211 6.45460   3
   1   1  -3 106.725 6.75345   2
  -1  -1   3 102.083 6.26659   1
  -1  -1   3 105.126 6.58546   2
  -1  -1   3 107.240 6.26694   1
  -1  -1   3 106.360 6.50438   3
   0   1  -3 512.894 30.7314   1
   0   1  -3 503.991 32.4424   7
   0   1  -3 554.399 31.6827   2
   0   1  -3 528.027 31.8751   3
   0   1  -3 552.463 30.7748   1
   0  -1   3 493.898 31.5338   2
   0  -1   3 472.666 31.9130   3
   0  -1   3 529.779 30.7564   1
   0  -1   3 560.221 30.7564   1
  -1   1  -3 326.584 20.3848   6
  -1   1  -3 327.646 19.2519   1
  -1   1  -3 344.388 19.9196   2
  -1   1  -3 270.159 19.7494   2
  -1   1  -3 355.882 20.5741   7
  -1   1  -3 324.941 19.2831   1
  -1   1  -3 308.025 19.9950   3
  -1   1  -3 337.228 19.9670   3
   1  -1   3 343.706 19.2736   1
   1  -1   3 340.539 19.2753   1
  -2   1  -3 770.457 45.2466   3
  -2   1  -3 733.125 45.9746   7
  -2   1  -3 745.801 43.6102   1
  -2   1  -3 834.225 44.7344   2
  -2   1  -3 727.553 45.7388   6
  -2   1  -3 702.176 43.5796   1
  -2   1  -3 668.686 44.6064   2
  -2   1  -3 746.853 45.2560   3
   2  -1   3 725.217 43.5909   1
   2  -1   3 780.907 43.6051   1
  -3   1  -3 676.547 42.7648   6
  -3   1  -3 759.115 42.1240   3
  -3   1  -3 728.876 42.1223   3
  -3   1  -3 756.499 41.5776   2
  -3   1  -3 620.344 41.5236   2
  -3   1  -3 732.845 42.9454   7
  -3   1  -3 653.276 40.5773   1
   3  -1   3 616.946 40.5722   1
  -4   1  -3 2.15573 0.64752   7
  -4   1  -3 2.17933 1.05287   6
  -5   1  -3 526.742 29.4228  10
  -5   1  -3 527.338 47.6875  14
  -5   1  -3 543.873 34.5329   6
  -5   1  -3 613.885 40.5021  16
  -5   1  -3 551.338 39.0629  13
  -5   1  -3 553.954 38.0147  15
  -6   1  -3 59.8212 5.21025  12
  -6   1  -3 64.8481 6.37445  16
  -6   1  -3 54.6300 6.37821  13
  -6   1  -3 57.8064 6.31467  15
  -6   1  -3 56.6349 7.29112  14
  -6   1  -3 54.6250 4.88334   6
  -7   1  -3 22.7993 3.78360  16
  -7   1  -3 26.2975 4.22655  13
  -7   1  -3 24.9378 4.22717  15
  -7   1  -3 21.1532 5.04354  14
  -8   1  -3 50.7992 6.37594  13
  -8   1  -3 53.2505 8.12004  14
  -8   1  -3 60.2853 6.36949  16
  -8   1  -3 51.1760 5.89804  15
  -9   1  -3 9.99383 3.16466  14
  -9   1  -3 20.7775 3.32164  15
 -10   0   3 7.13000 2.14249  14
  -9   0   3 24.5380 1.92483  10
  -9   0   3 35.4064 5.13786  14
  -8   0   3 39.6956 3.02998  10
  -8   0   3 44.4634 6.26939  14
  -8   0   3 33.4030 4.82340  13
  -7   0   3 153.901 9.11082   9
  -7   0   3 165.811 15.2117  14
  -7   0   3 114.794 9.68793   5
  -7   0   3 148.407 8.65313  10
  -7   0   3 148.125 11.9462  13
  -7   0   3 167.202 11.8285  15
  -6   0   3 28.3669 3.78707  13
  -6   0   3 24.8439 1.90436   3
  -6   0   3 24.3893 2.40227   5
  -6   0   3 26.7492 2.39294  10
  -6   0   3 26.1857 2.29458   8
  -6   0   3 29.2359 3.83608  15
  -6   0   3 29.2679 2.56506   9
  -6   0   3 31.5552 5.11871  14
  -6   0   3 23.6373 2.17131   2
  -6   0   3 30.6912 3.55146  12
  -5   0   3 86.4230 7.32056   8
  -5   0   3 87.5905 5.95240   2
  -5   0   3 90.7950 5.75476  10
  -5   0   3 92.4933 5.79019   3
  -5   0   3 94.9014 6.23486   5
  -5   0   3 95.3514 6.39711   6
  -5   0   3 84.3042 5.92305   9
  -5   0   3 92.3003 9.25611  14
  -4   0   3 73.6628 4.92234   2
  -4   0   3 76.3891 5.03531   5
  -4   0   3 72.1016 4.73412   3
   3   0  -3 164.117 10.3051   1
  -3   0   3 178.577 10.7511   2
  -3   0   3 182.175 10.6910   3
  -3   0   3 182.156 10.8159   5
  -3   0   3 158.728 10.2864   1
   2   0  -3 245.028 15.0645   3
   2   0  -3 244.537 14.5968   1
   2   0  -3 236.464 15.1952   2
   2   0  -3 229.254 15.3055   7
   2   0  -3 258.495 14.5722   1
  -2   0   3 253.437 14.5821   1
  -2   0   3 251.087 15.0655   2
  -2   0   3 233.198 14.5558   1
  -2   0   3 256.688 15.1093   5
  -2   0   3 250.130 15.1077   3
   1   0  -3 80.0051 5.15422   2
   1   0  -3 80.5465 4.77807   1
   1   0  -3 77.9034 4.91394   3
   1   0  -3 82.3261 4.80750   1
   1   0  -3 76.4440 5.18244   7
  -1   0   3 76.1585 4.95331   3
  -1   0   3 74.1149 4.95552   5
  -1   0   3 83.4553 4.78765   1
  -1   0   3 79.5217 5.04290   2
  -1   0   3 81.2966 4.79908   1
   0   0  -3 31.9668 2.45354   7
   0   0  -3 34.4036 2.07893   1
   0   0  -3 35.0487 2.12449   3
   0   0  -3 32.4894 2.09797   1
   0   0  -3 34.7681 2.41842   2
   0   0   3 30.0084 2.27678   2
   0   0   3 33.8642 2.09961   1
   0   0   3 30.6998 2.15768   3
   0   0   3 33.2866 2.08612   1
  -1   0  -3 822.135 52.4863   3
  -1   0  -3 853.743 52.9515   7
  -1   0  -3 786.984 51.5236   2
  -1   0  -3 901.058 52.6632   6
  -1   0  -3 855.575 50.3839   1
  -1   0  -3 871.427 50.4053   1
  -1   0  -3 895.758 51.6205   2
  -1   0  -3 814.557 52.3028   3
   1   0   3 889.552 50.4036   1
   1   0   3 910.931 50.4035   1
  -2   0  -3 674.059 63.7065   4
  -2   0  -3 801.909 46.4444   7
  -2   0  -3 732.637 45.0323   2
  -2   0  -3 791.206 46.1922   6
  -2   0  -3 703.969 44.0333   1
  -2   0  -3 786.903 45.0831   2
  -2   0  -3 769.611 45.8135   3
  -2   0  -3 748.958 45.7155   3
  -2   0  -3 741.045 44.0501   1
   2   0   3 732.532 44.0418   1
   2   0   3 797.494 44.0521   1
  -3   0  -3 6.98369 0.95389   5
  -3   0  -3 6.61361 1.07669   7
  -3   0  -3 7.44550 0.98647   4
  -3   0  -3 7.22475 1.24769   6
  -4   0  -3 478.620 28.6889   5
  -4   0  -3 452.229 29.1023   6
  -4   0  -3 467.722 29.1139   7
  -5   0  -3 279.737 26.5991  14
  -5   0  -3 315.713 22.3872  13
  -5   0  -3 296.337 19.0210   6
  -5   0  -3 303.830 21.3701  15
  -5   0  -3 294.065 18.6323   5
  -6   0  -3 32.0063 5.71296  14
  -6   0  -3 35.3516 4.75812  15
  -6   0  -3 36.4729 4.58579  16
  -6   0  -3 31.8908 3.19567   6
  -6   0  -3 37.3247 4.44044  13
  -6   0  -3 42.6671 4.26198  12
  -7   0  -3 17.0798 2.99547  12
  -7   0  -3 13.0828 3.06647  13
  -7   0  -3 14.8040 3.21631  16
  -7   0  -3 15.2481 3.40944  15
  -7   0  -3 15.2510 4.12368  14
  -8   0  -3 2.87193 3.61117  14
  -8   0  -3 6.22381 2.35841  13
  -8   0  -3 3.26262 2.79076  15
  -9   0  -3 27.1155 4.19638  13
  -9   0  -3 28.5161 5.36794  14
  -9   0  -3 32.3258 3.96941  15
 -10   0  -3 -0.6481 1.54129  14
  -9   1   3 1.81474 0.73109  10
  -9   1   3 4.45153 1.56588  15
  -9   1   3 5.38665 2.60490  14
  -8   1   3 123.165 10.0904  15
  -8   1   3 128.399 12.4950  14
  -8   1   3 111.558 7.02959  10
  -7   1   3 0.59955 0.96432   5
  -7   1   3 2.02372 0.93881  10
  -7   1   3 1.17702 0.99001   9
  -7   1   3 1.96693 2.01322  15
  -7   1   3 2.81770 2.11658  13
  -7   1   3 3.04119 2.72726  14
  -6   1   3 98.7709 8.37258  15
  -6   1   3 91.2476 6.01656   3
  -6   1   3 102.645 10.2004  14
  -6   1   3 96.7597 6.94612   6
  -6   1   3 89.8252 6.19108   2
  -6   1   3 99.8058 6.26277   9
  -6   1   3 90.3544 6.58953   5
  -6   1   3 95.1925 5.81541  10
  -5   1   3 274.480 16.8388   2
  -5   1   3 250.820 20.8863   8
  -5   1   3 250.621 24.0382  14
  -5   1   3 298.783 17.5518   6
  -5   1   3 291.502 16.8626   3
  -5   1   3 280.482 17.2183   5
  -5   1   3 259.967 16.1352   9
  -4   1   3 288.625 17.7149   5
  -4   1   3 289.500 17.4939   2
  -4   1   3 277.654 17.5221   3
   3  -1  -3 138.675 8.36873   1
   3  -1  -3 133.795 8.32896   1
  -3   1   3 142.945 8.62864   3
  -3   1   3 124.678 8.29883   1
  -3   1   3 154.666 8.80733   5
  -3   1   3 141.642 8.71572   2
   2  -1  -3 32.4752 2.04606   1
   2  -1  -3 30.2256 2.16581   7
   2  -1  -3 31.0856 2.47951   2
   2  -1  -3 33.2189 2.08424   1
   2  -1  -3 30.7850 2.05681   3
  -2   1   3 31.6533 2.29968   2
  -2   1   3 31.1013 2.03619   1
  -2   1   3 33.0676 2.09861   3
  -2   1   3 30.1379 2.04919   1
  -2   1   3 33.0394 2.22079   5
   1  -1  -3 376.277 22.8489   3
   1  -1  -3 358.581 23.1449   7
   1  -1  -3 401.108 22.0806   1
   1  -1  -3 378.603 22.0486   1
   1  -1  -3 368.799 22.7436   2
  -1   1   3 374.046 22.0657   1
  -1   1   3 360.859 22.8759   3
  -1   1   3 385.493 22.0564   1
  -1   1   3 364.782 22.7025   5
  -1   1   3 376.404 22.6666   2
   0  -1  -3 0.69002 0.24683   1
   0  -1  -3 0.70898 0.44683   7
   0  -1  -3 0.45621 0.18018   1
   0  -1  -3 0.85550 0.52600   2
   0  -1  -3 0.81068 0.18548   3
   0   1   3 0.42435 0.18976   1
   0   1   3 0.43740 0.19328   3
   0   1   3 0.06819 0.30640   2
   0   1   3 0.40771 0.20077   1
  -1  -1  -3 323.286 20.0407   2
  -1  -1  -3 340.282 20.7424   7
  -1  -1  -3 322.803 20.0953   2
  -1  -1  -3 334.502 19.5596   1
  -1  -1  -3 333.958 19.5727   1
  -1  -1  -3 314.049 20.2968   3
  -1  -1  -3 332.185 20.2826   3
   1   1   3 334.868 19.5676   1
   1   1   3 361.688 19.5831   1
  -2  -1  -3 3.99336 0.85113   7
  -2  -1  -3 4.45205 0.30456   1
  -2  -1  -3 3.87282 0.36038   2
  -2  -1  -3 4.20957 0.29616   1
  -2  -1  -3 3.69924 0.39869   2
  -2  -1  -3 4.90784 0.88694   6
  -2  -1  -3 4.91135 0.86906   4
  -2  -1  -3 4.47724 0.30932   3
  -2  -1  -3 4.86093 0.30217   3
   2   1   3 4.32908 0.29769   1
   2   1   3 4.25588 0.30240   1
  -3  -1  -3 579.564 34.7495   5
  -3  -1  -3 557.497 35.3857   7
  -3  -1  -3 568.906 48.6080   4
  -3  -1  -3 577.901 35.2093   6
  -4  -1  -3 335.166 22.7163   7
  -4  -1  -3 352.413 22.6872   6
  -4  -1  -3 380.992 31.1691   4
  -4  -1  -3 381.375 22.3995   5
  -5  -1  -3 227.103 19.3461   4
  -5  -1  -3 223.637 14.3020   6
  -5  -1  -3 213.122 14.0195   5
  -6  -1  -3 164.968 10.4994  11
  -6  -1  -3 151.080 10.4625   5
  -6  -1  -3 156.366 15.4660  14
  -6  -1  -3 145.697 12.7588  16
  -6  -1  -3 170.243 12.7173  13
  -6  -1  -3 162.551 12.4501  15
  -6  -1  -3 168.908 11.3605  12
  -7  -1  -3 243.670 15.1053  11
  -7  -1  -3 216.728 22.0446  14
  -7  -1  -3 230.429 17.6654  15
  -7  -1  -3 245.419 18.3706  13
  -7  -1  -3 237.414 16.4118  12
  -8  -1  -3 159.507 12.5091  15
  -8  -1  -3 158.501 11.5450  12
  -8  -1  -3 147.870 16.0685  14
  -8  -1  -3 148.863 12.6340  13
  -9  -1  -3 9.49826 3.07789  13
  -9  -1  -3 13.5052 2.83861  15
  -9  -1  -3 7.00834 3.12344  14
 -10  -1  -3 4.28491 2.03285  14
  -9   2   3 113.315 9.43406  15
  -9   2   3 122.552 12.1271  14
  -9   2   3 120.364 6.82250  10
  -8   2   3 10.3172 3.07879  14
  -8   2   3 8.98141 1.41259  10
  -8   2   3 11.2764 2.66378  15
  -7   2   3 61.3013 3.99740  10
  -7   2   3 44.8920 4.28957   5
  -7   2   3 63.5851 7.54913  14
  -7   2   3 47.5371 4.60409   6
  -7   2   3 61.7065 6.45371  15
  -7   2   3 62.4131 4.17184   9
  -6   2   3 39.1127 2.93078  10
  -6   2   3 34.8684 3.27292   6
  -6   2   3 32.8569 2.95967   9
  -6   2   3 35.1435 3.16907   5
  -6   2   3 40.3304 5.44823  14
  -6   2   3 37.5768 4.76379  15
  -6   2   3 34.8235 2.72424   2
  -6   2   3 34.2655 2.44739   3
  -5   2   3 241.006 19.3326   8
  -5   2   3 262.221 15.5876   2
  -5   2   3 264.224 16.2104   6
  -5   2   3 270.876 15.5574   3
  -5   2   3 240.262 14.9383   9
  -5   2   3 226.049 14.1884  10
  -5   2   3 244.668 15.9376   5
  -4   2   3 524.861 32.9548   3
  -4   2   3 538.111 33.0655   5
  -4   2   3 555.382 32.6888   2
   3  -2  -3 0.09554 0.16965   1
  -3   2   3 0.13615 0.43011   2
  -3   2   3 -0.0759 0.14278   3
  -3   2   3 0.31451 0.49955   5
  -3   2   3 0.24556 0.19839   1
   2  -2  -3 680.271 39.6523   1
   2  -2  -3 682.162 41.1111   3
   2  -2  -3 608.776 40.7268   2
   2  -2  -3 696.946 39.6715   1
  -2   2   3 647.358 39.6289   1
  -2   2   3 645.526 39.6586   1
  -2   2   3 707.913 41.1439   3
  -2   2   3 696.964 40.6623   2
  -2   2   3 701.165 40.9537   5
   1  -2  -3 56.8453 3.74195   7
   1  -2  -3 57.2489 3.44932   1
   1  -2  -3 51.3635 3.75237   2
   1  -2  -3 58.7840 3.43342   1
   1  -2  -3 58.4454 3.52047   3
  -1   2   3 55.7348 3.42443   1
  -1   2   3 54.5159 3.64654   2
  -1   2   3 55.4213 3.44484   1
  -1   2   3 49.3684 3.54233   5
  -1   2   3 54.9529 3.54119   3
   0  -2  -3 416.955 25.9049   7
   0  -2  -3 439.799 24.6044   1
   0  -2  -3 439.119 24.6141   1
   0  -2  -3 405.931 25.2835   2
   0  -2  -3 424.703 25.5054   3
   0   2   3 385.340 25.2293   2
   0   2   3 383.619 25.5223   3
   0   2   3 441.102 24.6246   1
   0   2   3 428.627 24.6010   1
  -1  -2  -3 398.276 21.4311   1
  -1  -2  -3 351.205 21.9508   2
  -1  -2  -3 352.868 22.0431   5
  -1  -2  -3 375.609 21.9993   2
  -1  -2  -3 357.234 22.6641   7
  -1  -2  -3 381.304 22.2143   3
  -1  -2  -3 313.518 31.1605   4
  -1  -2  -3 343.682 22.2259   3
  -1  -2  -3 366.348 21.4196   1
   1   2   3 374.603 21.4401   1
   1   2   3 391.104 21.4243   1
  -2  -2  -3 697.947 40.1333   2
  -2  -2  -3 665.452 39.2852   1
  -2  -2  -3 666.928 40.1197   2
  -2  -2  -3 676.338 40.8462   3
  -2  -2  -3 649.099 39.2485   1
  -2  -2  -3 634.819 57.0178   4
  -2  -2  -3 690.381 41.4065   7
  -2  -2  -3 696.110 40.5700   5
  -2  -2  -3 643.724 40.7876   3
   2   2   3 668.180 39.2941   1
   2   2   3 685.113 39.2626   1
  -3  -2  -3 4.44071 0.65732   5
  -3  -2  -3 4.36353 0.80676   6
  -3  -2  -3 4.62461 0.90216   4
  -3  -2  -3 2.77822 0.81725   7
  -4  -2  -3 1.00406 0.58436   5
  -4  -2  -3 1.03350 0.72143   4
  -4  -2  -3 1.93824 0.73974   7
  -4  -2  -3 1.15818 0.62813   6
  -5  -2  -3 301.403 25.4709   4
  -5  -2  -3 283.595 18.2677   5
  -6  -2  -3 4.64746 1.95654  15
  -6  -2  -3 4.84816 2.28018  13
  -6  -2  -3 4.69896 1.77733  12
  -6  -2  -3 5.18243 1.44213  18
  -6  -2  -3 3.81771 1.09196   5
  -6  -2  -3 5.34127 1.46505  11
  -6  -2  -3 5.45726 2.90272  14
  -7  -2  -3 797.913 45.5099  11
  -7  -2  -3 732.101 50.9106  15
  -7  -2  -3 715.973 47.0428  18
  -7  -2  -3 641.613 45.8686   5
  -7  -2  -3 730.798 64.5510  14
  -7  -2  -3 808.358 52.8382  13
  -7  -2  -3 825.917 48.0178  12
  -8  -2  -3 87.2054 7.19005  12
  -8  -2  -3 92.2782 6.55484  11
  -8  -2  -3 79.2701 7.98330  13
  -8  -2  -3 80.6460 10.1219  14
  -9  -2  -3 17.1452 4.09095  14
  -9  -2  -3 22.5924 3.36912  12
  -9  -2  -3 25.5566 3.94231  13
 -10  -2  -3 15.5439 2.61153  13
 -10  -2  -3 14.4058 3.12689  14
  -9   3   3 12.9748 1.35959  10
  -9   3   3 14.0028 3.05397  14
  -9   3   3 14.7046 2.71505  15
  -8   3   3 89.2949 5.63884  10
  -8   3   3 95.6413 8.59032  15
  -8   3   3 88.1017 9.70914  14
  -7   3   3 60.6020 7.65494  14
  -7   3   3 62.4549 4.44371   9
  -7   3   3 54.7041 4.11573  10
  -7   3   3 63.5896 6.27957  15
  -6   3   3 6.33330 0.97157   8
  -6   3   3 5.08284 2.25069  15
  -6   3   3 4.06859 0.59301   3
  -6   3   3 5.55633 1.32934   9
  -6   3   3 3.65237 0.85715   2
  -6   3   3 4.16284 2.50911  14
  -6   3   3 5.30902 1.19094  10
  -6   3   3 4.77680 1.32675   6
  -5   3   3 760.533 42.2169   9
  -5   3   3 739.937 44.8167   3
  -5   3   3 774.051 45.5306   6
  -5   3   3 785.682 44.4403   2
  -5   3   3 724.271 62.3013  14
  -5   3   3 690.002 55.3442   8
  -5   3   3 709.539 45.0162   5
  -5   3   3 684.783 39.5259  10
  -4   3   3 -0.1118 0.63101   6
  -4   3   3 0.47120 0.63158   5
  -4   3   3 0.55530 0.23099   3
  -4   3   3 0.18995 0.49342   2
  -3   3   3 290.463 17.4388   5
  -3   3   3 305.838 17.2598   2
  -3   3   3 292.628 17.2651   3
  -3   3   3 240.595 16.6005   1
   2  -3  -3 205.611 13.4483   2
   2  -3  -3 232.096 12.9176   1
   2  -3  -3 217.764 12.9048   1
   2  -3  -3 222.714 13.3423   3
  -2   3   3 217.474 13.3602   3
  -2   3   3 203.545 12.8632   1
  -2   3   3 240.979 13.3964   2
  -2   3   3 199.134 12.8998   1
   1  -3  -3 115.373 7.05643   3
   1  -3  -3 110.458 7.22708   2
   1  -3  -3 122.237 6.85349   1
   1  -3  -3 113.722 6.84018   1
  -1   3   3 119.230 7.17515   2
  -1   3   3 115.974 6.82544   1
  -1   3   3 107.802 6.84928   1
  -1   3   3 108.498 7.07072   3
   0  -3  -3 985.533 58.3930   2
   0  -3  -3 1052.52 57.0148   1
   0  -3  -3 1011.96 59.1489   3
   0  -3  -3 959.896 57.0053   1
   0  -3  -3 1031.97 59.8094   7
   0   3   3 997.580 56.9998   1
   0   3   3 908.260 57.0141   1
   0   3   3 942.273 58.3552   2
   0   3   3 864.416 59.1541   3
  -1  -3  -3 11.3119 0.92071   5
  -1  -3  -3 13.5527 0.84555   1
  -1  -3  -3 12.1656 1.58787   4
  -1  -3  -3 13.3737 0.85413   3
  -1  -3  -3 12.0859 0.84183   1
  -1  -3  -3 14.4965 1.09344   2
  -1  -3  -3 13.3726 1.44589   7
  -1  -3  -3 10.3914 1.02575   2
  -1  -3  -3 11.4205 0.85626   3
   1   3   3 12.5938 0.83508   1
   1   3   3 11.9649 0.86577   1
  -2  -3  -3 323.842 18.1733   2
  -2  -3  -3 316.172 18.3487   3
  -2  -3  -3 293.376 17.6912   1
  -2  -3  -3 308.257 25.9695   4
  -2  -3  -3 301.442 18.3522   5
  -2  -3  -3 297.874 17.6878   1
  -2  -3  -3 306.366 18.9144   7
  -2  -3  -3 277.707 18.3561   3
  -2  -3  -3 298.988 18.1561   2
   2   3   3 293.375 17.7073   1
   2   3   3 294.311 17.6926   1
  -3  -3  -3 245.569 14.0954   5
  -3  -3  -3 201.924 13.3753   1
  -3  -3  -3 226.102 13.6916   2
  -3  -3  -3 239.274 13.8809   3
  -3  -3  -3 208.898 13.3759   1
  -3  -3  -3 220.705 13.8781   3
  -3  -3  -3 251.827 14.5862   7
  -3  -3  -3 249.588 19.9376   4
  -3  -3  -3 248.023 13.6977   2
   3   3   3 207.256 13.3829   1
  -4  -3  -3 196.616 16.9490   4
  -4  -3  -3 187.802 12.0354   5
  -5  -3  -3 15.7542 2.28177  18
  -5  -3  -3 16.0776 2.12135  11
  -5  -3  -3 13.0838 1.56048   5
  -5  -3  -3 15.8030 2.32414  12
  -5  -3  -3 16.4135 2.94324  13
  -5  -3  -3 15.8388 2.30941   4
  -6  -3  -3 308.085 21.7729  13
  -6  -3  -3 306.744 25.8874   4
  -6  -3  -3 307.887 18.6745  11
  -6  -3  -3 273.323 18.5067   5
  -6  -3  -3 237.918 24.3025  17
  -6  -3  -3 316.090 19.9132  12
  -6  -3  -3 311.003 19.4182  18
  -6  -3  -3 297.710 26.6306  14
  -7  -3  -3 6.09454 1.68651  18
  -7  -3  -3 2.78890 3.02267  14
  -7  -3  -3 6.37335 2.80184  13
  -7  -3  -3 5.19350 1.21665   5
  -7  -3  -3 4.60263 1.78953  11
  -7  -3  -3 5.61552 1.80644  12
  -8  -3  -3 8.58296 4.14346  14
  -8  -3  -3 11.4594 2.82267  12
  -8  -3  -3 5.31886 2.87722  13
  -8  -3  -3 8.26381 1.76291  11
  -9  -3  -3 153.978 10.6011  12
  -9  -3  -3 143.730 11.5791  13
  -9  -3  -3 122.144 13.8146  14
 -10  -3  -3 1.85628 1.74547  13
  -9   4   3 6.84294 1.85857  15
  -9   4   3 5.46558 0.76913  10
  -8   4   3 161.236 12.3010  15
  -8   4   3 144.671 8.72670  10
  -8   4   3 153.444 14.7871  14
  -7   4   3 15.2281 1.84825  10
  -7   4   3 12.6555 3.59855  14
  -7   4   3 15.0598 2.91991  15
  -7   4   3 15.8717 2.02359   9
  -6   4   3 163.302 11.2997   6
  -6   4   3 170.570 12.7249   8
  -6   4   3 169.966 15.9531  14
  -6   4   3 172.113 10.5427   9
  -6   4   3 173.738 12.9437  15
  -6   4   3 161.160 10.4424   3
  -6   4   3 160.446 10.6551   2
  -6   4   3 165.548 9.82029  10
  -5   4   3 40.0204 3.37034   6
  -5   4   3 40.3778 3.43758   9
  -5   4   3 37.3631 3.06167  10
  -5   4   3 39.2862 2.73786   3
  -5   4   3 42.3524 3.13051   2
  -4   4   3 344.492 21.4493   3
  -4   4   3 348.675 21.9510   6
  -4   4   3 354.127 21.4519   2
  -3   4   3 150.632 9.37356   6
  -3   4   3 141.559 8.97852   3
  -3   4   3 141.300 9.12700   2
   2  -4  -3 5.93335 0.64213   1
   2  -4  -3 6.76139 0.95761   2
   2  -4  -3 7.47217 0.62990   3
   2  -4  -3 6.03651 0.58642   1
  -2   4   3 6.99970 0.89182   2
  -2   4   3 5.83369 0.55173   1
  -2   4   3 5.79990 0.62732   1
  -2   4   3 6.11552 0.63134   3
   1  -4  -3 1619.92 95.9334   1
   1  -4  -3 1718.03 99.5479   3
   1  -4  -3 1778.05 95.9336   1
   1  -4  -3 1724.14 98.2217   2
  -1   4   3 1612.13 95.9025   1
  -1   4   3 1486.40 99.5422   3
  -1   4   3 1430.66 95.9209   1
  -1   4   3 1731.10 98.1926   2
   0  -4  -3 33.2572 2.15289   1
   0  -4  -3 35.8133 2.47480   2
   0  -4  -3 29.5468 3.40865   4
   0  -4  -3 36.3417 2.15296   1
   0  -4  -3 35.8176 2.20711   3
   0   4   3 34.3659 2.13858   1
   0   4   3 32.1349 2.16601   1
   0   4   3 29.7710 2.20408   3
   0   4   3 32.4210 2.44415   2
  -1  -4  -3 462.439 25.0810   3
  -1  -4  -3 445.807 24.8710   2
  -1  -4  -3 386.982 35.1986   4
  -1  -4  -3 417.388 24.1643   1
  -1  -4  -3 397.201 24.1746   1
   1   4   3 377.802 24.1799   1
   1   4   3 386.777 24.1596   1
  -2  -4  -3 225.759 18.9391   4
  -2  -4  -3 201.056 12.7927   1
  -2  -4  -3 221.516 13.3593   5
  -2  -4  -3 229.902 13.2647   3
   2   4   3 205.929 12.7974   1
  -3  -4  -3 479.856 32.5520   3
  -3  -4  -3 562.237 32.1672   2
  -3  -4  -3 532.337 32.1678   2
  -3  -4  -3 555.695 45.8986   4
  -3  -4  -3 569.117 32.5660   3
  -3  -4  -3 512.597 32.5879   5
  -4  -4  -3 145.846 9.55890   5
  -4  -4  -3 155.203 13.5666   4
  -5  -4  -3 71.9426 6.49405  13
  -5  -4  -3 78.2751 7.20806   4
  -5  -4  -3 76.7021 5.55638  11
  -5  -4  -3 72.0782 5.10301   5
  -5  -4  -3 60.8660 7.68902  17
  -5  -4  -3 71.2907 4.12964  10
  -5  -4  -3 73.0168 5.95503  12
  -5  -4  -3 77.7631 5.84789  18
  -6  -4  -3 102.680 9.52999   4
  -6  -4  -3 102.410 7.25978  11
  -6  -4  -3 90.7176 6.77176   5
  -6  -4  -3 104.191 7.87544  12
  -6  -4  -3 99.9333 8.62121  13
  -6  -4  -3 106.331 7.69699  18
  -6  -4  -3 96.5514 5.36400  10
  -7  -4  -3 5.44002 2.25193  13
  -7  -4  -3 3.63763 1.70414  12
  -7  -4  -3 4.27000 1.44336  11
  -7  -4  -3 3.14461 2.56458  14
  -8  -4  -3 80.7109 7.80530  13
  -8  -4  -3 80.0117 6.06676  11
  -8  -4  -3 82.6339 6.90790  12
  -8  -4  -3 71.1194 9.56557  14
  -9  -4  -3 2.00449 2.17923  13
  -9  -4  -3 0.93361 1.61947  12
  -9   5   3 24.9767 2.95911  15
  -8   5   3 0.59379 1.85279  15
  -8   5   3 0.49701 0.80691  10
  -7   5   3 110.891 7.00960  10
  -7   5   3 109.170 7.36739   9
  -7   5   3 121.452 9.47257  15
  -6   5   3 74.0000 4.93229  10
  -6   5   3 75.8741 6.59095  15
  -6   5   3 64.9180 5.41629   6
  -6   5   3 70.2110 5.33045   9
  -5   5   3 2.82240 0.48262   3
  -5   5   3 3.85234 1.50563   8
  -5   5   3 2.46334 0.89352   2
  -5   5   3 4.24555 1.67905  15
  -5   5   3 2.38053 1.13007   6
  -5   5   3 3.64079 1.20186   9
  -5   5   3 2.82239 1.08635  10
  -4   5   3 94.4000 5.93692   2
  -4   5   3 75.1246 5.85126   9
  -4   5   3 79.2125 7.23950   8
  -4   5   3 88.4337 5.52923   3
  -4   5   3 87.4808 6.10045   6
  -3   5   3 122.629 7.73201   2
  -3   5   3 111.805 7.42466   3
  -3   5   3 122.875 7.87863   6
  -2   5   3 99.7454 6.79717   1
  -2   5   3 124.382 7.41355   6
  -2   5   3 124.918 7.38657   2
  -2   5   3 109.381 7.07404   3
   1  -5  -3 11.9779 0.95134   1
   1  -5  -3 13.3965 1.41530   2
   1  -5  -3 13.1936 0.95160   3
   1  -5  -3 9.96508 1.72989   4
  -1   5   3 11.7442 1.25021   2
  -1   5   3 10.6296 0.91356   1
  -1   5   3 13.7232 1.27054   6
  -1   5   3 11.7546 0.94748   3
  -1   5   3 9.50377 0.95112   1
   0  -5  -3 1178.32 69.6320   1
   0  -5  -3 1265.49 71.3837   2
   0  -5  -3 1042.12 100.763   4
   0  -5  -3 1261.57 72.2763   3
  -1  -5  -3 87.1617 5.38915   2
  -1  -5  -3 85.9223 5.19789   3
  -1  -5  -3 82.2857 7.64939   4
  -1  -5  -3 76.6476 5.01030   1
  -2  -5  -3 275.007 15.9874   3
  -2  -5  -3 257.128 15.9296   2
  -2  -5  -3 242.284 16.1251   5
  -2  -5  -3 264.813 22.7240   4
  -3  -5  -3 96.7912 6.41477   2
  -3  -5  -3 103.764 6.31781   3
  -3  -5  -3 106.766 9.42221   4
  -3  -5  -3 99.3744 6.64640   5
  -4  -5  -3 152.938 10.7795  12
  -4  -5  -3 141.113 9.64068   5
  -4  -5  -3 149.007 9.20753   3
  -4  -5  -3 154.016 9.21634   2
  -4  -5  -3 164.956 13.7283   4
  -4  -5  -3 141.499 8.32271  10
  -5  -5  -3 307.476 17.0828  10
  -5  -5  -3 325.923 19.9198  11
  -5  -5  -3 320.469 20.6840  18
  -5  -5  -3 316.336 23.1995  13
  -5  -5  -3 330.019 21.2926  12
  -5  -5  -3 321.057 27.7802   4
  -5  -5  -3 298.343 19.7692   5
  -6  -5  -3 1.57240 1.63903  18
  -6  -5  -3 0.94998 0.94696   4
  -6  -5  -3 0.88752 1.62002  13
  -6  -5  -3 1.02272 1.75028  12
  -6  -5  -3 1.20260 1.05930  11
  -6  -5  -3 1.29562 0.95293   5
  -6  -5  -3 0.69240 0.43715  10
  -7  -5  -3 30.4201 3.60574  11
  -7  -5  -3 28.5330 4.39649  13
  -7  -5  -3 25.5169 3.66073  12
  -8  -5  -3 39.6519 5.06115  12
  -8  -5  -3 40.9352 5.59435  13
  -8  -5  -3 41.1376 3.79840  11
  -9  -5  -3 72.9499 6.43712  12
  -9  -5  -3 88.1432 7.62156  13
  -9   6   3 3.57413 1.12462  15
  -8   6   3 31.7180 2.38215  10
  -8   6   3 32.4915 3.61763  15
  -7   6   3 42.5998 4.95291  15
  -7   6   3 44.6295 3.53861   9
  -7   6   3 44.0465 3.47267  10
  -6   6   3 20.6713 2.37505  10
  -6   6   3 23.3044 2.71051   9
  -6   6   3 21.2099 3.77124  16
  -6   6   3 21.7634 3.33061  15
  -5   6   3 176.934 10.9599   9
  -5   6   3 194.454 12.9101  15
  -5   6   3 151.058 10.4877   3
  -5   6   3 153.365 10.8329   2
  -5   6   3 161.170 11.2125   6
  -5   6   3 165.381 9.97674  10
  -5   6   3 187.728 13.7269   8
  -4   6   3 31.4677 2.87692   6
  -4   6   3 40.7755 4.21762   8
  -4   6   3 30.0311 3.33993   9
  -4   6   3 33.3484 3.73882  15
  -4   6   3 32.4219 2.88180   2
  -4   6   3 31.1209 2.31612   3
  -3   6   3 266.018 17.4280   2
  -3   6   3 280.607 17.2446   3
  -3   6   3 287.650 17.7141   6
   2  -6  -3 45.3391 5.01841   4
  -2   6   3 54.5628 3.89437   2
  -2   6   3 49.4861 3.40669   3
  -2   6   3 59.2284 3.84336   6
   1  -6  -3 379.457 22.8860   2
   1  -6  -3 342.965 32.0634   4
   1  -6  -3 380.458 22.8583   3
  -1   6   3 385.235 23.1033   6
   0  -6  -3 -0.1282 0.47455   4
   0  -6  -3 0.47202 0.26012   3
   0  -6  -3 -0.3589 0.62095   2
  -1  -6  -3 237.314 14.3754   3
  -1  -6  -3 227.423 20.3791   4
  -2  -6  -3 597.155 37.6362   3
  -2  -6  -3 589.361 37.7542   5
  -2  -6  -3 627.013 37.3127   2
  -2  -6  -3 654.047 52.8951   4
  -3  -6  -3 0.28779 1.00891  12
  -3  -6  -3 0.76558 0.93793   4
  -3  -6  -3 -0.2233 0.48499   2
  -3  -6  -3 -0.2711 0.62436   5
  -4  -6  -3 104.659 9.10867  13
  -4  -6  -3 113.032 8.47422  12
  -4  -6  -3 103.471 7.56511  11
  -4  -6  -3 112.711 6.98379   2
  -4  -6  -3 109.407 6.81653   3
  -4  -6  -3 111.281 10.3667   4
  -4  -6  -3 105.165 6.81841   9
  -4  -6  -3 113.537 8.07233  18
  -4  -6  -3 104.158 7.40332   5
  -4  -6  -3 116.079 6.37624  10
  -5  -6  -3 143.149 11.2089  13
  -5  -6  -3 131.987 10.1019  12
  -5  -6  -3 119.473 7.34464  10
  -5  -6  -3 131.527 8.94479  11
  -5  -6  -3 122.075 8.70338   5
  -5  -6  -3 129.752 12.1087   4
  -5  -6  -3 140.716 9.49258  18
  -6  -6  -3 83.3127 7.43297  12
  -6  -6  -3 71.8438 8.11541   4
  -6  -6  -3 80.0786 4.77062  10
  -6  -6  -3 91.3908 8.49014  13
  -6  -6  -3 84.0573 6.10046  11
  -7  -6  -3 20.3483 3.27533  12
  -7  -6  -3 25.3806 4.24810  13
  -7  -6  -3 27.6634 3.11123  11
  -8  -6  -3 25.5906 3.43791  12
  -8  -6  -3 23.0966 4.35797  13
  -8  -6  -3 24.9834 2.78602  11
  -9  -6  -3 36.0955 3.65597  12
  -9  -6  -3 34.2846 4.47200  13
  -8   7   3 25.1659 2.81631  15
  -8   7   3 24.0234 1.85557  10
  -7   7   3 4.24063 1.75073  16
  -7   7   3 4.11321 1.81214  15
  -7   7   3 5.09620 1.06557   9
  -7   7   3 6.80476 1.19223  10
  -6   7   3 33.1090 2.87264  10
  -6   7   3 37.7638 3.59583   9
  -6   7   3 36.8736 3.90435  15
  -6   7   3 23.6994 4.26816  16
  -5   7   3 26.1789 2.50380  10
  -5   7   3 23.5427 3.13896  15
  -5   7   3 23.4716 3.11909   8
  -5   7   3 24.9165 3.07504   9
  -4   7   3 854.246 56.2266  15
  -4   7   3 807.654 51.6029   6
  -4   7   3 744.029 50.6836   2
  -4   7   3 809.663 48.3945   9
  -4   7   3 956.210 63.8033   8
  -3   7   3 7.98323 1.45992   2
  -3   7   3 5.30869 0.72323   3
  -3   7   3 4.84252 1.24094   6
  -3   7   3 7.52444 2.21695   8
  -2   7   3 87.9445 8.12834   8
  -2   7   3 86.5631 6.03389   6
   1  -7  -3 406.058 35.0549   4
   0  -7  -3 -0.0038 0.72119   4
   0  -7  -3 0.40690 0.26653   3
  -1  -7  -3 383.324 23.9690   3
  -1  -7  -3 381.494 23.9478   2
  -1  -7  -3 406.573 33.8091   4
  -2  -7  -3 27.8562 2.37387   2
  -2  -7  -3 25.6922 2.68748   9
  -2  -7  -3 27.8765 2.62989   5
  -2  -7  -3 31.7984 3.35701   4
  -2  -7  -3 28.6490 1.97357   3
  -2  -7  -3 23.9492 2.95638   8
  -2  -7  -3 27.9795 2.15772  10
  -3  -7  -3 376.253 22.1850   2
  -3  -7  -3 363.304 22.6727   5
  -3  -7  -3 373.104 24.0860  12
  -3  -7  -3 357.869 21.1540   9
  -3  -7  -3 376.699 19.7557  10
  -3  -7  -3 381.183 31.5500   4
  -3  -7  -3 336.809 22.3031  11
  -3  -7  -3 364.461 22.1738   3
  -3  -7  -3 314.502 27.3873   8
  -3  -7  -3 378.886 23.3682  18
  -4  -7  -3 228.933 14.9358   3
  -4  -7  -3 265.424 21.7738   4
  -4  -7  -3 242.741 16.8452  12
  -4  -7  -3 235.297 15.6154   5
  -4  -7  -3 247.339 18.5225  13
  -4  -7  -3 249.583 15.5026  11
  -4  -7  -3 220.843 14.9966   2
  -4  -7  -3 274.130 13.5697  10
  -4  -7  -3 235.758 14.4424   9
  -5  -7  -3 55.2596 3.43453   9
  -5  -7  -3 57.6193 4.56265  11
  -5  -7  -3 56.7470 3.56037  10
  -5  -7  -3 56.6136 5.84056  12
  -5  -7  -3 46.2044 3.38464   2
  -5  -7  -3 51.8047 5.80871   4
  -5  -7  -3 52.1348 6.42324  13
  -6  -7  -3 88.7636 7.70109  12
  -6  -7  -3 85.7491 6.19858  11
  -6  -7  -3 78.8935 5.00555  10
  -6  -7  -3 85.4205 8.68922  13
  -7  -7  -3 1.19244 1.12249  11
  -7  -7  -3 2.39729 1.59909  12
  -7  -7  -3 0.81332 0.34411  10
  -7  -7  -3 0.82702 2.03845  13
  -8  -7  -3 49.1825 4.68822  12
  -8  -7  -3 45.7214 5.50468  13
  -9  -7  -3 -0.6431 0.94551  12
  -7   8   3 42.8049 4.30163  16
  -7   8   3 38.5425 3.74228  15
  -7   8   3 36.9312 2.80399  10
  -6   8   3 6.77808 1.91252  15
  -6   8   3 7.37782 2.34755  16
  -6   8   3 8.77170 1.55912   9
  -6   8   3 6.46280 1.43207  10
  -5   8   3 71.7286 6.54792   8
  -5   8   3 80.2691 6.01886   9
  -5   8   3 72.2605 5.26702  10
  -4   8   3 1.94337 1.70823   9
  -4   8   3 1.98805 1.67155   8
  -3   8   3 37.9117 4.55021   8
  -2   8   3 166.287 14.3537   8
   1  -8  -3 19.0499 2.84639   8
   0  -8  -3 499.167 38.5110   8
  -1  -8  -3 10.3293 1.75726   9
  -1  -8  -3 9.12787 0.92336   3
  -1  -8  -3 9.85255 1.94454   8
  -1  -8  -3 10.7855 1.46736   2
  -1  -8  -3 8.47300 1.73711   4
  -2  -8  -3 108.141 7.47296   2
  -2  -8  -3 116.916 7.51122   9
  -2  -8  -3 117.018 6.80933  10
  -2  -8  -3 105.835 7.12356   3
  -2  -8  -3 124.226 10.6124   4
  -2  -8  -3 108.814 9.32179   8
  -2  -8  -3 108.666 8.53606  12
  -2  -8  -3 113.742 7.78131   5
  -3  -8  -3 181.040 11.1954   9
  -3  -8  -3 172.979 11.5378   2
  -3  -8  -3 197.005 10.4488  10
  -3  -8  -3 202.694 13.3223  12
  -3  -8  -3 172.602 11.3044   3
  -3  -8  -3 187.841 16.4571   4
  -3  -8  -3 165.348 11.9461   5
  -3  -8  -3 185.654 14.1577   8
  -4  -8  -3 10.2076 2.73109  13
  -4  -8  -3 8.02306 2.41206  12
  -4  -8  -3 12.5104 1.53253  10
  -4  -8  -3 8.26950 1.99270   4
  -4  -8  -3 9.69942 1.65738   9
  -5  -8  -3 97.2246 8.20718  12
  -5  -8  -3 87.3338 5.81300   9
  -5  -8  -3 95.7882 6.81999  11
  -5  -8  -3 100.790 5.82244  10
  -5  -8  -3 95.7529 9.23602  13
  -6  -8  -3 -0.7657 1.35314  12
  -6  -8  -3 0.39513 2.61192  13
  -6  -8  -3 0.82544 0.78722  10
  -6  -8  -3 2.03122 1.41608  11
  -7  -8  -3 88.9198 7.35302  12
  -7  -8  -3 85.0924 8.07783  13
  -7  -8  -3 85.7306 6.08805  11
  -8  -8  -3 2.29554 1.29717  12
  -8  -8  -3 3.35477 1.75516  13
  -7   9   3 32.6736 2.39374  10
  -6   9   3 9.65749 2.22982  16
  -6   9   3 6.48074 1.41685   9
  -5   9   3 63.2548 4.64873  10
  -5   9   3 60.8073 6.35362  16
  -5   9   3 63.1392 4.94934   9
  -4   9   3 57.2381 5.92282   8
  -4   9   3 63.0002 5.47065   9
  -3   9   3 61.5582 6.62415   8
  -2   9   3 0.91070 1.95749   8
   1  -9  -3 109.273 9.68187   8
   0  -9  -3 41.3143 4.65026   8
  -1  -9  -3 73.7445 5.44039   2
  -1  -9  -3 80.1554 6.78449   8
  -1  -9  -3 67.7531 4.86229   3
  -1  -9  -3 84.3266 5.77506   9
  -2  -9  -3 117.329 9.18280  12
  -2  -9  -3 120.991 7.28463  10
  -2  -9  -3 115.027 9.97220   8
  -2  -9  -3 131.079 8.19378   9
  -3  -9  -3 11.3416 1.91550   9
  -3  -9  -3 14.0797 1.75028  10
  -3  -9  -3 14.0785 2.97408  13
  -3  -9  -3 10.7388 1.49835   8
  -3  -9  -3 10.3449 2.20714  12
  -4  -9  -3 301.153 21.4311  13
  -4  -9  -3 283.952 16.6892   9
  -4  -9  -3 264.689 15.5204  10
  -4  -9  -3 274.262 19.0832  12
  -5  -9  -3 2.76032 2.07035  13
  -5  -9  -3 1.08258 1.43286  12
  -5  -9  -3 2.59191 0.76831   9
  -5  -9  -3 1.91892 0.97805  10
  -6  -9  -3 117.759 6.80127  10
  -6  -9  -3 114.635 8.83491  12
  -6  -9  -3 118.106 10.0155  13
  -7  -9  -3 28.0625 3.74950  13
  -7  -9  -3 26.3038 2.95823  12
  -6  10   3 70.5189 4.05167   9
  -6  10   3 56.5629 4.11448  10
  -6  10   3 66.5195 5.74496  16
  -5  10   3 14.7933 2.07879   9
  -5  10   3 15.9125 2.70094  16
  -4  10   3 99.8503 6.72861   9
  -4  10   3 82.9404 7.98489  16
  -4  10   3 87.7447 7.66011   8
  -3  10   3 30.4716 3.74381   9
  -3  10   3 29.3605 3.78418   8
   2 -10  -3 19.2341 3.15809   8
  -2  10   3 18.1386 3.39071   8
   1 -10  -3 57.1751 5.87103   8
  -1  10   3 48.4869 6.41717   8
   0 -10  -3 104.818 9.35878   8
  -1 -10  -3 134.473 9.97298  12
  -1 -10  -3 134.595 8.90879   9
  -1 -10  -3 130.882 11.1608   8
  -2 -10  -3 10.4468 1.69413  10
  -2 -10  -3 10.8997 2.38951  12
  -2 -10  -3 11.3514 2.12275   9
  -2 -10  -3 9.53544 1.79810   8
  -3 -10  -3 204.585 14.4081  12
  -3 -10  -3 201.541 11.8209  10
  -3 -10  -3 217.278 12.8028   9
  -3 -10  -3 197.247 15.9579  13
  -4 -10  -3 1.05379 1.11133   9
  -4 -10  -3 0.36447 1.64647  13
  -4 -10  -3 0.22681 1.01870  10
  -4 -10  -3 0.95860 1.38067  12
  -5 -10  -3 189.155 14.3619  13
  -5 -10  -3 169.192 12.5690  12
  -5 -10  -3 186.199 10.3177  10
  -6 -10  -3 80.5687 4.58719  10
  -6 -10  -3 80.8047 7.16684  13
  -6 -10  -3 69.9128 6.06719  12
  -5  11   3 24.8351 2.10219   9
  -5  11   3 17.2532 2.45306  16
  -4  11   3 55.5857 4.32474   9
  -4  11   3 52.5205 5.47277  16
  -3  11   3 17.1994 2.89343  16
  -3  11   3 20.6233 2.85432   8
  -3  11   3 16.1649 2.74361   9
   2 -11  -3 36.3278 3.96464   8
  -2  11   3 28.6305 3.93215   8
   1 -11  -3 1.30126 1.63551   8
  -1  11   3 1.28322 1.52695   8
   0 -11  -3 119.927 8.87329  12
   0 -11  -3 115.915 9.95028   8
  -1 -11  -3 -0.1946 1.15685   8
  -1 -11  -3 -1.0270 1.56280  12
  -1 -11  -3 0.75818 1.65446   9
  -2 -11  -3 93.9644 6.11703   9
  -2 -11  -3 93.9747 7.15362  12
  -2 -11  -3 80.8041 7.32169  13
  -2 -11  -3 80.7465 6.86387   8
  -3 -11  -3 57.0027 5.77376  13
  -3 -11  -3 65.9568 5.40343  12
  -3 -11  -3 63.3662 4.19246  10
  -3 -11  -3 62.8183 4.53157   9
  -4 -11  -3 57.6949 3.71511   9
  -4 -11  -3 51.0798 5.19029  13
  -4 -11  -3 53.8444 3.61951  10
  -4 -11  -3 51.9547 4.64270  12
  -5 -11  -3 26.4908 3.23800  13
  -5 -11  -3 27.5026 1.99310  10
  -5 -11  -3 24.6286 2.92192  12
   3 -12  -3 76.1904 6.04335   8
  -3  12   3 59.9268 5.68722  16
  -3  12   3 62.2739 4.77548   9
   2 -12  -3 12.1309 1.70509  12
   2 -12  -3 12.7105 1.91626   8
  -2  12   3 10.6293 1.88422   8
  -2  12   3 7.44295 1.61644  16
   1 -12  -3 32.3278 3.08256   8
   1 -12  -3 26.7882 2.82351  12
  -1  12   3 21.3277 2.96713  16
  -1  12   3 23.1381 3.31801   8
   0 -12  -3 18.1774 2.41971   9
   0 -12  -3 13.5975 1.94538  12
   0 -12  -3 18.8159 2.41834   8
   0  12   3 15.7350 3.20061   8
  -1 -12  -3 59.6011 4.96923   8
  -1 -12  -3 57.3074 4.86217  12
  -1 -12  -3 64.5540 4.58938   9
  -2 -12  -3 32.5042 3.00661   9
  -2 -12  -3 25.5815 2.83201  12
  -3 -12  -3 10.6902 1.32598  10
  -3 -12  -3 20.2998 1.64690   9
   0  10  -4 12.7828 2.20570  17
  -1  10  -4 0.36594 1.09378  17
  -4  -9   4 18.8773 1.96572   9
   3   9  -4 23.2651 3.63821   8
   3   9  -4 23.4832 3.54044  17
  -3  -9   4 38.4251 2.99001   8
  -3  -9   4 33.1270 3.40943  13
  -3  -9   4 37.0288 3.05973   9
   2   9  -4 0.94384 1.25368   8
  -2  -9   4 0.46368 0.83263   8
   1   9  -4 41.4901 5.03299   8
  -1  -9   4 55.4822 4.99897   8
   0   9  -4 22.2499 3.18456   9
   0   9  -4 23.6014 2.88130   8
   0   9  -4 21.8364 3.72661  17
  -1   9  -4 31.7270 4.27767  17
  -2   9  -4 9.28359 1.55589  10
  -2   9  -4 13.3358 2.58718  17
  -2   9  -4 12.9976 2.01661   9
  -3   9  -4 15.7183 2.38346  17
  -3   9  -4 12.2384 1.47487  10
  -3   9  -4 12.9617 1.24804   9
  -5  -8   4 4.54476 1.08580   9
  -5  -8   4 4.72391 1.48817  13
  -4  -8   4 137.957 8.66690   9
  -4  -8   4 143.399 10.6401  13
  -4  -8   4 125.603 10.3731   8
   3   8  -4 4.23762 2.04146   8
  -3  -8   4 5.51802 1.52728   8
  -3  -8   4 5.41735 2.36387  13
   2   8  -4 49.5714 6.55702   8
  -2  -8   4 61.5790 5.56658   8
   1   8  -4 40.8939 5.28671   8
  -1  -8   4 52.1657 5.02631   8
   0   8  -4 16.2647 3.17850   9
   0   8  -4 15.2767 2.94539   8
  -1   8  -4 127.764 10.8916   8
  -1   8  -4 136.482 9.20178   9
  -2   8  -4 11.7364 1.87214  10
  -2   8  -4 11.6057 2.45331   9
  -2   8  -4 10.0632 2.84141  17
  -3   8  -4 27.6306 2.64322  10
  -3   8  -4 27.9814 2.71583   9
  -3   8  -4 30.1285 4.19733  17
  -4   8  -4 1.37016 1.36101  17
  -4   8  -4 1.23871 0.85001  10
  -4   8  -4 2.25891 1.23018  16
  -5   8  -4 82.7279 7.25250  16
  -5   8  -4 93.7802 5.20173  10
  -6  -7   4 2.24504 1.29992  13
  -6  -7   4 1.17084 0.69126  10
  -6  -7   4 1.89649 0.75023   9
  -5  -7   4 163.763 9.96063   9
  -5  -7   4 148.311 12.0027  13
  -4  -7   4 33.1864 3.58031   8
  -4  -7   4 30.4492 3.39453   9
  -4  -7   4 39.7683 4.87182  13
  -3  -7   4 4.22814 1.71496   8
   2   7  -4 165.152 16.3343   8
  -2  -7   4 201.887 15.5152   8
   1   7  -4 2.51430 2.25532   8
   0   7  -4 73.0927 7.67448   8
   0   7  -4 73.1487 6.67318   9
  -1   7  -4 15.4448 3.01251   9
  -1   7  -4 15.4077 2.75652   8
  -2   7  -4 21.1741 2.59316  10
  -2   7  -4 21.3823 2.74541   8
  -2   7  -4 24.5981 4.51153  17
  -2   7  -4 24.7599 3.16114   9
  -3   7  -4 2.68347 2.81698  17
  -3   7  -4 6.45038 1.97988   9
  -3   7  -4 1.16323 1.37701  10
  -3   7  -4 1.69803 1.83211  16
  -4   7  -4 37.7586 4.75942  16
  -4   7  -4 32.5749 2.92013   9
  -4   7  -4 33.0315 3.13113  10
  -4   7  -4 36.4295 4.94914  17
  -5   7  -4 0.61447 1.47435  17
  -5   7  -4 0.23812 1.78181  16
  -5   7  -4 0.97973 0.69507  10
  -6   7  -4 6.55635 1.65631  16
  -7  -6   4 9.55867 0.90008   9
  -7  -6   4 5.81362 0.98045  10
  -7  -6   4 11.2854 2.29988  14
  -6  -6   4 41.3887 5.20612  14
  -6  -6   4 35.2223 3.12511   9
  -6  -6   4 37.6163 4.66511  13
  -6  -6   4 37.5646 2.99724  10
  -5  -6   4 32.1609 3.09824   8
  -5  -6   4 30.8638 3.40277   9
  -5  -6   4 27.1393 4.07794  13
  -4  -6   4 57.6669 5.47642   8
  -4  -6   4 54.8652 4.75059   9
  -4  -6   4 54.2872 5.70632  13
  -3  -6   4 540.662 41.6709   8
   2   6  -4 3.64571 2.15365   8
   2   6  -4 3.46204 1.59990   7
  -2  -6   4 6.80545 2.05133   8
  -2  -6   4 2.53216 1.29490   5
   1   6  -4 92.5885 7.94234   7
   1   6  -4 112.688 10.0569   8
   0   6  -4 7.98771 2.16053   7
   0   6  -4 9.11519 2.84392   8
   0   6  -4 9.11823 2.33874   9
  -1   6  -4 5.72523 1.94958   7
  -1   6  -4 10.2906 1.84867   2
  -1   6  -4 8.18364 2.25991   8
  -1   6  -4 10.3737 2.31930   9
  -2   6  -4 47.3062 4.76257   8
  -2   6  -4 44.7575 3.73730  10
  -2   6  -4 42.6072 4.55694   7
  -2   6  -4 42.4423 5.40689  16
  -2   6  -4 45.5897 4.73475   9
  -3   6  -4 17.8905 2.74850   9
  -3   6  -4 18.1208 4.42952  17
  -3   6  -4 16.4035 2.27377  10
  -3   6  -4 16.0364 3.06755  16
  -4   6  -4 21.1775 2.39870   9
  -4   6  -4 15.7991 3.41740  16
  -4   6  -4 22.0241 4.33067  17
  -4   6  -4 20.2681 2.33917  10
  -5   6  -4 4.32719 1.95734  16
  -5   6  -4 5.83315 1.17540  10
  -5   6  -4 6.33336 2.47177  17
  -6   6  -4 86.5731 7.68173  16
  -6   6  -4 79.0037 4.77870  10
  -7   6  -4 1.96100 1.30495  16
  -8  -5   4 5.91399 1.89783  14
  -8  -5   4 6.71732 0.92751  10
  -7  -5   4 9.07127 2.67109  14
  -7  -5   4 8.65832 1.33248  10
  -7  -5   4 8.72491 1.29045   9
  -6  -5   4 32.3945 5.07532  14
  -6  -5   4 27.6951 2.86616  10
  -6  -5   4 27.2337 3.78206  13
  -6  -5   4 27.8866 3.24216   9
  -5  -5   4 16.7700 2.50729   9
  -5  -5   4 10.5253 2.67704  13
  -5  -5   4 14.7042 2.19325   8
  -4  -5   4 146.006 12.1597   8
  -4  -5   4 134.411 9.93582   5
  -4  -5   4 162.270 12.1710  13
  -4  -5   4 155.848 10.0729   9
  -3  -5   4 366.455 28.4318   8
  -3  -5   4 359.557 22.9207   5
   2   5  -4 220.444 16.4013   7
  -2  -5   4 266.824 15.8760   5
   1   5  -4 94.0002 9.08565   8
   1   5  -4 90.9209 7.27033   7
   0   5  -4 175.613 14.7811   8
   0   5  -4 167.562 11.3925   2
   0   5  -4 158.148 11.8148   7
   0   5  -4 169.959 11.4785   9
   0   5  -4 173.042 10.6916   3
  -1   5  -4 335.312 20.1572   3
  -1   5  -4 307.985 18.5057  10
  -1   5  -4 314.881 20.0312   9
  -1   5  -4 344.187 26.1392   8
  -1   5  -4 326.481 21.5908   7
  -1   5  -4 319.965 20.6534   2
  -2   5  -4 23.8539 1.75597   3
  -2   5  -4 23.9681 3.57659   8
  -2   5  -4 24.4129 2.73469  10
  -2   5  -4 19.5778 3.44127  16
  -2   5  -4 22.8341 2.42499   2
  -2   5  -4 27.4706 3.25719   9
  -2   5  -4 18.9215 2.98631   7
  -3   5  -4 73.9566 6.00742   6
  -3   5  -4 77.4889 5.99160   9
  -3   5  -4 71.9704 6.23362   7
  -3   5  -4 85.2722 7.92928  16
  -3   5  -4 77.1013 9.04408  17
  -3   5  -4 76.2802 5.38389  10
  -4   5  -4 3.61684 1.68273  15
  -4   5  -4 3.21732 1.91058  16
  -4   5  -4 2.71122 2.96615  17
  -4   5  -4 1.41181 1.31826   6
  -4   5  -4 3.29774 1.29457  10
  -4   5  -4 1.81199 1.51493   9
  -5   5  -4 174.288 16.5515  17
  -5   5  -4 187.637 15.1328  16
  -5   5  -4 189.699 10.5440  10
  -5   5  -4 164.061 13.7532  15
  -6   5  -4 3.89822 2.58739  16
  -6   5  -4 6.92022 2.07292  15
  -6   5  -4 4.22081 0.93414  10
  -7   5  -4 14.9167 2.37517  15
  -7   5  -4 21.8198 3.36094  16
  -8   5  -4 29.0795 3.47378  16
  -8  -4   4 4.81964 0.88366  10
  -8  -4   4 4.27992 2.11102  14
  -7  -4   4 92.7434 6.26909   9
  -7  -4   4 110.471 10.6632  14
  -7  -4   4 88.3866 5.90281  10
  -6  -4   4 0.36911 1.82011  13
  -6  -4   4 -1.5365 2.94414  14
  -6  -4   4 -0.7039 1.30577   9
  -6  -4   4 0.55124 0.77614  10
  -6  -4   4 0.85015 0.45257   8
  -5  -4   4 78.4158 7.14256  13
  -5  -4   4 77.6045 6.52349   8
  -5  -4   4 64.8697 5.32788   5
  -5  -4   4 73.9844 5.14330  10
  -5  -4   4 72.2109 5.47619   9
  -4  -4   4 0.44513 1.47392   9
  -4  -4   4 0.11782 0.29616   3
  -4  -4   4 -0.4795 1.11758  13
  -4  -4   4 0.36034 1.04947   8
  -4  -4   4 1.80604 1.01344   2
  -4  -4   4 0.08895 0.61382   5
   3   4  -4 22.2998 2.76448   7
  -3  -4   4 26.0505 2.53571   5
  -3  -4   4 24.5945 3.25237   8
   2   4  -4 10.7613 1.98999   7
  -2  -4   4 12.2884 1.72622   5
   1   4  -4 259.006 17.1644   7
   0   4  -4 481.466 32.9549   7
   0   4  -4 505.544 40.4061   8
   0   4  -4 532.546 31.8258   3
   0   4  -4 548.199 32.1265   2
  -1   4  -4 1.24685 1.46343   8
  -1   4  -4 1.60958 0.34737   3
  -1   4  -4 -0.3734 1.06517   7
  -1   4  -4 -0.4510 1.43395   9
  -1   4  -4 0.37819 0.93749   2
  -2   4  -4 305.084 24.8109  16
  -2   4  -4 327.876 21.6006   7
  -2   4  -4 299.880 18.4216  10
  -2   4  -4 323.991 19.9564   9
  -2   4  -4 352.251 21.2209   6
  -2   4  -4 336.032 20.6638   2
  -2   4  -4 324.950 25.7306   8
  -2   4  -4 351.676 20.3087   3
  -3   4  -4 112.453 6.77508   3
  -3   4  -4 95.2980 8.76221  15
  -3   4  -4 104.791 7.77828   6
  -3   4  -4 113.535 9.78432  16
  -3   4  -4 111.308 7.41639   9
  -3   4  -4 97.8236 6.64203  10
  -3   4  -4 97.1569 10.4510  17
  -3   4  -4 110.222 8.12267   7
  -3   4  -4 110.014 7.28432   2
  -4   4  -4 54.8670 4.06535  10
  -4   4  -4 56.7226 5.57535  15
  -4   4  -4 52.1427 4.23243   9
  -4   4  -4 60.3940 6.61549  16
  -4   4  -4 58.7303 7.30220  17
  -4   4  -4 50.8194 4.69113   7
  -4   4  -4 54.0745 4.82315   6
  -4   4  -4 58.2116 3.58717   3
  -4   4  -4 50.7433 3.94242   2
  -5   4  -4 40.7399 5.18153  15
  -5   4  -4 44.3344 5.91011  16
  -5   4  -4 38.7525 6.08374  17
  -5   4  -4 38.4159 3.14754  10
  -6   4  -4 40.4445 2.81914  10
  -6   4  -4 34.2787 4.51550  15
  -6   4  -4 36.2286 5.26196  16
  -7   4  -4 23.9900 3.70851  15
  -7   4  -4 20.4197 3.95423  16
  -8   4  -4 4.72754 1.93639  16
  -8   4  -4 3.93391 1.60173  15
  -9  -3   4 2.31626 1.76683  14
  -9  -3   4 1.45179 0.49750  10
  -8  -3   4 86.8254 8.84283  14
  -8  -3   4 68.6753 4.68019  10
  -7  -3   4 0.01814 3.04437  14
  -7  -3   4 0.47030 0.82520   9
  -7  -3   4 0.86729 0.79024  10
  -6  -3   4 91.1648 5.94855  10
  -6  -3   4 87.4110 7.49585   8
  -6  -3   4 101.975 6.67144   9
  -6  -3   4 95.7698 8.32870  13
  -6  -3   4 105.399 10.9917  14
  -5  -3   4 37.0517 4.38015  13
  -5  -3   4 38.5904 3.57081   9
  -5  -3   4 37.2237 3.68875   8
  -5  -3   4 35.1557 2.85508  10
  -5  -3   4 33.1245 3.03122   2
  -5  -3   4 35.7847 3.12980   5
  -5  -3   4 32.2470 2.53841   3
  -4  -3   4 104.628 7.26163   2
  -4  -3   4 102.697 8.80882  13
  -4  -3   4 111.396 7.43479   9
  -4  -3   4 109.739 7.33584   5
  -4  -3   4 108.319 6.96770   3
  -4  -3   4 106.314 9.06410   8
   3   3  -4 137.247 10.5704   7
  -3  -3   4 166.247 10.2601   2
  -3  -3   4 180.806 10.3578   5
  -3  -3   4 154.086 9.99385   3
  -3  -3   4 152.213 12.8174   8
   2   3  -4 7.65531 1.47280   7
  -2  -3   4 0.75706 0.71561   5
   1   3  -4 507.608 30.7477   3
   1   3  -4 464.085 31.6522   7
   1   3  -4 533.441 31.0036   2
   0   3  -4 76.5245 5.67613   2
   0   3  -4 73.7782 5.88419   7
   0   3  -4 84.7604 5.15596   3
  -1   3  -4 473.292 28.6245   3
  -1   3  -4 460.150 29.6678   7
  -1   3  -4 466.631 28.7332   2
  -2   3  -4 104.038 7.09386   2
  -2   3  -4 110.757 6.64143   3
  -2   3  -4 102.140 7.59826   7
  -2   3  -4 98.7332 7.38071   6
  -3   3  -4 65.1712 4.56507  10
  -3   3  -4 71.7775 4.82191   2
  -3   3  -4 67.6690 7.56619  17
  -3   3  -4 67.5095 6.40223  15
  -3   3  -4 71.9745 5.51217   7
  -3   3  -4 71.6048 4.41074   3
  -3   3  -4 67.8632 5.28358   6
  -3   3  -4 65.3045 4.92784   9
  -3   3  -4 62.7790 6.80891  16
  -4   3  -4 239.607 18.4590  16
  -4   3  -4 215.129 15.2035   6
  -4   3  -4 242.086 20.0598  17
  -4   3  -4 228.130 13.0295  10
  -4   3  -4 235.457 17.1795  15
  -4   3  -4 175.287 21.2254  14
  -4   3  -4 228.716 13.6013   9
  -4   3  -4 234.116 14.1965   2
  -4   3  -4 237.037 15.3304   7
  -4   3  -4 247.256 14.1452   3
  -5   3  -4 0.40370 1.97271  16
  -5   3  -4 -1.0365 2.55018  14
  -5   3  -4 1.81581 2.00584  15
  -5   3  -4 -1.2559 2.14321  17
  -5   3  -4 -0.1405 0.68857  10
  -5   3  -4 0.89552 0.95818   6
  -6   3  -4 24.5416 5.46450  14
  -6   3  -4 30.5189 4.42573  15
  -6   3  -4 25.1330 4.53508  16
  -6   3  -4 26.1208 1.98272  10
  -7   3  -4 0.99226 2.98249  14
  -7   3  -4 -0.5586 2.45731  16
  -7   3  -4 -1.2566 2.06165  15
  -8   3  -4 43.9417 4.81525  15
  -8   3  -4 44.0394 5.19833  16
  -9   3  -4 4.47228 1.47649  15
  -9  -2   4 39.2648 2.52751  10
  -9  -2   4 33.2583 5.04793  14
  -8  -2   4 13.6803 1.69189  10
  -8  -2   4 16.3261 3.92859  14
  -7  -2   4 29.3307 5.86921  14
  -7  -2   4 31.3359 3.07260   9
  -7  -2   4 34.0146 2.88253  10
  -6  -2   4 0.47836 0.65976   5
  -6  -2   4 0.70486 1.17167   9
  -6  -2   4 0.94650 3.03327  14
  -6  -2   4 1.97060 0.88478   8
  -6  -2   4 0.64289 0.72806  10
  -5  -2   4 29.7706 2.66188   5
  -5  -2   4 29.9854 3.16697   8
  -5  -2   4 26.7916 2.57311   2
  -5  -2   4 29.5248 2.67464  10
  -5  -2   4 31.2352 3.09987   9
  -5  -2   4 28.8134 2.20589   3
  -4  -2   4 200.466 12.7837   2
  -4  -2   4 213.524 12.8978   5
  -4  -2   4 198.562 12.6294   3
  -4  -2   4 193.710 12.4722   9
  -4  -2   4 200.780 15.9528   8
  -3  -2   4 0.74363 0.62438   5
  -3  -2   4 0.09692 0.59932   2
  -3  -2   4 0.38361 0.31405   3
   2   2  -4 671.516 43.2224   7
  -2  -2   4 705.572 42.0980   2
  -2  -2   4 700.958 42.3487   5
  -2  -2   4 698.922 42.4991   3
   1   2  -4 1.85944 0.96792   7
   1   2  -4 5.79103 0.55492   3
   1   2  -4 3.68077 0.58650   1
   1   2  -4 3.74534 1.07495   2
  -1  -2   4 4.27301 0.54869   1
   0   2  -4 359.424 21.9487   3
   0   2  -4 363.028 22.1125   2
   0   2  -4 352.256 22.7372   7
  -1   2  -4 142.026 9.07034   2
  -1   2  -4 139.980 9.46871   7
  -2   2  -4 177.287 10.6218   2
  -2   2  -4 165.166 10.3519   3
  -2   2  -4 158.248 11.0355   6
  -2   2  -4 170.649 11.1562   7
  -3   2  -4 239.942 14.0896   3
  -3   2  -4 214.971 14.8729   6
  -3   2  -4 227.168 14.1413   2
  -3   2  -4 228.297 14.9529   7
  -4   2  -4 16.3073 2.26223   6
  -4   2  -4 14.2272 3.82549  14
  -4   2  -4 14.4409 1.62538  10
  -4   2  -4 17.1405 1.05831   3
  -4   2  -4 17.4796 3.21483  16
  -4   2  -4 15.0975 3.00559  15
  -4   2  -4 16.2359 1.17687   2
  -4   2  -4 15.7760 1.89557   7
  -4   2  -4 14.5413 1.25252   9
  -4   2  -4 19.4147 3.40872  17
  -5   2  -4 188.821 10.1899  10
  -5   2  -4 177.842 15.9004  17
  -5   2  -4 185.853 14.0664  15
  -5   2  -4 152.435 17.5017  14
  -5   2  -4 206.992 15.2703  16
  -5   2  -4 176.042 12.3594   6
  -6   2  -4 40.1323 2.21732  10
  -6   2  -4 35.2116 5.45892  17
  -6   2  -4 29.6435 6.19899  14
  -6   2  -4 33.2250 3.61824   6
  -6   2  -4 36.1210 5.09380  15
  -6   2  -4 41.6501 5.17277  16
  -7   2  -4 40.1663 5.10788  15
  -7   2  -4 30.7934 4.66090  16
  -7   2  -4 25.0856 5.29600  14
  -8   2  -4 18.8153 3.57458  15
  -8   2  -4 19.9014 4.28522  14
  -8   2  -4 13.9733 3.38034  16
  -9   2  -4 18.4524 3.56428  14
  -9   2  -4 17.4878 2.82583  15
  -9  -1   4 38.5691 5.33902  14
  -9  -1   4 33.7310 2.38115  10
  -8  -1   4 62.4156 3.94143   9
  -8  -1   4 70.4508 8.94454  14
  -8  -1   4 61.8552 4.17402  10
  -7  -1   4 65.6662 4.89984   9
  -7  -1   4 81.3093 9.40393  14
  -7  -1   4 64.3198 4.49215  10
  -6  -1   4 30.6228 2.94924   9
  -6  -1   4 23.7074 2.38972   2
  -6  -1   4 30.9316 5.47095  14
  -6  -1   4 29.1670 2.62948  10
  -6  -1   4 28.1895 2.74679   8
  -6  -1   4 23.8119 2.60429   5
  -5  -1   4 273.823 15.3965  10
  -5  -1   4 283.243 17.3272   5
  -5  -1   4 253.485 17.0713   2
  -5  -1   4 266.316 16.4568   9
  -5  -1   4 282.427 17.0595   3
  -5  -1   4 283.177 21.2896   8
  -4  -1   4 2.47742 0.81308   2
  -4  -1   4 2.89972 0.81427   5
  -4  -1   4 2.33296 0.48455   3
  -3  -1   4 268.913 16.7564   3
  -3  -1   4 284.862 16.8479   5
  -3  -1   4 259.319 16.7595   2
   2   1  -4 19.4985 1.53688   1
   2   1  -4 18.7595 1.45646   1
   2   1  -4 22.7883 2.00038   7
   2   1  -4 21.5294 1.45493   3
   2   1  -4 22.7477 2.16236   2
  -2  -1   4 22.8247 1.86963   2
  -2  -1   4 21.1979 1.51844   3
  -2  -1   4 18.6739 1.45909   1
  -2  -1   4 20.2249 1.67362   5
   1   1  -4 75.2647 4.69894   1
   1   1  -4 84.1536 4.84408   3
   1   1  -4 73.5723 4.74922   1
   1   1  -4 78.4626 5.37534   7
   1   1  -4 79.1939 5.28790   2
  -1  -1   4 76.9756 4.90459   3
  -1  -1   4 73.1262 4.71047   1
  -1  -1   4 76.8973 5.07128   2
  -1  -1   4 74.1305 4.72472   1
   0   1  -4 149.193 9.46595   1
   0   1  -4 163.648 10.0294   2
   0   1  -4 171.514 9.75705   3
   0   1  -4 162.986 10.3554   7
   0  -1   4 149.852 9.44058   1
   0  -1   4 154.083 9.45515   1
  -1   1  -4 296.890 18.1699   3
  -1   1  -4 282.559 17.5700   1
  -1   1  -4 322.141 18.2632   2
  -1   1  -4 289.770 18.8185   7
  -2   1  -4 623.002 37.2004   2
  -2   1  -4 626.720 37.5495   3
  -2   1  -4 639.789 38.3968   7
  -2   1  -4 571.252 38.1335   6
  -3   1  -4 0.54572 0.57059   7
  -3   1  -4 1.72741 0.22091   3
  -3   1  -4 0.15658 0.34291   2
  -3   1  -4 0.87269 0.68431   6
  -4   1  -4 534.195 33.2842   6
  -4   1  -4 526.555 33.2358   7
  -5   1  -4 55.5169 6.18354  17
  -5   1  -4 53.7015 5.56693  16
  -5   1  -4 53.0810 3.07401  10
  -5   1  -4 46.1309 5.28314  13
  -5   1  -4 51.8537 5.40372  15
  -5   1  -4 51.8250 4.47747   6
  -5   1  -4 42.7858 7.07614  14
  -6   1  -4 7.26115 2.80829  13
  -6   1  -4 6.26299 1.76416   6
  -6   1  -4 8.75608 2.52356  15
  -6   1  -4 4.95343 3.52481  14
  -6   1  -4 7.06191 2.91985  17
  -6   1  -4 5.56648 2.52059  16
  -7   1  -4 141.916 11.1425  15
  -7   1  -4 109.237 10.4861  13
  -7   1  -4 113.696 13.4122  14
  -7   1  -4 130.547 11.0317  16
  -8   1  -4 5.51531 3.40555  14
  -8   1  -4 6.60919 2.42772  16
  -8   1  -4 8.90033 2.75466  15
  -9   1  -4 50.4025 4.81287  15
  -9   1  -4 32.9929 5.53079  14
  -9   0   4 6.28262 0.99382  10
  -9   0   4 4.74757 2.50041  14
  -8   0   4 114.917 7.15612   9
  -8   0   4 118.570 7.18755  10
  -8   0   4 127.632 12.5286  14
  -7   0   4 0.11874 1.97220  14
  -7   0   4 0.00019 1.00397   9
  -7   0   4 0.30594 0.70524  10
  -6   0   4 250.902 16.6155   3
  -6   0   4 237.427 16.9909   5
  -6   0   4 291.559 16.2197   9
  -6   0   4 294.578 24.6468  14
  -6   0   4 270.335 15.1251  10
  -6   0   4 251.971 16.6792   2
  -6   0   4 292.651 20.6551   8
  -5   0   4 83.7454 5.85316   5
  -5   0   4 88.5125 5.86737   9
  -5   0   4 88.1163 7.07868   8
  -5   0   4 85.3208 5.38799  10
  -5   0   4 81.6038 5.71511   2
  -5   0   4 80.2537 5.44075   3
  -4   0   4 161.160 10.2959   3
  -4   0   4 161.258 10.4426   2
  -4   0   4 172.003 10.5318   5
  -3   0   4 314.441 18.8662   2
  -3   0   4 317.574 18.8827   3
  -3   0   4 338.004 18.9403   5
  -3   0   4 261.954 18.1610   1
   2   0  -4 131.343 8.08357   3
   2   0  -4 126.866 7.89667   1
   2   0  -4 127.178 8.40061   7
   2   0  -4 128.662 8.46211   2
   2   0  -4 130.989 7.85261   1
  -2   0   4 131.693 8.28014   2
  -2   0   4 135.608 8.15123   3
  -2   0   4 125.234 7.85175   1
  -2   0   4 127.310 7.86726   1
  -2   0   4 134.767 8.18510   5
   1   0  -4 262.315 15.9514   1
   1   0  -4 272.270 16.4664   3
   1   0  -4 272.810 16.6222   2
   1   0  -4 291.965 16.9636   7
   1   0  -4 271.681 15.9158   1
  -1   0   4 260.772 16.5216   3
  -1   0   4 263.036 15.9249   1
  -1   0   4 263.873 16.4739   2
  -1   0   4 272.086 16.4277   5
  -1   0   4 260.488 15.9349   1
   0   0  -4 29.6169 1.88966   3
   0   0  -4 28.2774 2.20909   2
   0   0  -4 30.2129 2.43299   7
   0   0  -4 27.9698 1.88888   1
   0   0  -4 29.6183 1.86679   1
   0   0   4 26.3160 1.95081   3
   0   0   4 30.4491 1.90665   1
   0   0   4 29.3554 1.87926   1
   0   0   4 24.0479 2.12974   2
  -1   0  -4 1683.65 97.9815   2
  -1   0  -4 1554.29 95.7376   1
  -1   0  -4 1573.05 95.7094   1
  -1   0  -4 1738.65 100.432   7
  -1   0  -4 1633.10 99.6349   3
   1   0   4 1633.29 95.7384   1
   1   0   4 1631.98 95.7345   1
  -2   0  -4 7.08759 0.57581   1
  -2   0  -4 7.66212 0.85511   2
  -2   0  -4 7.02483 1.01530   4
  -2   0  -4 9.02951 1.26447   7
  -2   0  -4 9.09385 1.37826   6
  -2   0  -4 7.70451 0.55401   3
   2   0   4 7.19997 0.55195   1
  -3   0  -4 111.016 7.71264   6
  -3   0  -4 116.769 7.70312   7
  -4   0  -4 268.471 17.3648   6
  -4   0  -4 271.872 17.3031   7
  -5   0  -4 147.114 10.3988  12
  -5   0  -4 122.095 9.54547   7
  -5   0  -4 135.239 14.3810  14
  -5   0  -4 160.358 10.0067   6
  -5   0  -4 156.287 13.0617  17
  -5   0  -4 139.980 11.3159  15
  -5   0  -4 157.438 12.1309  16
  -5   0  -4 141.530 11.6412  13
  -6   0  -4 695.652 64.3293  14
  -6   0  -4 768.282 54.4976  16
  -6   0  -4 778.044 47.6979  12
  -6   0  -4 773.455 59.2929  17
  -6   0  -4 698.126 46.6308   6
  -6   0  -4 775.661 52.7723  13
  -6   0  -4 747.824 51.3998  15
  -7   0  -4 8.47988 3.02369  15
  -7   0  -4 11.6405 3.74850  14
  -7   0  -4 13.1092 2.95346  16
  -7   0  -4 9.08197 3.05981  13
  -7   0  -4 12.0589 2.35263  12
  -8   0  -4 55.8972 6.37240  13
  -8   0  -4 57.1717 8.04113  14
  -8   0  -4 69.0422 6.59583  15
  -8   0  -4 73.5523 7.00080  16
  -9   0  -4 9.76393 3.16114  14
  -9   0  -4 8.22945 2.76978  15
  -9   1   4 84.1770 5.09492  10
  -9   1   4 86.0728 9.03613  14
  -8   1   4 9.51343 3.04281  14
  -8   1   4 8.46046 1.26611  10
  -8   1   4 9.23944 1.24188   9
  -8   1   4 5.83426 2.44060  15
  -7   1   4 85.3599 5.84651   9
  -7   1   4 88.7781 7.94060  15
  -7   1   4 85.9137 9.44766  14
  -7   1   4 79.9956 5.47179  10
  -6   1   4 161.557 10.6879   6
  -6   1   4 167.395 9.86760   9
  -6   1   4 167.942 9.25957  10
  -6   1   4 169.473 15.2751  14
  -6   1   4 145.552 9.75494   3
  -6   1   4 141.698 9.91095   2
  -6   1   4 146.523 10.2829   5
  -6   1   4 157.629 12.2048   8
  -5   1   4 61.1607 4.10824   3
  -5   1   4 62.5521 4.50604   5
  -5   1   4 61.2776 4.39525   2
  -5   1   4 69.3744 4.81844   6
  -5   1   4 63.5952 5.41129   8
  -5   1   4 63.4858 7.14090  14
  -5   1   4 57.6880 4.10507  10
  -5   1   4 58.0298 4.41920   9
  -4   1   4 165.089 10.5340   5
  -4   1   4 162.870 10.3158   3
  -4   1   4 168.162 10.4783   2
   3  -1  -4 35.1620 2.42054   1
  -3   1   4 39.3787 2.77676   2
  -3   1   4 37.8572 2.48116   3
  -3   1   4 31.6128 2.36731   1
  -3   1   4 41.8838 2.70421   5
   2  -1  -4 228.134 13.2664   1
   2  -1  -4 225.461 13.9064   2
   2  -1  -4 228.034 13.9339   7
   2  -1  -4 210.089 13.2096   1
   2  -1  -4 211.985 13.6496   3
  -2   1   4 240.408 13.6958   5
  -2   1   4 233.499 13.7591   2
  -2   1   4 220.231 13.2233   1
  -2   1   4 211.104 13.2315   1
  -2   1   4 217.939 13.7034   3
   1  -1  -4 7.59184 0.59990   3
   1  -1  -4 7.33501 1.00615   2
   1  -1  -4 6.88725 0.62335   1
   1  -1  -4 7.06130 0.94847   7
   1  -1  -4 6.65466 0.68402   1
  -1   1   4 6.63895 0.65293   3
  -1   1   4 6.35423 0.65837   1
  -1   1   4 7.09527 0.88061   2
  -1   1   4 6.72095 0.60921   1
  -1   1   4 6.93092 0.64525   5
   0  -1  -4 238.556 13.8879   7
   0  -1  -4 216.040 12.9818   1
   0  -1  -4 219.302 12.9568   1
   0  -1  -4 226.752 13.4093   3
   0  -1  -4 219.214 13.4913   2
   0   1   4 196.013 13.3917   2
   0   1   4 199.316 13.4470   3
   0   1   4 230.594 12.9946   1
   0   1   4 226.611 12.9776   1
  -1  -1  -4 471.241 29.7652   3
  -1  -1  -4 443.601 29.3757   2
  -1  -1  -4 534.939 30.3972   7
  -1  -1  -4 492.723 29.4813   2
  -1  -1  -4 473.704 28.6982   1
  -1  -1  -4 518.109 29.7444   3
  -1  -1  -4 467.006 28.6753   1
   1   1   4 506.534 28.7093   1
   1   1   4 495.443 28.6972   1
  -2  -1  -4 36.1642 3.77053   4
  -2  -1  -4 36.8411 2.48908   2
  -2  -1  -4 39.1545 2.38952   1
  -2  -1  -4 43.8240 3.01939   6
  -2  -1  -4 39.2518 2.56721   2
  -2  -1  -4 41.6962 2.46133   3
  -2  -1  -4 41.6559 2.44708   3
  -2  -1  -4 36.7103 2.36542   1
  -2  -1  -4 41.6998 3.02429   7
   2   1   4 38.0529 2.37984   1
   2   1   4 40.3207 2.38368   1
  -3  -1  -4 71.5385 6.79211   4
  -3  -1  -4 75.8022 5.28871   6
  -3  -1  -4 81.1839 5.34692   7
  -4  -1  -4 15.3326 1.51815   5
  -4  -1  -4 16.3204 1.81574   7
  -4  -1  -4 14.8314 1.70139   6
  -4  -1  -4 15.2882 1.87319   4
  -5  -1  -4 414.605 27.6325   5
  -5  -1  -4 472.366 33.2310  16
  -5  -1  -4 452.821 31.9161  13
  -5  -1  -4 441.703 39.2365  14
  -5  -1  -4 419.201 28.4791  18
  -5  -1  -4 439.279 31.2028  15
  -5  -1  -4 487.103 29.1023  12
  -5  -1  -4 470.160 36.1684  17
  -6  -1  -4 102.270 6.72940  11
  -6  -1  -4 89.9623 9.15221  17
  -6  -1  -4 99.1920 8.62794  16
  -6  -1  -4 86.3172 6.99467  18
  -6  -1  -4 100.175 7.55161  12
  -6  -1  -4 81.4508 10.5264  14
  -6  -1  -4 99.6724 8.74539  13
  -6  -1  -4 92.8753 8.49697  15
  -7  -1  -4 86.6934 8.14930  13
  -7  -1  -4 92.3768 6.37736  11
  -7  -1  -4 87.9589 8.02695  15
  -7  -1  -4 84.5929 10.1183  14
  -7  -1  -4 83.0114 7.02338  12
  -7  -1  -4 87.4761 8.23208  16
  -8  -1  -4 67.5413 5.93070  12
  -8  -1  -4 77.2713 7.17570  15
  -8  -1  -4 67.2918 7.45904  13
  -8  -1  -4 65.3736 9.44381  14
  -9  -1  -4 39.7954 5.01879  13
  -9  -1  -4 44.6666 7.14013  14
  -9  -1  -4 53.4078 5.16470  15
  -9   2   4 25.6058 3.99275  14
  -9   2   4 25.0887 1.91776  10
  -9   2   4 26.4503 3.21101  15
  -8   2   4 97.5745 10.3551  14
  -8   2   4 82.5867 7.96649  15
  -8   2   4 91.3889 5.72766   9
  -8   2   4 95.9891 5.83390  10
  -7   2   4 28.0898 2.71556  10
  -7   2   4 28.4547 2.85403   9
  -7   2   4 29.0603 4.32187  15
  -7   2   4 32.7003 4.91296  14
  -6   2   4 17.8015 2.00709   9
  -6   2   4 17.1930 2.03712   8
  -6   2   4 17.8947 3.74798  14
  -6   2   4 13.4538 1.95030   5
  -6   2   4 14.5516 1.69842   2
  -6   2   4 18.4426 2.05136  10
  -6   2   4 16.8432 2.40890   6
  -6   2   4 15.1242 1.32731   3
  -5   2   4 333.842 21.5715   3
  -5   2   4 339.867 21.8917   5
  -5   2   4 353.298 19.4195  10
  -5   2   4 346.663 21.5692   2
  -5   2   4 383.509 22.3563   6
  -5   2   4 348.020 26.8588   8
  -5   2   4 364.161 30.7267  14
  -5   2   4 341.455 20.6879   9
  -4   2   4 2.35581 0.62815   2
  -4   2   4 2.76033 0.44180   3
  -4   2   4 2.09823 0.78402   5
  -3   2   4 175.637 10.4003   3
  -3   2   4 141.492 9.99106   1
  -3   2   4 175.941 10.5325   2
  -3   2   4 181.558 10.5572   5
   2  -2  -4 298.926 17.2690   1
   2  -2  -4 285.512 17.9525   2
   2  -2  -4 286.803 17.8207   3
   2  -2  -4 299.905 17.2418   1
   2  -2  -4 266.482 18.0459   7
  -2   2   4 279.609 17.2184   1
  -2   2   4 291.036 17.2588   1
  -2   2   4 298.221 17.8204   5
  -2   2   4 296.774 17.8719   3
  -2   2   4 306.046 17.8433   2
   1  -2  -4 388.315 22.1422   1
   1  -2  -4 382.998 22.8810   2
   1  -2  -4 382.786 23.2999   7
   1  -2  -4 367.044 22.8973   3
   1  -2  -4 369.717 22.1106   1
  -1   2   4 374.959 22.1142   1
  -1   2   4 385.673 22.7933   2
  -1   2   4 349.024 22.9349   3
  -1   2   4 378.270 22.1425   1
   0  -2  -4 490.183 28.8434   1
   0  -2  -4 511.749 30.4270   7
   0  -2  -4 499.077 29.6932   2
   0  -2  -4 495.013 29.8985   3
   0  -2  -4 501.383 28.8661   1
   0   2   4 507.517 28.8558   1
   0   2   4 464.670 29.6189   2
   0   2   4 504.453 28.8772   1
   0   2   4 444.402 29.9313   3
  -1  -2  -4 3.28536 0.37138   1
  -1  -2  -4 3.36359 0.49449   2
  -1  -2  -4 3.10651 0.83340   7
  -1  -2  -4 3.44520 0.62462   2
  -1  -2  -4 2.19801 0.90358   4
  -1  -2  -4 2.58361 0.33383   3
  -1  -2  -4 3.64497 0.32177   3
  -1  -2  -4 2.93357 0.33025   1
   1   2   4 3.54054 0.39001   1
   1   2   4 3.19456 0.35361   1
  -2  -2  -4 574.143 33.5265   3
  -2  -2  -4 542.233 32.9594   2
  -2  -2  -4 544.978 33.4411   3
  -2  -2  -4 577.887 32.9983   2
  -2  -2  -4 594.126 34.1928   7
  -2  -2  -4 515.614 46.9228   4
  -2  -2  -4 548.727 32.2194   1
  -2  -2  -4 531.097 32.2161   1
   2   2   4 531.446 32.2150   1
   2   2   4 540.508 32.2321   1
  -3  -2  -4 53.7186 3.80618   6
  -3  -2  -4 56.5418 5.05110   4
  -3  -2  -4 51.4099 3.89172   7
  -3  -2  -4 47.8378 3.46466   5
  -4  -2  -4 154.625 10.0132   6
  -4  -2  -4 152.500 13.6176   4
  -4  -2  -4 160.250 10.1851   7
  -4  -2  -4 148.676 9.73917   5
  -5  -2  -4 8.83789 1.48896   6
  -5  -2  -4 10.6718 1.56558   7
  -5  -2  -4 12.2292 3.05891  17
  -5  -2  -4 12.5461 3.37997  14
  -5  -2  -4 12.8218 2.51194  16
  -5  -2  -4 13.6398 2.09285  18
  -5  -2  -4 11.9315 1.69651   4
  -5  -2  -4 13.8696 1.89027  11
  -5  -2  -4 10.5954 1.40917   5
  -5  -2  -4 11.3779 1.99735  12
  -5  -2  -4 13.6570 2.70849  13
  -5  -2  -4 9.97172 2.38309  15
  -6  -2  -4 87.3740 9.41482  17
  -6  -2  -4 95.7249 8.00791  15
  -6  -2  -4 99.4731 7.50636  12
  -6  -2  -4 92.5342 10.6032  14
  -6  -2  -4 98.2851 8.52606  13
  -6  -2  -4 91.1139 8.44613  16
  -6  -2  -4 86.8873 6.89308  18
  -6  -2  -4 95.8703 6.63667  11
  -7  -2  -4 3.46106 2.51024  13
  -7  -2  -4 -1.0868 1.64231  12
  -7  -2  -4 -1.6643 2.05595  15
  -7  -2  -4 -0.1340 2.96957  14
  -7  -2  -4 2.01035 1.45174  11
  -7  -2  -4 1.94342 1.64843  18
  -8  -2  -4 19.9247 3.59099  15
  -8  -2  -4 26.0153 4.51235  13
  -8  -2  -4 26.4712 3.12882  11
  -8  -2  -4 31.9231 5.74028  14
  -8  -2  -4 28.7773 3.56274  12
  -9  -2  -4 36.5679 4.46644  13
  -9  -2  -4 32.3427 5.67980  14
  -9   3   4 20.1147 2.90158  15
  -9   3   4 20.3171 3.42280  14
  -9   3   4 19.3328 1.73604  10
  -8   3   4 85.1591 5.30011  10
  -8   3   4 84.4445 7.52533  15
  -8   3   4 79.6563 5.08456   9
  -8   3   4 80.6582 8.83999  14
  -7   3   4 35.1496 5.70860  14
  -7   3   4 36.1525 4.50488  15
  -7   3   4 34.1615 2.98128  10
  -7   3   4 29.1746 3.06316   9
  -6   3   4 78.5166 5.92846   2
  -6   3   4 94.4639 6.20459   9
  -6   3   4 85.0183 6.60291   6
  -6   3   4 89.4547 5.66803  10
  -6   3   4 96.5618 9.60142  14
  -6   3   4 88.8446 7.25504   8
  -5   3   4 2.81419 0.87045   8
  -5   3   4 4.06167 1.08740   6
  -5   3   4 1.87179 1.85738  14
  -5   3   4 1.66421 1.19690   9
  -5   3   4 2.11322 0.47553   3
  -5   3   4 2.16045 0.78849   2
  -5   3   4 2.91027 0.84690   5
  -5   3   4 3.53998 1.14326  10
  -4   3   4 550.311 34.9847   5
  -4   3   4 565.588 34.8945   3
  -4   3   4 594.266 34.6836   2
  -3   3   4 33.1628 2.13414   3
  -3   3   4 32.1016 2.39946   5
  -3   3   4 34.1155 2.45599   2
  -3   3   4 26.3723 2.03601   1
   2  -3  -4 242.516 14.0066   1
   2  -3  -4 242.978 14.4553   3
   2  -3  -4 232.695 13.9889   1
   2  -3  -4 227.222 14.6112   2
  -2   3   4 237.366 14.4879   3
  -2   3   4 225.075 14.0025   1
  -2   3   4 224.588 13.9548   1
  -2   3   4 248.042 14.5249   2
   1  -3  -4 2850.11 171.788   3
   1  -3  -4 2905.76 172.598   7
   1  -3  -4 2783.79 168.816   2
   1  -3  -4 2841.55 165.062   1
   1  -3  -4 2864.81 165.070   1
  -1   3   4 2777.13 171.325   3
  -1   3   4 2699.09 165.075   1
  -1   3   4 2890.53 168.755   2
  -1   3   4 2757.52 165.131   1
   0  -3  -4 0.27595 0.55929   2
   0  -3  -4 0.17030 0.19435   1
   0  -3  -4 0.35392 0.49639   7
   0  -3  -4 0.13455 0.17338   3
   0  -3  -4 -0.0652 0.20528   1
   0   3   4 0.08128 0.19726   3
   0   3   4 -0.1476 0.17678   1
   0   3   4 0.20624 0.41155   2
   0   3   4 0.24540 0.24384   1
  -1  -3  -4 314.204 19.3720   1
  -1  -3  -4 297.500 28.3214   4
  -1  -3  -4 353.248 20.0826   3
  -1  -3  -4 337.807 20.6394   7
  -1  -3  -4 348.346 19.9783   2
  -1  -3  -4 329.407 19.3767   1
  -1  -3  -4 318.358 20.1296   3
   1   3   4 334.817 19.3749   1
   1   3   4 322.235 19.4015   1
  -2  -3  -4 1.57003 0.22511   1
  -2  -3  -4 2.25476 0.25306   3
  -2  -3  -4 1.66539 0.22691   1
  -2  -3  -4 2.01906 0.81511   7
  -2  -3  -4 2.95281 0.23563   3
  -2  -3  -4 2.00513 0.41943   2
  -2  -3  -4 2.12417 0.80834   4
  -2  -3  -4 1.48491 0.32503   2
   2   3   4 1.19213 0.21165   1
  -3  -3  -4 745.975 64.6463   4
  -3  -3  -4 764.432 45.9495   5
  -3  -3  -4 762.352 46.9721   7
  -4  -3  -4 141.632 9.51471   5
  -4  -3  -4 153.798 13.4926   4
  -4  -3  -4 157.797 10.0183   7
  -5  -3  -4 137.308 10.7657  13
  -5  -3  -4 147.932 12.2680   4
  -5  -3  -4 137.162 9.09066  11
  -5  -3  -4 141.034 9.74357  12
  -5  -3  -4 116.979 10.9866  16
  -5  -3  -4 115.597 12.0069  17
  -5  -3  -4 132.826 9.33921  18
  -6  -3  -4 24.4329 3.80964  13
  -6  -3  -4 27.0686 3.22650   4
  -6  -3  -4 24.0634 4.47459  17
  -6  -3  -4 28.9606 3.36705  18
  -6  -3  -4 24.7664 3.12964  12
  -6  -3  -4 25.7019 4.78202  14
  -6  -3  -4 27.6756 2.84000  11
  -7  -3  -4 12.5045 2.70389  12
  -7  -3  -4 13.5715 2.10582  11
  -7  -3  -4 12.0236 3.68608  14
  -7  -3  -4 12.3799 2.43338  18
  -7  -3  -4 13.4035 3.20699  13
  -8  -3  -4 215.133 13.2576  11
  -8  -3  -4 210.144 14.4731  12
  -8  -3  -4 176.628 19.5433  14
  -8  -3  -4 200.271 15.8785  13
  -9  -3  -4 3.57408 2.73218  13
  -9  -3  -4 0.27203 1.50359  12
  -9  -3  -4 0.14778 2.23103  14
  -9   4   4 38.6142 3.73810  15
  -9   4   4 32.1454 2.23151  10
  -8   4   4 1.25531 1.57857  15
  -8   4   4 0.77984 0.87960  10
  -7   4   4 175.167 10.7338  10
  -7   4   4 192.664 14.3450  15
  -7   4   4 178.871 11.4072   9
  -7   4   4 198.534 17.8931  14
  -6   4   4 12.4960 2.09245   6
  -6   4   4 16.5923 2.28670   9
  -6   4   4 14.6696 1.95719  10
  -6   4   4 13.1043 2.87904  15
  -6   4   4 16.0347 2.37469   8
  -5   4   4 14.6697 1.36872   3
  -5   4   4 19.3286 1.78068   2
  -5   4   4 19.0104 2.14727  10
  -5   4   4 19.7391 2.16133   9
  -5   4   4 19.0921 2.33270   6
  -5   4   4 17.0045 2.23392   8
  -4   4   4 540.556 32.1789   6
  -4   4   4 542.364 31.5403   2
  -4   4   4 489.772 31.6363   3
  -4   4   4 497.894 39.3477   8
  -3   4   4 61.6707 4.14996   2
  -3   4   4 56.9432 3.83099   3
   2  -4  -4 637.858 41.4996   1
   2  -4  -4 730.245 43.0171   3
   2  -4  -4 732.004 42.7597   2
  -2   4   4 788.444 42.6849   2
  -2   4   4 703.241 43.0403   3
  -2   4   4 648.282 41.4487   1
   1  -4  -4 38.0238 2.82889   2
   1  -4  -4 39.1575 2.47245   1
   1  -4  -4 36.8543 2.47026   1
   1  -4  -4 41.1775 2.51994   3
  -1   4   4 37.1061 2.53554   3
  -1   4   4 39.0300 2.76783   2
  -1   4   4 36.6550 2.49037   1
  -1   4   4 36.2096 2.44013   1
   0  -4  -4 427.453 23.1956   2
   0  -4  -4 416.236 23.2426   3
   0  -4  -4 408.481 22.4322   1
   0  -4  -4 356.378 22.4189   1
   0  -4  -4 320.364 32.6378   4
   0   4   4 389.992 22.4168   1
   0   4   4 340.987 22.4323   1
  -1  -4  -4 292.551 27.7348   4
  -1  -4  -4 317.828 18.9434   1
  -1  -4  -4 331.148 20.2515   7
  -1  -4  -4 347.719 19.6469   3
  -1  -4  -4 346.398 19.5688   2
   1   4   4 293.499 18.9329   1
  -2  -4  -4 305.319 20.2104   7
  -2  -4  -4 328.546 19.4184   2
  -2  -4  -4 307.261 27.7450   4
  -2  -4  -4 334.461 19.5616   3
  -3  -4  -4 1.37722 0.32798   2
  -3  -4  -4 1.43397 0.16671   3
  -3  -4  -4 1.51872 0.76516   4
  -3  -4  -4 0.99522 0.27863   2
  -3  -4  -4 1.47735 0.16972   3
  -4  -4  -4 5.10399 1.37220   4
  -5  -4  -4 222.074 12.6110  10
  -5  -4  -4 257.760 21.0767   4
  -5  -4  -4 260.681 16.2723  12
  -5  -4  -4 226.520 15.1715  11
  -5  -4  -4 236.653 17.5383  13
  -5  -4  -4 215.653 20.2219  17
  -5  -4  -4 246.318 15.8079  18
  -6  -4  -4 18.9518 2.93562   4
  -6  -4  -4 13.4888 3.76477  17
  -6  -4  -4 22.8485 2.78055  11
  -6  -4  -4 17.2239 3.38548  13
  -6  -4  -4 18.0466 2.88767  12
  -6  -4  -4 21.6583 2.94241  18
  -7  -4  -4 205.339 13.9907  12
  -7  -4  -4 199.998 13.2606  18
  -7  -4  -4 184.309 12.7893  11
  -7  -4  -4 177.791 15.0343  13
  -8  -4  -4 20.9767 3.15602  12
  -8  -4  -4 19.1600 2.75943  11
  -8  -4  -4 20.8522 3.77457  13
  -9  -4  -4 69.6248 7.12146  13
  -9  -4  -4 65.2585 6.07744  12
  -9   5   4 1.25760 1.06991  15
  -9   5   4 4.35724 0.62915  10
  -8   5   4 53.0245 5.27785  15
  -8   5   4 43.1264 3.17811  10
  -7   5   4 15.9231 2.82050  15
  -7   5   4 13.3656 1.83219  10
  -7   5   4 10.7016 1.79050   9
  -6   5   4 3.18001 1.22943  10
  -6   5   4 3.68947 1.29558   8
  -6   5   4 3.96473 2.08981  15
  -6   5   4 2.44927 1.26955   6
  -6   5   4 4.68579 1.55948   9
  -5   5   4 781.061 44.5825  10
  -5   5   4 817.407 50.3865   3
  -5   5   4 844.024 50.0640   2
  -5   5   4 795.527 51.0352   6
  -5   5   4 884.103 47.7373   9
  -4   5   4 79.2681 5.40562   2
  -4   5   4 76.6273 5.00614   3
  -4   5   4 74.5811 5.62740   9
  -4   5   4 77.0611 5.56381   6
  -4   5   4 74.7813 6.71902   8
  -3   5   4 377.056 22.4733   6
  -3   5   4 362.421 22.0733   2
  -3   5   4 338.743 22.0099   3
  -2   5   4 148.467 9.00979   2
  -2   5   4 133.895 8.75713   3
   1  -5  -4 24.8601 2.04146   2
   1  -5  -4 26.5546 1.57833   3
   1  -5  -4 18.9673 2.65455   4
   1  -5  -4 20.5972 1.51793   1
  -1   5   4 17.4000 1.53442   1
   0  -5  -4 262.816 25.0392   4
   0  -5  -4 270.383 17.0886   1
   0  -5  -4 317.644 17.7966   2
   0  -5  -4 305.412 17.7259   3
  -1  -5  -4 84.7568 5.31690   2
  -1  -5  -4 82.0261 5.10225   3
  -1  -5  -4 76.0571 7.59531   4
  -2  -5  -4 419.133 36.1165   4
  -2  -5  -4 421.658 25.3519   2
  -2  -5  -4 414.258 25.5391   3
  -3  -5  -4 45.8576 3.07210   2
  -3  -5  -4 44.5775 2.89579   3
  -3  -5  -4 50.4658 4.90208   4
  -4  -5  -4 282.454 17.9741  11
  -4  -5  -4 279.030 18.5579  18
  -4  -5  -4 304.201 19.2451  12
  -4  -5  -4 307.506 25.1491   4
  -4  -5  -4 241.409 23.6933  17
  -4  -5  -4 286.318 15.4111  10
  -5  -5  -4 17.6282 2.64504  18
  -5  -5  -4 18.2866 2.64671   4
  -5  -5  -4 17.6130 1.33797  10
  -5  -5  -4 14.9371 2.60768  12
  -5  -5  -4 15.1895 3.57775  17
  -5  -5  -4 18.3643 2.51168  11
  -5  -5  -4 19.5378 3.26983  13
  -6  -5  -4 110.647 7.73723  11
  -6  -5  -4 101.950 9.07610  13
  -6  -5  -4 113.741 7.94646  18
  -6  -5  -4 110.225 8.64639  12
  -6  -5  -4 91.5050 10.0100   4
  -7  -5  -4 13.1641 2.41133  11
  -7  -5  -4 17.7692 2.59707  18
  -7  -5  -4 10.1172 2.67555  12
  -7  -5  -4 13.5342 3.15439  13
  -8  -5  -4 12.3420 3.50057  13
  -8  -5  -4 11.8823 2.46538  12
  -8  -5  -4 13.2098 2.31884  11
  -9  -5  -4 52.6742 5.49647  13
  -9  -5  -4 45.0208 4.62778  12
  -8   6   4 47.3953 4.25306  15
  -8   6   4 37.6646 2.86058  10
  -7   6   4 9.99397 1.66251  10
  -7   6   4 11.7847 1.72176   9
  -7   6   4 12.3502 2.32589  15
  -6   6   4 46.9788 4.20350   8
  -6   6   4 42.0535 3.52029  10
  -6   6   4 52.6218 4.97532  15
  -6   6   4 47.1952 4.24201   9
  -5   6   4 105.269 8.12579   6
  -5   6   4 116.264 7.34573  10
  -5   6   4 105.481 7.91309   2
  -5   6   4 118.291 8.18151   9
  -5   6   4 129.591 9.63723  15
  -5   6   4 134.922 10.1564   8
  -4   6   4 336.981 20.5553   6
  -4   6   4 331.349 20.1721   2
  -4   6   4 326.324 19.5816   9
  -4   6   4 300.743 19.8961   3
  -3   6   4 17.5484 1.96085   2
  -3   6   4 19.1182 1.87211   6
  -3   6   4 16.6022 2.48602   8
  -3   6   4 17.9062 1.45859   3
   2  -6  -4 74.6364 7.92783   4
  -2   6   4 93.7668 5.81727   6
   1  -6  -4 731.191 41.7441   2
   1  -6  -4 665.366 41.9580   3
   1  -6  -4 600.648 58.7230   4
  -1   6   4 755.485 42.2800   6
   0  -6  -4 329.846 19.7455   2
   0  -6  -4 338.162 19.7039   3
   0  -6  -4 289.817 27.7987   4
  -1  -6  -4 466.381 41.8260   4
  -1  -6  -4 487.766 29.5530   2
  -1  -6  -4 500.473 29.7246   3
  -2  -6  -4 72.3803 6.93343   4
  -2  -6  -4 66.0227 4.68495   2
  -2  -6  -4 72.9204 4.50141   3
  -3  -6  -4 278.496 16.4045   3
  -3  -6  -4 265.564 16.3924   2
  -3  -6  -4 285.021 23.6144   4
  -3  -6  -4 275.340 18.2114  12
  -3  -6  -4 258.486 14.6142  10
  -3  -6  -4 241.563 15.6131   9
  -4  -6  -4 60.2959 3.57873  10
  -4  -6  -4 58.5049 4.66398  11
  -4  -6  -4 59.7596 5.33013  12
  -4  -6  -4 56.8696 5.87269   4
  -4  -6  -4 55.8128 3.66828   2
  -4  -6  -4 57.9243 4.92513  18
  -4  -6  -4 55.7471 3.52421   3
  -4  -6  -4 53.9537 3.62505   9
  -4  -6  -4 52.2532 5.71012  13
  -5  -6  -4 101.717 8.80038  13
  -5  -6  -4 93.6155 5.80355  10
  -5  -6  -4 106.595 7.84677  18
  -5  -6  -4 99.5091 9.86910   4
  -5  -6  -4 110.108 7.35052  11
  -5  -6  -4 108.857 8.62839  12
  -6  -6  -4 116.544 8.66053  18
  -6  -6  -4 116.818 9.42588  12
  -6  -6  -4 111.937 10.1986  13
  -6  -6  -4 105.699 10.9512   4
  -6  -6  -4 122.097 8.30960  11
  -6  -6  -4 111.700 6.26172  10
  -7  -6  -4 20.7554 3.51407  12
  -7  -6  -4 30.0767 3.36664  11
  -7  -6  -4 27.6436 4.60874  13
  -8  -6  -4 69.1216 6.31031  12
  -8  -6  -4 75.1470 5.50244  11
  -8  -6  -4 69.5009 7.12675  13
  -9  -6  -4 1.64647 1.72501  13
  -9  -6  -4 1.15688 1.39350  12
  -8   7   4 7.38541 1.58873  15
  -8   7   4 6.01516 0.92305  10
  -7   7   4 22.1239 2.22010  10
  -7   7   4 27.5381 3.23673  15
  -7   7   4 25.7382 2.52311   9
  -6   7   4 1.38642 1.15351   9
  -6   7   4 2.52038 2.12739  16
  -6   7   4 1.66439 1.12828  10
  -6   7   4 0.67643 1.57344  15
  -5   7   4 1.76912 1.20410  15
  -5   7   4 1.28642 1.42073   8
  -5   7   4 1.39608 1.24388  10
  -5   7   4 1.09472 1.51240   9
  -4   7   4 1.77193 1.03273   2
  -4   7   4 2.48658 0.55624   3
  -4   7   4 1.01399 0.99680   6
  -4   7   4 4.32739 1.64373  15
  -4   7   4 5.23906 2.08702   8
  -4   7   4 2.14026 1.22241   9
  -3   7   4 291.399 20.6804   6
  -3   7   4 375.832 26.3370   8
   2  -7  -4 146.701 14.1267   4
  -2   7   4 167.187 10.3029   6
   1  -7  -4 36.4849 4.09571   4
   0  -7  -4 961.930 55.3913   2
   0  -7  -4 889.151 55.8175   3
   0  -7  -4 896.156 78.1081   4
  -1  -7  -4 93.4799 5.88676   3
  -1  -7  -4 98.1391 8.83465   4
  -1  -7  -4 84.4991 7.75637   8
  -2  -7  -4 208.381 17.0351   8
  -2  -7  -4 244.496 19.6206   4
  -2  -7  -4 225.959 13.5600   3
  -2  -7  -4 225.966 13.6953   2
  -2  -7  -4 213.867 13.1599   9
  -2  -7  -4 215.625 12.2079  10
  -2  -7  -4 193.608 13.9018  11
  -3  -7  -4 241.113 16.8862  12
  -3  -7  -4 237.633 15.0371   2
  -3  -7  -4 259.151 21.6567   4
  -3  -7  -4 233.434 15.4451  11
  -3  -7  -4 239.491 16.0720  18
  -3  -7  -4 254.852 13.4852  10
  -3  -7  -4 231.771 14.4013   9
  -4  -7  -4 31.2628 2.47791   2
  -4  -7  -4 34.5904 4.27923   4
  -4  -7  -4 36.9810 4.83349  13
  -4  -7  -4 37.6578 3.53894  18
  -4  -7  -4 30.3049 2.63013   9
  -4  -7  -4 34.7274 3.41479  11
  -4  -7  -4 34.3710 2.24216   3
  -4  -7  -4 32.3624 4.16337  12
  -4  -7  -4 38.9644 2.55754  10
  -5  -7  -4 168.295 16.1824   4
  -5  -7  -4 175.203 13.0723  12
  -5  -7  -4 178.649 14.3151  13
  -5  -7  -4 183.583 11.8265  11
  -5  -7  -4 171.142 9.91832  10
  -5  -7  -4 189.884 12.3855  18
  -6  -7  -4 2.35644 2.09784  13
  -6  -7  -4 2.75393 1.80137  12
  -6  -7  -4 2.85438 1.26748  11
  -6  -7  -4 3.60121 0.67698  10
  -7  -7  -4 13.6472 2.03129  11
  -7  -7  -4 11.3532 2.54940  12
  -7  -7  -4 13.4451 3.54175  13
  -8  -7  -4 0.84379 1.04686  11
  -8  -7  -4 -0.5400 1.38063  12
  -8  -7  -4 0.59925 1.73762  13
  -9  -7  -4 28.4427 3.01150  12
  -7   8   4 35.4403 2.55521  10
  -7   8   4 24.6559 3.11016  15
  -7   8   4 32.5702 2.47483   9
  -6   8   4 14.3412 2.43959  15
  -6   8   4 13.4739 2.20669   9
  -6   8   4 18.8067 2.09711  10
  -6   8   4 9.47156 2.33803  16
  -5   8   4 95.9496 7.90662  15
  -5   8   4 94.2365 7.06307   9
  -5   8   4 101.556 8.54097   8
  -4   8   4 2.44450 1.83000   8
  -4   8   4 3.02804 1.87580   9
  -3   8   4 138.993 12.1784   8
  -2   8   4 8.72762 2.65949   8
   1  -8  -4 491.173 38.0907   8
   0  -8  -4 155.524 13.3818   4
   0  -8  -4 139.833 9.18950   3
   0  -8  -4 143.979 12.1325   8
  -1  -8  -4 226.286 18.7864   4
  -1  -8  -4 215.455 16.6580   8
  -1  -8  -4 208.226 13.2625   2
  -1  -8  -4 208.473 13.0226   3
  -1  -8  -4 196.015 12.7913   9
  -1  -8  -4 196.698 11.8198  10
  -2  -8  -4 279.639 18.2427   3
  -2  -8  -4 313.663 26.1167   4
  -2  -8  -4 306.284 17.6887   9
  -2  -8  -4 280.460 22.8244   8
  -2  -8  -4 290.104 16.3713  10
  -2  -8  -4 307.602 20.1701  12
  -2  -8  -4 304.122 18.4035   2
  -3  -8  -4 1.31120 1.11420  11
  -3  -8  -4 2.29419 1.33201  12
  -3  -8  -4 0.72051 0.75046   9
  -3  -8  -4 -0.2656 1.06229   4
  -3  -8  -4 0.33699 0.67446   2
  -3  -8  -4 1.04407 0.63964  10
  -3  -8  -4 0.97203 0.30915   3
  -4  -8  -4 331.312 16.6610  10
  -4  -8  -4 275.360 26.5738   4
  -4  -8  -4 319.245 20.7731  12
  -4  -8  -4 296.846 18.9700  11
  -4  -8  -4 295.414 17.6960   9
  -4  -8  -4 287.483 22.4507  13
  -5  -8  -4 8.75341 3.02549  13
  -5  -8  -4 10.5981 1.35112  10
  -5  -8  -4 13.2558 2.70659  12
  -5  -8  -4 10.6858 1.96284  11
  -6  -8  -4 66.1252 6.94789  13
  -6  -8  -4 69.8462 4.26797  10
  -6  -8  -4 66.8961 6.33505  12
  -6  -8  -4 73.2928 5.55376  11
  -7  -8  -4 18.2876 3.12460  12
  -7  -8  -4 25.4111 2.60006  11
  -7  -8  -4 23.8305 3.94732  13
  -8  -8  -4 -0.4047 1.29501  12
  -8  -8  -4 0.54632 1.41314  13
  -6   9   4 76.0183 5.17584   9
  -6   9   4 69.5958 4.67347  10
  -6   9   4 67.3264 6.43381  16
  -5   9   4 20.2833 2.50967   8
  -5   9   4 16.9271 2.68868   9
  -4   9   4 179.225 12.0976   9
  -4   9   4 181.822 15.0627   8
  -3   9   4 -0.0736 1.68084   8
  -2   9   4 87.5871 8.54655   8
   1  -9  -4 129.482 11.2689   8
   0  -9  -4 62.4302 5.07643   9
   0  -9  -4 61.5720 6.08418   8
  -1  -9  -4 138.722 9.64196   2
  -1  -9  -4 135.699 9.22690   3
  -1  -9  -4 155.200 12.1205   8
  -1  -9  -4 169.144 9.73594   9
  -2  -9  -4 1.10614 0.93720   9
  -2  -9  -4 -0.1353 1.00614   4
  -2  -9  -4 -0.2565 0.87821   8
  -2  -9  -4 1.06562 1.66639  12
  -2  -9  -4 0.13927 0.88072  10
  -3  -9  -4 304.016 15.7662  10
  -3  -9  -4 291.182 19.3696  12
  -3  -9  -4 303.487 16.9054   9
  -3  -9  -4 236.911 24.7588   4
  -4  -9  -4 1.64091 0.92492  10
  -4  -9  -4 -0.8947 1.57888  13
  -4  -9  -4 0.62952 1.03657   9
  -4  -9  -4 -0.2181 1.39836  12
  -5  -9  -4 44.7475 4.57701  12
  -5  -9  -4 30.0981 4.68559  13
  -5  -9  -4 40.2254 2.84229  10
  -5  -9  -4 33.6794 3.23632  11
  -6  -9  -4 28.7337 1.99792  10
  -6  -9  -4 27.2358 3.41769  12
  -6  -9  -4 22.9696 2.51943  11
  -6  -9  -4 24.0772 3.78289  13
  -7  -9  -4 3.63106 1.38279  12
  -7  -9  -4 4.72467 2.33378  13
  -6  10   4 15.5584 1.57345  10
  -6  10   4 6.84712 1.47105  16
  -6  10   4 9.66788 1.16438   9
  -5  10   4 50.9311 4.24177   9
  -5  10   4 42.2390 4.73190  16
  -4  10   4 39.5384 4.17594   8
  -4  10   4 42.1414 4.04180   9
  -3  10   4 5.61859 2.21470   8
   2 -10  -4 29.6990 3.80984   8
  -2  10   4 29.6423 4.57163   8
   1 -10  -4 6.69873 1.87561   8
   0 -10  -4 142.958 12.3704   8
   0 -10  -4 153.530 9.97177   9
  -1 -10  -4 21.9874 2.82207   9
  -1 -10  -4 20.3293 2.95140   8
  -2 -10  -4 246.668 16.7869  12
  -2 -10  -4 243.892 14.7194   9
  -2 -10  -4 241.698 13.6297  10
  -2 -10  -4 229.743 18.5056   8
  -3 -10  -4 44.1210 3.25771  10
  -3 -10  -4 46.9965 4.71041  12
  -3 -10  -4 42.7866 3.77655   9
  -4 -10  -4 4.72548 1.19156  10
  -4 -10  -4 3.73021 2.26708  13
  -4 -10  -4 1.18846 2.07980  12
  -4 -10  -4 4.13876 1.14309   9
  -5 -10  -4 141.139 7.63971  10
  -5 -10  -4 133.663 9.95105  12
  -5 -10  -4 115.244 10.4095  13
  -6 -10  -4 4.24585 1.62541  13
  -6 -10  -4 4.84740 0.67805  10
  -6 -10  -4 5.03887 1.57560  12
  -7 -10  -4 39.0864 3.38901  12
  -5  11   4 73.1156 4.57758   9
  -5  11   4 55.9204 5.44233  16
  -4  11   4 22.7151 2.69101   9
  -4  11   4 18.3243 2.90037  16
  -4  11   4 21.0714 2.18819   8
   3 -11  -4 76.9636 6.72051   8
  -3  11   4 60.8943 6.46306   8
   2 -11  -4 3.93484 1.77651   8
  -2  11   4 2.05364 2.10874   8
   1 -11  -4 50.1099 4.78200   8
  -1  11   4 36.1585 5.55736   8
   0 -11  -4 5.37751 1.87117   9
   0 -11  -4 3.94999 1.38742   8
  -1 -11  -4 143.630 12.2462   8
  -1 -11  -4 157.824 11.3599  12
  -1 -11  -4 164.397 10.0970   9
  -2 -11  -4 41.3444 3.29959  10
  -2 -11  -4 34.0373 4.04356  12
  -2 -11  -4 41.4547 3.49700   9
  -3 -11  -4 44.9390 3.48276  10
  -3 -11  -4 45.8261 3.69348   9
  -3 -11  -4 47.7437 4.93081  12
  -4 -11  -4 567.676 36.6900  12
  -4 -11  -4 562.744 32.4154   9
  -4 -11  -4 583.454 30.8351  10
  -5 -11  -4 -0.6153 1.03467  12
  -5 -11  -4 0.24500 0.48724  10
   3 -12  -4 4.67292 1.21479   8
  -3  12   4 4.30809 1.07196   8
  -3  12   4 5.16651 1.52789  16
  -3  12   4 5.83057 1.50095   9
   2 -12  -4 34.4794 3.35397   8
  -2  12   4 25.8865 3.41004   8
   1 -12  -4 32.5960 3.31260   8
   1 -12  -4 35.7772 3.73973  12
  -1  12   4 23.5413 3.92154   8
   0 -12  -4 17.4817 2.37101  12
   0 -12  -4 18.6210 2.32260   9
   0 -12  -4 13.9242 1.89436   8
  -1 -12  -4 59.3599 4.83782   8
  -1 -12  -4 65.4953 5.22501  12
  -1 -12  -4 61.4350 4.53559   9
  -2 -12  -4 9.46639 1.78771  12
  -2 -12  -4 9.41653 1.63720   9
  -3 -12  -4 84.4932 4.87522  10
  -3 -12  -4 77.8445 4.95693   9
  -3 -12  -4 74.7176 6.03783  12
  -4 -12  -4 12.6248 1.77412  12
  -1  13   4 1.82109 1.04770   8
  -2 -13  -4 20.7486 1.75507   9
   2   9  -5 11.7082 1.71742   8
  -2  -9   5 18.1063 1.78321   8
   1   9  -5 2.57061 0.70010   8
   1   9  -5 3.11590 1.45086  17
  -1  -9   5 4.34439 1.07004   8
   0   9  -5 58.2150 5.76380  17
   0   9  -5 55.8714 4.37689   9
  -1   9  -5 12.4099 2.27057  17
  -1   9  -5 10.3808 1.47799   9
   4   8  -5 43.2780 4.58071   8
  -3  -8   5 43.6580 3.96809   8
   2   8  -5 21.2157 3.10919   8
   2   8  -5 9.76849 2.43763  17
  -2  -8   5 21.9857 2.46388   8
   1   8  -5 16.9371 3.10376   9
   1   8  -5 17.5036 2.65240   8
   1   8  -5 14.1099 3.37195  17
  -1  -8   5 20.3067 3.01540   8
   0   8  -5 15.5938 3.47583  17
   0   8  -5 13.2587 2.71695   9
   0   8  -5 19.1926 2.50200   8
  -1   8  -5 1.32934 1.77798   9
  -1   8  -5 0.01479 1.52386  17
  -2   8  -5 36.1142 3.12371  10
  -2   8  -5 36.6027 3.23320   9
  -2   8  -5 41.2614 4.81163  17
  -3   8  -5 -0.2004 0.73333  10
  -3   8  -5 -0.9330 1.29470  17
  -3   8  -5 0.44564 0.51992   9
  -4   8  -5 5.83157 1.51438  17
  -4   8  -5 8.02175 0.95952  10
  -4  -7   5 189.811 10.8543   9
  -4  -7   5 151.648 12.4849  13
  -4  -7   5 159.900 12.9278   8
   3   7  -5 126.672 13.3635   8
  -3  -7   5 155.443 11.9781  13
  -3  -7   5 165.019 12.5125   8
   2   7  -5 1.57344 1.68645   8
  -2  -7   5 2.95133 1.57516   8
   1   7  -5 103.301 9.81074   8
   0   7  -5 63.7453 6.42867   8
   0   7  -5 59.3158 5.52653   9
  -1   7  -5 28.8432 3.59527   9
  -1   7  -5 30.9268 3.38350   8
  -1   7  -5 28.8060 4.89170  17
  -2   7  -5 4.96616 2.92872  17
  -2   7  -5 8.07491 2.21706   9
  -2   7  -5 8.12284 1.57774  10
  -3   7  -5 14.3531 1.96082  10
  -3   7  -5 15.3397 2.08676   9
  -3   7  -5 15.9140 3.39269  17
  -4   7  -5 72.3489 6.76533  16
  -4   7  -5 81.1550 7.82324  17
  -4   7  -5 79.2442 5.06864  10
  -5   7  -5 3.45709 1.39345  17
  -5   7  -5 1.99925 1.19885  16
  -5   7  -5 3.77564 0.74950  10
  -6  -6   5 36.7462 2.96272   9
  -6  -6   5 39.3218 4.71304  14
  -5  -6   5 3.93941 1.73431   9
  -5  -6   5 3.21404 0.88199   8
  -4  -6   5 23.0628 3.46393  13
  -4  -6   5 33.8896 3.59076   8
  -4  -6   5 30.3008 3.35604   9
   3   6  -5 39.3852 5.45832   8
  -3  -6   5 41.7410 4.40185   8
   2   6  -5 79.0217 8.81574   8
  -2  -6   5 83.8554 7.79417   8
   1   6  -5 34.1385 4.72347   8
   0   6  -5 34.8291 4.39746   9
   0   6  -5 35.8082 4.97503   8
  -1   6  -5 96.3445 8.53405   8
  -1   6  -5 92.1772 7.15223   9
  -1   6  -5 88.8670 6.40412  10
  -2   6  -5 13.3438 3.43577  17
  -2   6  -5 12.7026 2.59409   9
  -2   6  -5 10.9783 2.10914  10
  -3   6  -5 28.1484 5.03080  17
  -3   6  -5 30.4695 3.08689  10
  -3   6  -5 20.9934 3.56499  16
  -3   6  -5 28.3436 2.91622   9
  -4   6  -5 8.13700 2.26579  16
  -4   6  -5 9.99283 3.43263  17
  -4   6  -5 7.47208 1.60145  10
  -5   6  -5 99.3314 6.03905  10
  -5   6  -5 117.735 10.2292  17
  -5   6  -5 93.6234 8.80226  16
  -6   6  -5 0.23637 1.36294  16
  -7  -5   5 88.7844 5.29865   9
  -7  -5   5 85.5471 8.58340  14
  -7  -5   5 80.3602 5.19264  10
  -6  -5   5 0.01514 1.27151   9
  -6  -5   5 1.60135 2.08856  14
  -6  -5   5 -1.7230 0.64845  10
  -5  -5   5 55.7103 4.64370   9
  -5  -5   5 57.3099 5.15233   8
  -4  -5   5 2.78173 1.49905   8
  -4  -5   5 2.20072 1.80448   9
  -3  -5   5 1.10797 1.00806   8
   2   5  -5 45.6809 4.66022   7
   2   5  -5 54.8958 6.75624   8
  -2  -5   5 52.0354 4.19935   5
   1   5  -5 22.9593 3.98952   8
   1   5  -5 17.9479 2.83868   7
   0   5  -5 75.5768 6.37843   2
   0   5  -5 80.2164 5.41235   3
   0   5  -5 97.0120 8.57519   8
   0   5  -5 82.2635 7.06969   9
   0   5  -5 83.4709 6.74503   7
  -1   5  -5 73.6097 6.23859   2
  -1   5  -5 84.5508 6.09711  10
  -1   5  -5 87.2854 7.12483   7
  -1   5  -5 85.5695 6.68876   9
  -1   5  -5 97.7084 8.25672   8
  -2   5  -5 112.249 7.23163  10
  -2   5  -5 103.553 11.3010  17
  -2   5  -5 116.108 8.04100   9
  -2   5  -5 109.523 8.93020   8
  -2   5  -5 95.5389 8.15137   7
  -3   5  -5 3.40119 1.72188   9
  -3   5  -5 4.24819 2.25974  16
  -3   5  -5 2.93462 1.16321  10
  -3   5  -5 2.21354 2.92857  17
  -4   5  -5 83.0214 8.18413  16
  -4   5  -5 73.4636 5.12043   9
  -4   5  -5 80.0197 5.39506  10
  -4   5  -5 85.0100 9.41659  17
  -5   5  -5 10.4889 1.50679  10
  -5   5  -5 8.98260 2.54194  15
  -5   5  -5 16.3487 4.03454  17
  -5   5  -5 13.4383 2.99527  16
  -6   5  -5 25.1134 4.07001  16
  -6   5  -5 29.6500 3.74323  15
  -7   5  -5 29.4744 3.63512  16
  -7   5  -5 26.2601 2.93453  15
  -8  -4   5 31.4449 4.19768  14
  -8  -4   5 31.5365 2.27144  10
  -7  -4   5 20.9814 2.13093   9
  -7  -4   5 26.7844 2.53377  10
  -7  -4   5 32.2293 4.68663  14
  -6  -4   5 67.8241 8.17890  14
  -6  -4   5 54.1969 4.38569   8
  -6  -4   5 58.7334 4.66780   9
  -6  -4   5 47.7607 3.87842  10
  -5  -4   5 24.7122 2.88050   9
  -5  -4   5 18.8780 2.49257   8
  -4  -4   5 50.0549 4.37766   5
  -4  -4   5 64.0983 5.70186   8
  -3  -4   5 364.048 22.6759   5
  -3  -4   5 356.959 28.2042   8
   2   4  -5 94.0270 9.97007   8
   2   4  -5 98.0878 7.57816   7
  -2  -4   5 103.287 6.89330   5
   1   4  -5 105.833 10.1076   8
   1   4  -5 103.716 7.84532   7
   0   4  -5 8.03157 1.82426   2
   0   4  -5 9.64171 2.44169   8
   0   4  -5 9.29649 2.11972   7
   0   4  -5 10.6066 1.02607   3
   0   4  -5 10.0542 2.57850   9
  -1   4  -5 285.588 17.5625   3
  -1   4  -5 274.664 17.7050   9
  -1   4  -5 305.671 22.7833   8
  -1   4  -5 263.760 16.2654  10
  -1   4  -5 290.013 19.0014   7
  -1   4  -5 278.813 18.1172   2
  -2   4  -5 20.6430 3.33720  16
  -2   4  -5 20.0295 2.82117   7
  -2   4  -5 20.0763 2.73479   8
  -2   4  -5 17.5464 2.31719   2
  -2   4  -5 17.6058 3.92609  17
  -2   4  -5 18.3486 2.34210  10
  -2   4  -5 20.6659 2.88139   9
  -2   4  -5 20.1477 1.51651   3
  -3   4  -5 62.8516 5.49461   7
  -3   4  -5 57.2387 5.84155  15
  -3   4  -5 61.8181 4.59696  10
  -3   4  -5 66.7512 8.02915  17
  -3   4  -5 63.3073 4.94738   9
  -3   4  -5 57.0438 4.51332   2
  -3   4  -5 64.5532 6.82523  16
  -4   4  -5 128.551 10.7731  15
  -4   4  -5 150.967 8.29550  10
  -4   4  -5 125.243 8.16655   9
  -4   4  -5 119.789 9.45150   6
  -4   4  -5 138.867 13.3821  17
  -4   4  -5 150.561 12.2280  16
  -5   4  -5 116.268 10.4412  16
  -5   4  -5 113.424 11.3192  17
  -5   4  -5 110.960 6.78916  10
  -5   4  -5 105.604 9.63164  15
  -6   4  -5 64.6610 3.63834  10
  -6   4  -5 57.4412 6.99695  17
  -6   4  -5 61.3187 6.42088  15
  -6   4  -5 64.1709 7.30008  16
  -7   4  -5 -0.0051 1.65719  16
  -7   4  -5 1.57458 1.51030  15
  -8   4  -5 6.37994 1.94691  16
  -8   4  -5 24.7740 2.43435  15
  -8  -3   5 1.44141 0.72115  10
  -8  -3   5 1.56476 1.97801  14
  -7  -3   5 2.22449 0.95077   9
  -7  -3   5 0.76812 0.79117  10
  -7  -3   5 1.91069 2.29227  14
  -6  -3   5 44.8858 6.37397  14
  -6  -3   5 37.8476 3.53686   8
  -6  -3   5 35.3399 3.44017   9
  -6  -3   5 41.2042 3.47315  10
  -5  -3   5 99.8186 8.38554   8
  -5  -3   5 93.9562 6.83891   9
  -4  -3   5 207.877 16.0257   8
  -4  -3   5 189.993 12.8156   5
  -3  -3   5 68.0403 4.98470   5
  -3  -3   5 73.7812 6.61444   8
   2   3  -5 166.915 11.7163   7
  -2  -3   5 175.609 11.0982   5
   1   3  -5 30.9000 3.24192   2
   1   3  -5 35.4195 2.40049   3
   1   3  -5 35.3612 3.49824   7
   1   3  -5 30.8516 4.61893   8
   0   3  -5 204.598 14.3273   2
   0   3  -5 221.154 14.9858   7
   0   3  -5 212.872 18.2719   8
   0   3  -5 243.820 13.9348   3
  -1   3  -5 134.122 9.36189  10
  -1   3  -5 151.373 10.3666   9
  -1   3  -5 154.955 13.0316   8
  -1   3  -5 166.902 10.4630   2
  -1   3  -5 171.093 9.86966   3
  -1   3  -5 150.557 10.8754   7
  -2   3  -5 143.134 8.26429   3
  -2   3  -5 125.116 10.5289   8
  -2   3  -5 125.268 10.9025  16
  -2   3  -5 136.187 9.49854   7
  -2   3  -5 129.254 12.3916  17
  -2   3  -5 136.770 8.83098   9
  -2   3  -5 134.559 8.76927   2
  -2   3  -5 120.046 10.4287  15
  -2   3  -5 119.708 7.99063  10
  -3   3  -5 202.155 13.4830   6
  -3   3  -5 202.329 12.3008   9
  -3   3  -5 193.330 12.5882   2
  -3   3  -5 197.814 16.1218  16
  -3   3  -5 205.048 17.6743  17
  -3   3  -5 191.728 13.5311   7
  -3   3  -5 195.820 11.5532  10
  -3   3  -5 199.387 15.1418  15
  -3   3  -5 203.663 12.3308   3
  -4   3  -5 1.73085 0.48753   2
  -4   3  -5 2.74928 1.99653  17
  -4   3  -5 2.03113 0.71877   9
  -4   3  -5 0.18295 1.18904   6
  -4   3  -5 1.72706 0.23509   3
  -4   3  -5 2.09305 0.99081  10
  -4   3  -5 2.10780 1.06661   7
  -4   3  -5 1.09108 2.07857  16
  -4   3  -5 -0.1815 1.86092  15
  -5   3  -5 14.6923 3.13285  15
  -5   3  -5 14.0851 3.23325  16
  -5   3  -5 11.1807 1.44590  10
  -5   3  -5 15.2486 4.02000  17
  -6   3  -5 2.21291 2.50960  15
  -6   3  -5 3.46742 2.79604  16
  -6   3  -5 4.10267 2.30142  17
  -7   3  -5 48.4206 5.36204  15
  -7   3  -5 55.3849 6.63044  16
  -8   3  -5 23.0855 3.18720  15
  -8   3  -5 25.5051 3.63115  16
  -9  -2   5 10.7809 2.35354  14
  -8  -2   5 18.8937 3.83585  14
  -8  -2   5 22.9460 1.98615  10
  -8  -2   5 19.3498 1.34591   9
  -7  -2   5 72.3420 4.87051  10
  -7  -2   5 65.1482 8.50416  14
  -7  -2   5 70.3623 4.98091   9
  -6  -2   5 14.1538 2.20868   9
  -6  -2   5 15.2630 2.04170  10
  -6  -2   5 12.0848 1.89742   8
  -6  -2   5 20.6839 4.46393  14
  -5  -2   5 225.164 12.8132   9
  -5  -2   5 174.636 12.8370   2
  -5  -2   5 183.224 12.9074   5
  -5  -2   5 228.642 16.0897   8
  -4  -2   5 17.1135 1.72063   5
  -4  -2   5 17.3050 2.54261   8
  -4  -2   5 16.4408 1.98561   2
  -4  -2   5 16.0450 1.49122   3
  -3  -2   5 137.615 12.0486   8
  -3  -2   5 156.241 9.57700   5
   2   2  -5 81.0756 5.97938   7
  -2  -2   5 81.1319 5.46805   5
   1   2  -5 109.516 7.73376   2
   1   2  -5 109.612 7.88364   7
   1   2  -5 116.888 7.13354   3
  -1  -2   5 112.541 7.32483   5
   0   2  -5 375.554 23.7099   7
   0   2  -5 365.322 23.0008   2
   0   2  -5 371.178 22.7323   3
  -1   2  -5 11.5202 1.53241   2
  -1   2  -5 8.52852 0.79642   3
  -1   2  -5 9.21139 1.64956   7
  -2   2  -5 31.9305 2.11808   3
  -2   2  -5 31.8961 2.97199   7
  -2   2  -5 30.5653 2.59268   2
  -2   2  -5 28.5896 4.07095  17
  -3   2  -5 1.55697 0.28016   3
  -3   2  -5 1.19516 0.83251  10
  -3   2  -5 1.13077 0.66586   2
  -3   2  -5 1.39585 1.77711  15
  -3   2  -5 1.66063 2.03146  17
  -3   2  -5 1.36250 1.04929   7
  -3   2  -5 1.00293 1.14406   6
  -3   2  -5 0.36504 1.01200   9
  -3   2  -5 0.91846 1.76641  16
  -4   2  -5 167.978 13.3800  16
  -4   2  -5 162.729 9.16589  10
  -4   2  -5 154.701 12.4706  15
  -4   2  -5 175.313 11.1030   7
  -4   2  -5 116.942 15.4535  14
  -4   2  -5 181.798 14.7681  17
  -4   2  -5 153.417 11.0289   6
  -5   2  -5 120.547 6.49438  10
  -5   2  -5 120.876 11.0358  17
  -5   2  -5 124.961 10.7098  16
  -5   2  -5 110.767 9.88628  15
  -5   2  -5 104.684 8.28255   6
  -5   2  -5 78.0127 11.8881  14
  -6   2  -5 37.2686 7.17480  14
  -6   2  -5 53.3981 6.13284  16
  -6   2  -5 50.6404 5.71783  15
  -6   2  -5 55.3060 6.35107  17
  -7   2  -5 42.9004 5.17601  15
  -7   2  -5 35.1897 6.24869  14
  -7   2  -5 51.1302 5.74342  16
  -8   2  -5 4.76484 2.25893  16
  -8   2  -5 5.65139 2.56491  15
  -9   2  -5 5.37150 1.57669  15
  -9  -1   5 5.51355 2.09954  14
  -9  -1   5 6.70457 0.82647  10
  -8  -1   5 69.8567 8.06559  14
  -8  -1   5 69.5628 4.45976  10
  -8  -1   5 61.6781 4.21976   9
  -7  -1   5 7.06242 2.91058  14
  -7  -1   5 6.93223 1.43038   9
  -7  -1   5 6.50818 1.31553  10
  -6  -1   5 168.594 10.5288  10
  -6  -1   5 174.691 11.3333   9
  -6  -1   5 203.729 18.0847  14
  -5  -1   5 16.4222 2.28634   8
  -5  -1   5 14.0148 1.74403   5
  -5  -1   5 12.7336 1.25979   3
  -5  -1   5 17.1035 2.23382   9
  -5  -1   5 14.4639 1.85751   2
  -4  -1   5 164.971 10.3844   3
  -4  -1   5 162.762 13.1943   8
  -4  -1   5 162.097 10.6195   2
  -4  -1   5 165.680 10.5546   5
  -3  -1   5 103.869 6.97057   2
  -3  -1   5 99.9929 6.65584   3
  -3  -1   5 108.358 6.82569   5
   2   1  -5 107.737 7.19591   7
   2   1  -5 106.023 7.23379   2
   2   1  -5 102.259 6.59218   3
  -2  -1   5 104.888 6.75432   5
   1   1  -5 175.972 10.9799   2
   1   1  -5 170.847 10.4957   3
   1   1  -5 178.581 11.2168   7
  -1  -1   5 157.251 10.5506   5
   0   1  -5 63.0488 4.49954   2
   0   1  -5 60.9260 4.67201   7
   0   1  -5 62.3807 3.96996   3
  -1   1  -5 179.933 11.3013   7
  -1   1  -5 174.861 10.7774   2
  -1   1  -5 161.204 10.4622   3
  -2   1  -5 49.1637 3.46504   2
  -2   1  -5 49.9601 3.97158   7
  -2   1  -5 49.1029 3.15680   3
  -3   1  -5 93.8548 6.14472   2
  -3   1  -5 78.7325 5.81139  10
  -3   1  -5 107.380 6.04957   3
  -3   1  -5 105.510 7.03051   7
  -3   1  -5 97.9640 7.04142   6
  -3   1  -5 87.1896 9.64141  17
  -4   1  -5 67.6781 5.48404   6
  -4   1  -5 78.9593 5.46348   7
  -4   1  -5 74.9338 7.59700  17
  -4   1  -5 66.8931 4.16325  10
  -4   1  -5 74.6585 7.14742  16
  -4   1  -5 66.8767 6.48573  15
  -4   1  -5 53.9074 7.79808  14
  -5   1  -5 333.915 17.7683  10
  -5   1  -5 310.707 21.4228   6
  -5   1  -5 374.218 25.6568  16
  -5   1  -5 319.461 21.3521   7
  -5   1  -5 273.402 29.8108  14
  -5   1  -5 330.970 24.1245  15
  -5   1  -5 384.294 27.8984  17
  -6   1  -5 145.448 17.5383  14
  -6   1  -5 184.938 14.2182  15
  -6   1  -5 148.621 12.0741   6
  -6   1  -5 209.391 15.2123  16
  -6   1  -5 216.572 16.5110  17
  -7   1  -5 9.40548 2.88370  16
  -7   1  -5 5.76018 3.03180  15
  -7   1  -5 6.99575 3.88326  14
  -8   1  -5 151.114 11.7225  16
  -8   1  -5 112.474 13.6917  14
  -8   1  -5 140.772 11.3461  15
  -9   1  -5 1.65453 1.54577  15
  -9   0   5 71.2113 8.00171  14
  -9   0   5 79.9175 4.63263  10
  -8   0   5 1.15676 2.16632  14
  -8   0   5 0.60262 0.74246  10
  -8   0   5 1.08695 0.82196   9
  -7   0   5 116.836 11.9779  14
  -7   0   5 110.505 7.06860  10
  -7   0   5 112.915 7.53819   9
  -6   0   5 91.9410 6.03686  10
  -6   0   5 89.7200 6.50369   9
  -6   0   5 100.766 10.2631  14
  -6   0   5 91.6836 7.75493   8
  -5   0   5 61.0832 4.23563   3
  -5   0   5 57.6800 4.55745   5
  -5   0   5 68.8609 4.95605   9
  -5   0   5 64.5007 5.65450   8
  -5   0   5 64.9091 4.64584   2
  -4   0   5 127.539 8.47813   2
  -4   0   5 121.193 10.5073   8
  -4   0   5 131.516 8.22955   3
  -4   0   5 134.238 8.43702   5
  -3   0   5 18.1250 1.48123   3
  -3   0   5 20.4173 1.69915   5
  -3   0   5 20.6290 1.92896   2
   2   0  -5 229.404 14.5938   2
   2   0  -5 233.876 14.1908   3
   2   0  -5 227.240 14.6498   7
  -2   0   5 228.518 14.2191   5
   1   0  -5 4.12848 1.06467   2
   1   0  -5 3.40084 0.54897   1
   1   0  -5 6.02631 0.52819   3
   1   0  -5 3.62065 0.81484   7
   0   0  -5 337.120 20.9493   2
   0   0  -5 336.149 21.4952   7
   0   0  -5 346.795 20.8531   3
  -1   0  -5 153.117 10.0215   2
  -1   0  -5 163.753 9.83226   3
  -1   0  -5 160.131 10.5095   7
  -2   0  -5 69.6149 4.57667   2
  -2   0  -5 67.9359 4.34534   3
  -2   0  -5 76.2817 5.15846   7
  -3   0  -5 55.6733 4.14414   6
  -3   0  -5 48.5769 3.14993   2
  -3   0  -5 51.6114 3.92696   7
  -3   0  -5 55.2269 3.10237   3
  -3   0  -5 45.1697 3.12418   2
  -3   0  -5 48.2589 3.08798   3
  -4   0  -5 50.0627 5.76023  17
  -4   0  -5 51.7697 4.16069   6
  -4   0  -5 46.3945 4.96920  15
  -4   0  -5 47.5076 3.83306   7
  -4   0  -5 40.5489 6.56876  14
  -4   0  -5 51.2439 5.50637  16
  -4   0  -5 44.7835 2.84234  10
  -5   0  -5 308.568 19.3900   6
  -5   0  -5 265.816 21.8005  13
  -5   0  -5 338.653 25.1004  17
  -5   0  -5 319.714 22.9941  16
  -5   0  -5 252.294 26.9318  14
  -5   0  -5 308.379 21.8596  15
  -5   0  -5 291.439 19.1726   7
  -6   0  -5 178.673 12.4989   6
  -6   0  -5 189.092 14.6725  15
  -6   0  -5 191.369 16.2400  17
  -6   0  -5 197.976 15.2011  16
  -6   0  -5 164.851 18.0284  14
  -6   0  -5 170.164 14.5247  13
  -7   0  -5 51.6680 8.40926  14
  -7   0  -5 54.8523 6.12040  15
  -7   0  -5 49.1124 5.83807  13
  -7   0  -5 61.7531 6.36832  16
  -8   0  -5 20.1759 3.39598  16
  -8   0  -5 23.0182 4.68388  14
  -8   0  -5 20.8181 3.95399  15
  -9   0  -5 20.7707 3.98369  14
  -9   0  -5 32.7140 3.60093  15
  -9   1   5 22.0446 3.49918  14
  -9   1   5 18.6499 1.60734  10
  -8   1   5 125.288 7.48413   9
  -8   1   5 127.939 7.36236  10
  -8   1   5 100.426 9.37367  15
  -8   1   5 126.759 12.2561  14
  -7   1   5 95.5096 6.39798   9
  -7   1   5 90.9923 9.99371  14
  -7   1   5 90.3503 8.17697  15
  -7   1   5 88.6993 5.94486  10
  -6   1   5 13.5925 2.00501   8
  -6   1   5 16.6022 2.27661   9
  -6   1   5 14.4446 1.96696  10
  -6   1   5 15.9706 3.53288  14
  -5   1   5 249.429 14.2272   9
  -5   1   5 220.307 14.5059   2
  -5   1   5 232.330 18.0633   8
  -5   1   5 224.003 14.3564   3
  -4   1   5 28.4610 2.47997   2
  -4   1   5 26.5245 2.93407   8
  -4   1   5 28.5085 2.38020   5
  -4   1   5 29.6141 2.11658   3
  -3   1   5 281.630 18.5132   5
  -3   1   5 305.329 18.5267   3
  -3   1   5 313.707 18.6030   2
   2  -1  -5 617.960 37.3740   3
   2  -1  -5 607.815 37.3313   2
   2  -1  -5 607.503 37.8814   7
  -2   1   5 618.945 37.1595   2
  -2   1   5 608.511 37.4470   3
   1  -1  -5 347.732 20.8417   2
   1  -1  -5 350.951 21.2173   7
   1  -1  -5 352.864 20.6838   3
   1  -1  -5 323.230 20.0259   1
  -1   1   5 317.781 20.0106   1
   0  -1  -5 191.389 11.8283   3
   0  -1  -5 183.047 11.4810   1
   0  -1  -5 199.315 12.0530   2
   0  -1  -5 200.840 12.4046   7
  -1  -1  -5 253.063 15.5768   2
  -1  -1  -5 253.252 16.1600   7
  -1  -1  -5 254.021 15.5048   3
  -2  -1  -5 1301.37 80.4108   3
  -2  -1  -5 1340.93 79.0674   2
  -2  -1  -5 1213.12 111.843   4
  -2  -1  -5 1427.58 81.3498   7
  -3  -1  -5 2.74264 0.84702   7
  -4  -1  -5 351.711 25.9132  16
  -4  -1  -5 325.573 24.4509  15
  -4  -1  -5 344.501 21.9030   7
  -4  -1  -5 348.220 21.8548   6
  -5  -1  -5 6.88243 2.08693  15
  -5  -1  -5 6.11476 3.17819  14
  -5  -1  -5 7.62147 1.56741  18
  -5  -1  -5 8.60509 2.43491  13
  -5  -1  -5 4.50982 1.41521   6
  -5  -1  -5 7.81206 2.53635  16
  -5  -1  -5 4.25591 1.22226   7
  -5  -1  -5 7.79429 2.71625  17
  -6  -1  -5 13.7280 3.25082  16
  -6  -1  -5 11.8483 2.30405  12
  -6  -1  -5 14.2791 3.35780  15
  -6  -1  -5 13.4166 4.11238  14
  -6  -1  -5 15.4815 2.28880  18
  -6  -1  -5 13.9614 3.60828  17
  -6  -1  -5 12.9020 3.09865  13
  -7  -1  -5 72.8780 8.60163  17
  -7  -1  -5 87.6927 6.82889  12
  -7  -1  -5 74.6980 7.92383  13
  -7  -1  -5 64.4322 9.97900  14
  -7  -1  -5 88.9417 8.36591  16
  -7  -1  -5 80.9757 7.98214  15
  -8  -1  -5 53.3692 6.11630  16
  -8  -1  -5 63.5575 5.94331  15
  -8  -1  -5 50.6507 5.80271  13
  -8  -1  -5 50.8869 8.10108  14
  -9  -1  -5 54.1263 6.91272  14
  -9  -1  -5 60.8834 5.37345  15
  -9   2   5 9.67332 2.27541  14
  -9   2   5 13.2747 1.25798  10
  -8   2   5 114.205 7.09596   9
  -8   2   5 120.957 11.8229  14
  -8   2   5 107.218 9.17435  15
  -8   2   5 112.976 6.94275  10
  -7   2   5 40.8254 3.44334   9
  -7   2   5 36.5616 6.06231  14
  -7   2   5 34.8582 2.94227  10
  -7   2   5 30.1489 4.60929  15
  -6   2   5 17.3740 3.44988  14
  -6   2   5 11.7879 2.06737   9
  -6   2   5 12.0450 2.11308   6
  -6   2   5 15.3563 2.01061   8
  -6   2   5 12.8407 1.92620  10
  -5   2   5 67.0997 5.72574   8
  -5   2   5 67.7955 4.92114   9
  -5   2   5 62.5303 4.60593   2
  -5   2   5 63.9780 7.29777  14
  -5   2   5 60.3717 4.24751   3
  -4   2   5 261.371 16.2727   2
  -4   2   5 272.598 16.1734   3
  -4   2   5 244.058 20.2669   8
  -3   2   5 153.281 9.84302   3
  -3   2   5 162.835 10.0650   2
   2  -2  -5 575.115 33.6917   3
   2  -2  -5 541.170 34.1160   7
   2  -2  -5 515.716 32.5550   1
   2  -2  -5 555.054 33.6764   2
  -2   2   5 569.224 33.5280   2
  -2   2   5 553.420 33.7498   3
   1  -2  -5 207.934 12.8293   2
   1  -2  -5 210.502 13.0232   7
   1  -2  -5 218.269 12.5813   3
   1  -2  -5 202.002 12.2117   1
  -1   2   5 184.286 12.1940   1
   0  -2  -5 1.18440 0.29372   1
   0  -2  -5 1.47040 0.66032   2
   0  -2  -5 1.89877 0.58696   7
   0  -2  -5 1.01746 0.21548   3
   0   2   5 1.01463 0.29734   1
  -1  -2  -5 1018.51 62.8368   2
  -1  -2  -5 1069.95 64.5160   7
  -1  -2  -5 1049.51 63.6788   3
  -2  -2  -5 183.010 11.5277   3
  -2  -2  -5 166.043 16.5082   4
  -2  -2  -5 196.491 12.2661   7
  -2  -2  -5 200.943 11.5093   3
  -2  -2  -5 184.473 11.4377   2
  -2  -2  -5 193.971 11.5118   2
  -3  -2  -5 21.9590 2.27502   7
  -3  -2  -5 22.2264 2.60829   4
  -4  -2  -5 226.003 15.0467   7
  -4  -2  -5 236.349 20.2794   4
  -5  -2  -5 109.048 7.72361  12
  -5  -2  -5 99.3629 7.21814   7
  -5  -2  -5 104.553 9.13795  16
  -5  -2  -5 80.0940 10.4141  14
  -5  -2  -5 102.762 7.55732  18
  -5  -2  -5 104.449 7.15493  11
  -5  -2  -5 100.558 8.78100  13
  -5  -2  -5 105.475 8.80281  15
  -5  -2  -5 112.160 10.2368  17
  -6  -2  -5 174.760 11.8338  12
  -6  -2  -5 163.469 11.4256  18
  -6  -2  -5 177.612 14.0650  16
  -6  -2  -5 161.625 14.8543  17
  -6  -2  -5 157.786 13.0535  13
  -6  -2  -5 165.564 13.0784  15
  -6  -2  -5 173.955 10.9795  11
  -6  -2  -5 141.797 16.0371  14
  -7  -2  -5 14.2928 3.77880  17
  -7  -2  -5 15.5121 3.15058  15
  -7  -2  -5 13.1673 2.39962  18
  -7  -2  -5 12.5141 2.53656  12
  -7  -2  -5 14.8331 2.03203  11
  -7  -2  -5 11.8518 4.46840  14
  -7  -2  -5 15.7157 3.38247  16
  -7  -2  -5 11.2152 3.21517  13
  -8  -2  -5 44.0783 7.50405  14
  -8  -2  -5 54.5296 5.23211  12
  -8  -2  -5 52.3616 6.28304  13
  -8  -2  -5 54.8603 5.79858  15
  -8  -2  -5 56.4921 4.37396  11
  -9  -2  -5 4.46055 2.44136  14
  -9  -2  -5 4.93465 2.10212  13
  -9   3   5 20.2177 2.57996  15
  -9   3   5 21.7376 1.78434  10
  -8   3   5 4.81433 2.22023  14
  -8   3   5 4.56533 1.01144   9
  -8   3   5 3.27933 0.92164  10
  -8   3   5 4.08622 1.91999  15
  -7   3   5 45.6795 3.70376  10
  -7   3   5 49.4146 5.80458  15
  -7   3   5 47.8708 3.99287   9
  -7   3   5 46.3917 6.05007  14
  -6   3   5 179.513 14.3798   8
  -6   3   5 168.941 12.2245   6
  -6   3   5 185.565 17.2007  14
  -6   3   5 191.317 11.5653   9
  -6   3   5 185.132 10.8059  10
  -5   3   5 277.977 20.4458   8
  -5   3   5 229.537 16.1858   3
  -5   3   5 265.916 23.3799  14
  -5   3   5 272.020 16.9483   6
  -5   3   5 259.595 16.3988   2
  -5   3   5 276.783 15.9909   9
  -4   3   5 198.572 12.6413   3
  -4   3   5 211.194 12.8805   2
  -4   3   5 199.597 16.0114   8
  -3   3   5 78.2401 5.14538   2
  -3   3   5 72.2004 4.80870   3
   2  -3  -5 50.9894 3.95003   2
   2  -3  -5 55.9868 3.45857   3
  -2   3   5 55.0641 3.80114   2
  -2   3   5 50.4575 3.49522   3
   1  -3  -5 9.86027 0.76957   3
   1  -3  -5 8.30014 1.25043   2
   1  -3  -5 9.38494 1.12680   7
   1  -3  -5 8.41644 0.82340   1
  -1   3   5 8.08478 0.83205   1
   0  -3  -5 266.643 16.7576   2
   0  -3  -5 258.736 16.1313   1
   0  -3  -5 292.433 16.6836   3
   0  -3  -5 266.766 17.2150   7
  -1  -3  -5 30.5014 2.64794   7
  -1  -3  -5 33.2475 2.03408   3
  -1  -3  -5 27.3530 3.32790   4
  -1  -3  -5 31.6254 2.33713   2
  -2  -3  -5 43.2402 4.96800   4
  -2  -3  -5 50.6745 3.11405   3
  -2  -3  -5 49.7616 3.83365   7
  -2  -3  -5 52.9050 3.27485   2
  -3  -3  -5 100.841 9.65554   4
  -3  -3  -5 110.131 7.26073   7
  -4  -3  -5 22.5359 2.89420   4
  -4  -3  -5 23.6291 2.45008   7
  -5  -3  -5 147.881 10.1199  18
  -5  -3  -5 139.288 11.4132  13
  -5  -3  -5 140.656 10.1399  12
  -5  -3  -5 134.421 11.9376  16
  -5  -3  -5 140.420 9.70286  11
  -5  -3  -5 138.477 11.2428  15
  -5  -3  -5 139.667 9.76007   7
  -5  -3  -5 155.206 13.0689   4
  -5  -3  -5 144.318 13.3352  17
  -6  -3  -5 78.2874 6.49359  12
  -6  -3  -5 78.2571 5.91820  11
  -6  -3  -5 60.3366 9.01249  14
  -6  -3  -5 79.4333 7.41506  13
  -6  -3  -5 73.9245 7.80095  16
  -6  -3  -5 78.6540 7.22135  15
  -6  -3  -5 75.4629 6.22496  18
  -6  -3  -5 75.9111 8.63706  17
  -7  -3  -5 57.4680 4.96644  18
  -7  -3  -5 53.7898 6.25469  13
  -7  -3  -5 55.0579 4.41651  11
  -7  -3  -5 51.3771 4.87695  12
  -7  -3  -5 38.2102 6.86297  14
  -7  -3  -5 45.6965 6.72920  17
  -8  -3  -5 12.1107 3.84978  14
  -8  -3  -5 22.4000 4.12173  13
  -8  -3  -5 22.7176 2.92414  12
  -8  -3  -5 27.6031 3.05691  11
  -9  -3  -5 68.3662 5.49200  12
  -9  -3  -5 65.6274 6.28786  13
  -9   4   5 2.51972 1.18368  15
  -9   4   5 5.08921 0.78478  10
  -8   4   5 73.1725 4.77918   9
  -8   4   5 73.7121 4.80891  10
  -8   4   5 82.3086 6.86163  15
  -7   4   5 -0.9196 0.93926  10
  -7   4   5 1.50605 1.25281   9
  -7   4   5 1.61379 2.11707  15
  -6   4   5 415.424 23.4645   9
  -6   4   5 371.438 30.0449   8
  -6   4   5 399.440 21.9618  10
  -5   4   5 481.532 32.2532   3
  -5   4   5 565.737 40.2166   8
  -5   4   5 551.279 30.8869   9
  -5   4   5 541.274 32.9903   6
  -5   4   5 499.783 32.1694   2
  -4   4   5 27.1825 2.07491   3
  -4   4   5 29.1857 3.18532   8
  -4   4   5 28.7052 2.51500   2
  -3   4   5 357.413 22.8361   3
  -3   4   5 387.916 22.8868   2
   2  -4  -5 272.371 15.8245   3
   2  -4  -5 234.882 16.0029   2
   1  -4  -5 365.701 23.3858   1
   1  -4  -5 399.743 24.2628   2
   1  -4  -5 420.899 24.2229   3
   0  -4  -5 228.932 13.7003   3
   0  -4  -5 239.371 13.8832   2
   0  -4  -5 243.266 14.3331   7
   0  -4  -5 182.953 19.4579   4
  -1  -4  -5 32.2832 3.83887   4
  -1  -4  -5 36.2827 2.94564   7
  -1  -4  -5 37.9034 2.39252   3
  -1  -4  -5 40.4411 2.71210   2
  -2  -4  -5 280.254 18.3489   7
  -2  -4  -5 273.061 25.1345   4
  -2  -4  -5 290.031 17.5981   3
  -2  -4  -5 304.764 17.5278   2
  -3  -4  -5 8.06293 0.67054   2
  -3  -4  -5 9.71773 0.72115   2
  -3  -4  -5 8.93754 0.60324   3
  -3  -4  -5 9.13801 0.59381   3
  -3  -4  -5 9.81281 1.52816   7
  -3  -4  -5 9.70706 1.82633   4
  -4  -4  -5 200.702 17.7707  16
  -4  -4  -5 237.842 15.5159  12
  -4  -4  -5 229.134 12.2773  10
  -4  -4  -5 240.373 14.9710   7
  -4  -4  -5 220.271 19.5425  17
  -4  -4  -5 237.967 20.2953   4
  -4  -4  -5 231.799 15.1434  18
  -4  -4  -5 215.372 14.6397  11
  -5  -4  -5 0.44388 0.73642   4
  -5  -4  -5 0.49127 1.36716  11
  -5  -4  -5 1.35851 2.17663  16
  -5  -4  -5 2.29053 2.63739  17
  -5  -4  -5 1.04331 1.00489  12
  -5  -4  -5 -0.1759 1.28158  18
  -6  -4  -5 256.294 16.7360  12
  -6  -4  -5 222.078 20.9575  17
  -6  -4  -5 204.335 18.8517  16
  -6  -4  -5 243.745 18.3356  13
  -6  -4  -5 254.330 15.6676  11
  -6  -4  -5 256.175 16.2494  18
  -7  -4  -5 45.5628 6.38063  17
  -7  -4  -5 52.0855 5.50934  12
  -7  -4  -5 58.5713 4.96309  11
  -7  -4  -5 53.6566 4.76980  18
  -7  -4  -5 51.8419 6.25155  13
  -8  -4  -5 29.7162 3.74603  12
  -8  -4  -5 19.4848 4.01639  13
  -8  -4  -5 29.6710 3.42498  11
  -9  -4  -5 18.2020 2.51042  12
  -9  -4  -5 16.2663 2.98671  13
  -8   5   5 36.3455 2.36958   9
  -8   5   5 37.6830 4.07016  15
  -8   5   5 33.6243 2.68178  10
  -7   5   5 45.3771 3.93820   9
  -7   5   5 48.0929 4.99070  15
  -7   5   5 44.3106 3.65298  10
  -6   5   5 39.8038 3.95734   8
  -6   5   5 37.0670 4.81920  15
  -6   5   5 33.8356 3.31740  10
  -6   5   5 33.3506 3.59611   9
  -5   5   5 35.5047 3.26872   2
  -5   5   5 45.5962 4.01903   9
  -5   5   5 41.6407 3.62995   6
  -5   5   5 38.9780 2.83776   3
  -5   5   5 40.6779 4.09329   8
  -4   5   5 555.940 33.4460   2
  -4   5   5 566.392 34.0886   6
  -4   5   5 513.223 33.4842   3
  -4   5   5 544.811 41.7651   8
  -4   5   5 555.923 32.4275   9
   1  -5  -5 1062.24 65.1497   3
   1  -5  -5 1076.94 64.5337   2
   0  -5  -5 3.10899 0.83620   2
   0  -5  -5 2.51787 1.10562   4
   0  -5  -5 2.86007 0.37757   3
  -1  -5  -5 262.225 16.0463   3
  -1  -5  -5 287.999 16.1367   2
  -1  -5  -5 232.862 22.8578   4
  -2  -5  -5 3.39912 0.37834   3
  -2  -5  -5 3.30274 0.71176   2
  -2  -5  -5 3.45372 1.25030   4
  -3  -5  -5 286.806 17.4873   3
  -3  -5  -5 280.752 17.3780   2
  -3  -5  -5 294.076 25.2387   4
  -4  -5  -5 35.3254 3.91376  12
  -4  -5  -5 24.7264 4.45417  17
  -4  -5  -5 29.6006 3.05464  18
  -4  -5  -5 28.6614 3.19124  11
  -4  -5  -5 33.0261 2.05886  10
  -4  -5  -5 29.6825 3.65619   4
  -5  -5  -5 231.746 15.2569  11
  -5  -5  -5 229.709 21.1074   4
  -5  -5  -5 251.397 16.4417  12
  -5  -5  -5 237.492 12.6212  10
  -5  -5  -5 243.688 15.8918  18
  -5  -5  -5 216.071 20.5404  17
  -6  -5  -5 51.8029 5.44961  12
  -6  -5  -5 47.0024 5.32588  13
  -6  -5  -5 53.6246 4.90472  18
  -6  -5  -5 50.3297 4.40260  11
  -6  -5  -5 44.6499 6.85193  17
  -6  -5  -5 46.0466 5.35662   4
  -7  -5  -5 35.2281 3.97063  18
  -7  -5  -5 32.9101 3.35978  11
  -7  -5  -5 24.9119 3.68683  12
  -7  -5  -5 25.7037 4.44511  13
  -8  -5  -5 97.3013 8.90587  13
  -8  -5  -5 103.011 7.54353  11
  -8  -5  -5 106.520 8.43729  12
  -9  -5  -5 0.75613 1.45967  12
  -9  -5  -5 0.32828 1.54805  13
  -8   6   5 -0.1842 1.10356  15
  -8   6   5 0.18355 0.80893  10
  -7   6   5 79.6157 5.31252  10
  -7   6   5 90.0614 7.42043  15
  -7   6   5 77.9285 5.59344   9
  -6   6   5 17.8535 2.48238   9
  -6   6   5 17.3281 2.31495   8
  -6   6   5 15.8954 2.78727  15
  -6   6   5 15.4448 2.06289  10
  -5   6   5 4.97373 1.35110   6
  -5   6   5 4.19507 1.70432   9
  -4   6   5 109.395 7.61241   6
  -4   6   5 108.799 9.35467   8
  -3   6   5 165.386 10.2520   6
  -3   6   5 141.766 12.5861   8
   2  -6  -5 262.970 23.2845   4
   1  -6  -5 14.1654 1.72009   2
   1  -6  -5 13.8582 1.09742   3
   1  -6  -5 12.4932 2.27214   4
   0  -6  -5 466.289 43.5892   4
   0  -6  -5 517.519 30.8744   2
   0  -6  -5 529.534 30.9648   3
  -1  -6  -5 43.0764 4.89105   4
  -1  -6  -5 46.7906 3.01591   3
  -1  -6  -5 46.7595 3.35734   2
  -2  -6  -5 74.4484 7.28566   4
  -2  -6  -5 73.9694 4.65903   3
  -2  -6  -5 72.6406 4.89096   2
  -2  -6  -5 73.1533 5.14005   9
  -3  -6  -5 95.1011 6.11121   9
  -3  -6  -5 97.1837 6.92342  11
  -3  -6  -5 76.7466 9.65901  17
  -3  -6  -5 98.9284 7.93066  12
  -3  -6  -5 103.746 6.28745   2
  -3  -6  -5 100.702 5.72967  10
  -3  -6  -5 103.762 9.41700   4
  -3  -6  -5 98.6123 7.14252  18
  -3  -6  -5 97.0453 6.09619   3
  -4  -6  -5 97.0340 7.36800  18
  -4  -6  -5 99.5303 9.40962   4
  -4  -6  -5 79.2856 9.86461  17
  -4  -6  -5 101.607 8.10461  12
  -4  -6  -5 99.4900 5.60479  10
  -4  -6  -5 97.2015 6.97472  11
  -5  -6  -5 194.839 10.8511  10
  -5  -6  -5 202.441 13.7204  18
  -5  -6  -5 210.502 14.3584  12
  -5  -6  -5 203.952 13.1346  11
  -5  -6  -5 189.250 18.0226   4
  -6  -6  -5 15.4472 3.12708  13
  -6  -6  -5 15.7499 2.82794  12
  -6  -6  -5 15.9461 2.57922  18
  -6  -6  -5 15.1346 2.36292  11
  -7  -6  -5 27.2510 3.22628  18
  -7  -6  -5 18.9438 2.83029  11
  -7  -6  -5 23.5405 3.86623  13
  -7  -6  -5 20.3234 3.28302  12
  -8  -6  -5 9.48562 3.13277  13
  -8  -6  -5 17.0822 2.24596  11
  -8  -6  -5 10.5256 2.80168  12
  -9  -6  -5 37.5941 3.64653  12
  -8   7   5 22.2359 2.67443  15
  -8   7   5 25.2689 1.92960  10
  -7   7   5 31.7940 2.84741  10
  -7   7   5 32.6288 2.99316   9
  -7   7   5 31.0591 3.53677  15
  -6   7   5 1.44455 0.86508   8
  -6   7   5 0.79292 1.16295  10
  -6   7   5 0.66508 1.48693   9
  -6   7   5 0.78776 1.21156  15
  -5   7   5 188.367 13.1907   9
  -5   7   5 200.945 15.2747  15
  -5   7   5 230.454 17.0097   8
  -4   7   5 114.065 8.19351   6
  -4   7   5 121.802 8.80694   9
   3  -7  -5 139.241 14.2024   4
  -3   7   5 175.617 10.4860   6
  -3   7   5 155.535 12.9157   8
   2  -7  -5 4.16773 1.32766   4
  -2   7   5 4.45743 0.97340   6
   1  -7  -5 250.127 20.9671   8
   1  -7  -5 270.108 16.6970   2
   1  -7  -5 283.121 16.4325   3
   1  -7  -5 248.992 23.3748   4
   0  -7  -5 100.626 7.25274   9
   0  -7  -5 111.702 6.78419   3
   0  -7  -5 114.729 7.21814   2
   0  -7  -5 104.557 10.1044   4
   0  -7  -5 95.5924 8.98970   8
  -1  -7  -5 199.559 17.5099   4
  -1  -7  -5 192.787 10.9946  10
  -1  -7  -5 190.483 15.3143   8
  -1  -7  -5 170.183 12.4633  11
  -1  -7  -5 202.836 12.0678   3
  -1  -7  -5 207.895 12.3241   2
  -1  -7  -5 185.550 11.9526   9
  -2  -7  -5 256.068 19.6272   8
  -2  -7  -5 236.622 16.1855  11
  -2  -7  -5 239.643 16.7833  18
  -2  -7  -5 245.132 15.1629   9
  -2  -7  -5 261.725 15.8508   2
  -2  -7  -5 276.689 22.7828   4
  -2  -7  -5 263.925 15.7570   3
  -2  -7  -5 254.006 14.1838  10
  -3  -7  -5 120.832 6.66092  10
  -3  -7  -5 111.917 8.23534  18
  -3  -7  -5 109.273 7.07451   3
  -3  -7  -5 115.195 9.16353  12
  -3  -7  -5 114.247 7.98472  11
  -3  -7  -5 112.770 7.29921   2
  -3  -7  -5 115.239 7.16843   9
  -3  -7  -5 112.476 10.7407   4
  -4  -7  -5 183.139 12.8114  12
  -4  -7  -5 156.170 10.4733   3
  -4  -7  -5 184.616 11.4923  11
  -4  -7  -5 187.041 12.0431  18
  -4  -7  -5 171.285 9.98858   9
  -4  -7  -5 194.888 9.69015  10
  -4  -7  -5 155.602 10.4445   2
  -4  -7  -5 177.889 15.8336   4
  -5  -7  -5 0.40251 0.66127  10
  -5  -7  -5 0.53306 0.83862   4
  -5  -7  -5 1.04522 1.41468  11
  -5  -7  -5 3.00622 2.25896  12
  -5  -7  -5 1.75193 1.77820  18
  -6  -7  -5 59.6223 5.15321  18
  -6  -7  -5 59.9911 4.87213  11
  -6  -7  -5 58.3324 6.63376  13
  -6  -7  -5 52.4165 6.28103  12
  -7  -7  -5 54.4864 4.39369  11
  -7  -7  -5 47.7206 5.52050  13
  -7  -7  -5 50.8119 5.79600  12
  -8  -7  -5 90.0925 5.78014  11
  -8  -7  -5 76.3508 6.51499  12
  -8  -7  -5 66.0877 6.88020  13
  -7   8   5 13.1814 1.58524  10
  -7   8   5 15.9372 1.76695   9
  -7   8   5 16.7972 2.32502  15
  -6   8   5 59.5754 4.18497  10
  -6   8   5 52.5833 5.70921  16
  -6   8   5 56.0124 4.53409   9
  -6   8   5 62.9372 5.26439  15
  -5   8   5 28.8869 3.28523  15
  -5   8   5 27.1034 3.20220   8
  -5   8   5 21.6634 3.16172   9
  -4   8   5 125.184 10.0915  15
  -4   8   5 145.223 11.8026   8
  -4   8   5 125.497 9.37954   9
  -3   8   5 1.51048 1.51218   8
   2  -8  -5 212.139 17.4272   8
   1  -8  -5 140.998 11.8442   8
   1  -8  -5 136.368 12.8584   4
   0  -8  -5 216.227 19.2439   4
   0  -8  -5 211.697 17.1927   8
   0  -8  -5 228.877 13.7470   2
   0  -8  -5 211.270 13.3743   9
   0  -8  -5 206.451 13.3617   3
  -1  -8  -5 386.595 29.7837   8
  -1  -8  -5 397.347 21.3083  10
  -1  -8  -5 389.013 23.7990   3
  -1  -8  -5 405.677 33.8707   4
  -1  -8  -5 351.168 23.9191  11
  -2  -8  -5 5.16853 1.75148  12
  -2  -8  -5 5.10655 1.37070   9
  -2  -8  -5 5.27259 0.59051   3
  -2  -8  -5 5.32380 1.44994  11
  -2  -8  -5 4.46592 1.16368   8
  -2  -8  -5 6.46683 1.16094  10
  -2  -8  -5 3.88247 0.95427   2
  -2  -8  -5 5.04520 1.62988   4
  -3  -8  -5 13.4750 1.69088   9
  -3  -8  -5 13.6560 2.09981  11
  -3  -8  -5 14.1341 2.15909  18
  -3  -8  -5 11.8599 1.00944   3
  -3  -8  -5 13.6013 2.60458  12
  -3  -8  -5 13.7722 1.42784  10
  -3  -8  -5 11.3251 2.38258   4
  -4  -8  -5 40.1459 3.14456   9
  -4  -8  -5 44.8419 4.14154  11
  -4  -8  -5 46.0757 5.12414  12
  -4  -8  -5 51.9469 3.19829  10
  -4  -8  -5 44.0239 5.22489   4
  -4  -8  -5 43.8603 4.12113  18
  -5  -8  -5 102.568 5.96671  10
  -5  -8  -5 98.3605 7.22926  11
  -5  -8  -5 94.4747 8.45678  12
  -5  -8  -5 106.644 7.73762  18
  -6  -8  -5 15.5495 2.89103  12
  -6  -8  -5 17.0202 1.25820  10
  -6  -8  -5 17.6141 2.28643  11
  -7  -8  -5 115.631 7.58977  11
  -7  -8  -5 99.9465 8.78736  12
  -8  -8  -5 29.3689 3.35799  12
  -6   9   5 6.78328 1.75614  16
  -6   9   5 5.43967 1.31502   9
  -6   9   5 5.39193 1.15055  10
  -5   9   5 132.312 10.8917   8
  -5   9   5 133.813 9.01847   9
  -4   9   5 52.6782 4.78589   9
  -4   9   5 52.8235 5.76299   8
  -3   9   5 87.1417 8.58948   8
   2  -9  -5 143.218 12.4977   8
  -2   9   5 145.443 13.2083   8
   1  -9  -5 16.1419 2.75535   8
   0  -9  -5 182.724 14.1959   2
   0  -9  -5 248.641 17.8049   8
   0  -9  -5 228.616 13.8047   9
  -1  -9  -5 1.04917 1.14024   4
  -1  -9  -5 1.47304 1.38185   9
  -1  -9  -5 1.66960 0.79489  10
  -1  -9  -5 0.41048 0.85544   2
  -1  -9  -5 3.96718 1.40391   8
  -2  -9  -5 198.623 10.2804  10
  -2  -9  -5 187.936 13.0914  12
  -2  -9  -5 176.824 10.9335   9
  -2  -9  -5 167.309 13.6566   8
  -2  -9  -5 159.274 16.0010   4
  -3  -9  -5 436.083 28.0762  12
  -3  -9  -5 378.334 25.8745  11
  -3  -9  -5 438.290 24.5442   9
  -3  -9  -5 429.276 22.9830  10
  -4  -9  -5 14.1433 1.56082   9
  -4  -9  -5 13.8617 1.51534  10
  -4  -9  -5 12.4143 2.67466  12
  -4  -9  -5 16.6246 2.16084  11
  -5  -9  -5 52.5421 5.24518  12
  -5  -9  -5 49.6504 3.23584  10
  -5  -9  -5 43.0863 3.92345  11
  -6  -9  -5 17.1890 2.79794  12
  -6  -9  -5 14.1631 1.98533  11
  -6  -9  -5 17.0387 1.22636  10
  -7  -9  -5 20.3905 2.07111  11
  -7  -9  -5 15.0564 2.44092  12
  -6  10   5 48.2155 3.31402   9
  -6  10   5 45.8373 4.39440  16
  -5  10   5 69.2993 4.96493   9
  -5  10   5 59.0060 5.88802  16
  -4  10   5 17.5026 2.87975   9
  -4  10   5 17.3639 2.75214   8
   3 -10  -5 92.7661 8.41394   8
  -3  10   5 89.7880 8.56843   8
   2 -10  -5 4.17179 1.62560   8
  -2  10   5 3.21787 2.27613   8
   1 -10  -5 99.7662 9.02647   8
   0 -10  -5 34.0381 3.74368   8
   0 -10  -5 30.4611 3.54558   9
  -1 -10  -5 129.436 8.49490   9
  -1 -10  -5 122.111 10.2778   8
  -2 -10  -5 41.0579 4.73600  12
  -2 -10  -5 40.7112 3.50208   9
  -2 -10  -5 31.4305 2.85322   8
  -2 -10  -5 36.7895 3.01615  10
  -3 -10  -5 98.0274 8.13960  12
  -3 -10  -5 87.7196 6.24944   9
  -3 -10  -5 98.4779 5.93089  10
  -4 -10  -5 311.666 18.5295   9
  -4 -10  -5 324.613 21.8873  12
  -4 -10  -5 337.348 17.8251  10
  -5 -10  -5 17.3702 1.67897  10
  -5 -10  -5 17.1546 2.72773  12
  -6 -10  -5 64.3010 5.47973  12
  -7 -10  -5 13.9401 1.92561  12
  -5  11   5 0.63486 0.83723   9
  -5  11   5 0.74968 1.01500  16
   4 -11  -5 38.3230 3.72476   8
  -4  11   5 31.5902 3.67163   9
  -4  11   5 29.0878 3.20670   8
   3 -11  -5 12.9046 2.23659   8
  -3  11   5 7.90359 2.25665   8
   2 -11  -5 74.0027 6.58228   8
  -2  11   5 64.2024 7.20360   8
   1 -11  -5 52.0570 5.37397   8
   0 -11  -5 12.8995 2.08832   8
   0 -11  -5 10.6386 2.19537   9
  -1 -11  -5 61.1273 5.27017  12
  -1 -11  -5 60.2535 4.72249   9
  -1 -11  -5 49.5475 4.69904   8
  -2 -11  -5 25.2464 2.33496  10
  -2 -11  -5 24.6962 3.24292  12
  -2 -11  -5 28.9969 3.00958   9
  -3 -11  -5 61.6183 5.51920  12
  -3 -11  -5 64.3016 4.32366   9
  -3 -11  -5 57.5207 3.99221  10
  -4 -11  -5 72.2977 4.43652  10
  -4 -11  -5 70.3153 6.32329  12
  -5 -11  -5 104.085 5.39145  10
  -5 -11  -5 75.0671 6.89306  12
  -6 -11  -5 8.97349 1.48680  12
   3 -12  -5 49.1895 4.28426   8
  -3  12   5 43.1526 4.18428   8
  -3  12   5 44.5768 4.43766  16
   2 -12  -5 42.1011 3.99071   8
  -2  12   5 40.3206 4.38094   8
   1 -12  -5 33.8170 3.20415   8
   1 -12  -5 32.0975 3.50100   9
  -1  12   5 23.3806 3.84336   8
   0 -12  -5 244.900 14.1635   9
   0 -12  -5 223.386 17.8617   8
   0 -12  -5 230.501 15.7313  12
  -1 -12  -5 0.12617 0.93515   9
  -1 -12  -5 -1.3512 1.12475  12
  -2 -12  -5 75.1872 5.01339   9
  -2 -12  -5 78.0984 6.07074  12
  -2 -12  -5 71.0080 4.67656  10
  -3 -12  -5 1.82111 0.67133   9
  -3 -12  -5 2.41001 1.29754  12
  -3 -12  -5 1.31150 0.63693  10
  -4 -12  -5 0.59525 0.46560  10
  -4 -12  -5 0.38518 0.92866  12
   0 -13  -5 2.33240 1.01259  12
   0 -13  -5 1.41093 0.83132   9
  -1 -13  -5 60.7246 4.79589  12
  -1 -13  -5 63.9540 4.13599   9
  -2 -13  -5 44.2150 2.84301   9
   2   8  -6 20.3575 2.36102   8
  -2  -8   6 20.6937 2.24002   8
   1   8  -6 40.8499 4.50662  17
   1   8  -6 39.1184 3.38581   8
   1   8  -6 29.7193 3.50659   9
  -1  -8   6 54.3994 4.15052   8
   0   8  -6 6.83089 1.87150  17
   0   8  -6 11.7745 1.82129   9
  -1   8  -6 54.7649 5.53983  17
  -1   8  -6 51.1012 3.83639   9
  -2   8  -6 1.77983 1.28726  17
  -2   8  -6 1.60988 0.76335  10
   4   7  -6 1.13432 1.20072   8
  -4  -7   6 0.82631 0.99275   9
  -4  -7   6 2.27530 1.54423  14
  -4  -7   6 1.50057 0.65734   8
   3   7  -6 3.53650 1.62097   8
  -3  -7   6 2.68093 0.99366   8
   2   7  -6 54.5979 6.31317  17
   2   7  -6 55.7769 5.85911   8
  -2  -7   6 66.8209 5.68266   8
   1   7  -6 2.24162 1.81760  17
   1   7  -6 1.79145 1.27226   8
   1   7  -6 3.76768 1.86992   9
   0   7  -6 118.593 11.6183  17
   0   7  -6 125.954 10.2662   8
   0   7  -6 141.526 9.00368   9
  -1   7  -6 31.4887 4.40488  17
  -1   7  -6 26.6269 3.23367   9
  -1   7  -6 24.4805 2.81455  10
  -2   7  -6 25.2370 2.44699  10
  -2   7  -6 17.7273 2.25905   9
  -2   7  -6 26.2080 4.09868  17
  -3   7  -6 50.7781 5.45121  17
  -3   7  -6 47.7225 3.44930  10
  -4   7  -6 1.45426 0.74908  10
  -4   7  -6 1.48851 1.26298  17
  -6  -6   6 1.35181 0.65750   9
  -5  -6   6 44.9387 3.65996   9
  -5  -6   6 45.6333 5.32795  14
   4   6  -6 104.160 11.0908   8
  -4  -6   6 140.351 10.3124   8
   3   6  -6 58.0979 6.82804   8
  -3  -6   6 69.8958 6.25296   8
   2   6  -6 -0.7500 1.99593  17
   2   6  -6 2.18361 2.39345   8
  -2  -6   6 2.86994 1.61589   8
   1   6  -6 29.9142 4.75199  17
   1   6  -6 33.5808 4.15213   9
   1   6  -6 35.2522 4.75555   8
   0   6  -6 60.7991 5.50830   9
   0   6  -6 57.5146 7.05449  17
   0   6  -6 64.7032 6.25840   8
  -1   6  -6 23.3606 3.30090   9
  -1   6  -6 22.3463 2.78492  10
  -1   6  -6 22.8766 4.52920  17
  -1   6  -6 21.7822 2.39558   8
  -2   6  -6 69.0947 7.98781  17
  -2   6  -6 79.9452 5.88733   9
  -2   6  -6 71.4138 5.12730  10
  -3   6  -6 5.91681 1.21945   9
  -3   6  -6 7.07395 1.43317  10
  -3   6  -6 7.93184 2.61981  17
  -4   6  -6 86.8437 5.02087  10
  -4   6  -6 64.7557 6.77738  16
  -4   6  -6 87.5277 8.50105  17
  -5   6  -6 12.3998 2.46667  17
  -5   6  -6 13.9689 2.39677  16
  -5   6  -6 15.6224 1.24175  10
  -6  -5   6 70.8502 7.87136  14
  -6  -5   6 80.3652 5.33151   9
  -5  -5   6 50.6875 4.53617   8
  -5  -5   6 52.6115 4.25950   9
  -4  -5   6 85.4261 7.61683   8
   3   5  -6 60.0180 7.33423   8
  -3  -5   6 59.2996 6.01285   8
   2   5  -6 0.55238 1.61298  17
   2   5  -6 0.60347 2.29876   8
   1   5  -6 13.9440 3.30761   9
   1   5  -6 12.4366 3.24595  17
   1   5  -6 17.7869 3.30496   8
   0   5  -6 11.7772 3.63335  17
   0   5  -6 9.77430 2.40425   9
   0   5  -6 12.6435 2.58463   8
  -1   5  -6 174.319 10.8515  10
  -1   5  -6 182.921 11.9251   9
  -1   5  -6 177.994 14.4510   8
  -1   5  -6 175.861 16.5278  17
  -2   5  -6 1.53043 1.40067  10
  -2   5  -6 -1.9334 1.65448   9
  -2   5  -6 0.50272 2.72446  17
  -3   5  -6 74.4290 8.71151  17
  -3   5  -6 65.2959 6.72544  16
  -3   5  -6 72.6609 5.11162  10
  -3   5  -6 68.2471 5.13459   9
  -4   5  -6 21.0465 3.68283  16
  -4   5  -6 22.3173 4.49033  17
  -4   5  -6 22.4002 2.17406  10
  -5   5  -6 28.0908 4.30491  17
  -5   5  -6 26.6161 2.08871  10
  -5   5  -6 21.8794 3.75353  16
  -6   5  -6 46.4102 5.09545  17
  -6   5  -6 49.2609 4.98812  16
  -7  -4   6 29.2588 2.32293   9
  -7  -4   6 22.5496 2.15402  10
  -7  -4   6 33.6632 4.20428  14
  -6  -4   6 59.9432 7.57024  14
  -6  -4   6 52.8512 4.23277   9
  -5  -4   6 8.01511 1.77465   9
  -5  -4   6 8.03379 1.64877   8
  -4  -4   6 36.9238 4.21334   8
   3   4  -6 16.6312 4.11955   8
  -3  -4   6 19.7564 2.77701   8
   2   4  -6 30.6508 3.67673   7
   2   4  -6 44.1215 5.27408   8
   1   4  -6 1.13831 1.43396   7
   1   4  -6 3.32887 2.19714   8
   1   4  -6 0.50139 1.64541   9
   0   4  -6 79.3995 6.47940   9
   0   4  -6 82.6815 8.97104  17
   0   4  -6 84.5815 7.99919   8
   0   4  -6 76.9202 6.42877   7
   0   4  -6 77.6575 5.17390   3
   0   4  -6 74.3817 6.00969   2
  -1   4  -6 0.11482 1.42647   7
  -1   4  -6 0.81531 1.90899  17
  -1   4  -6 0.24922 1.14724   2
  -1   4  -6 -0.3554 1.31663   8
  -1   4  -6 0.29722 1.94639   9
  -1   4  -6 -1.2519 1.23508  10
  -2   4  -6 129.241 12.6154  17
  -2   4  -6 124.661 8.69157   9
  -2   4  -6 125.548 7.97324  10
  -2   4  -6 115.063 9.27532   7
  -3   4  -6 70.0823 7.11921  15
  -3   4  -6 84.1435 9.66296  17
  -3   4  -6 85.0804 6.12134   9
  -3   4  -6 86.8159 5.75164  10
  -3   4  -6 86.2465 8.27232  16
  -4   4  -6 16.2040 3.14499  15
  -4   4  -6 16.8486 2.14175  10
  -4   4  -6 17.9649 3.51051  16
  -4   4  -6 19.2570 4.31186  17
  -5   4  -6 120.277 10.3717  16
  -5   4  -6 101.284 6.34455  10
  -5   4  -6 101.311 9.22453  15
  -5   4  -6 117.307 11.0517  17
  -6   4  -6 8.46513 3.07915  17
  -6   4  -6 6.19969 2.74057  16
  -6   4  -6 7.47874 1.94804  15
  -7   4  -6 13.6021 2.18857  15
  -7   4  -6 17.2738 2.73770  16
  -8  -3   6 38.0458 4.67719  14
  -7  -3   6 64.1272 6.70508  14
  -7  -3   6 48.3672 3.68152   9
  -7  -3   6 48.9701 3.57635  10
  -6  -3   6 24.2530 2.40507   8
  -6  -3   6 24.2495 4.93499  14
  -6  -3   6 24.2329 2.73747   9
  -5  -3   6 106.192 8.80280   8
  -5  -3   6 96.8149 7.18423   9
  -4  -3   6 1.21701 1.01277   8
  -3  -3   6 151.682 12.7262   8
   2   3  -6 20.1173 3.84428   8
   2   3  -6 14.1740 2.23005   7
   1   3  -6 34.7458 5.24508  17
   1   3  -6 39.4430 3.83401   2
   1   3  -6 42.0486 4.96683   9
   1   3  -6 38.2804 4.84902   8
   1   3  -6 39.9269 3.74199   7
   0   3  -6 120.915 8.35617   7
   0   3  -6 110.308 7.00411   3
   0   3  -6 98.4864 10.5880  17
   0   3  -6 103.450 8.17367   9
   0   3  -6 113.492 10.0271   8
   0   3  -6 104.775 7.79774   2
  -1   3  -6 171.127 13.8269   8
  -1   3  -6 158.782 10.1386  10
  -1   3  -6 168.523 11.2108   9
  -1   3  -6 181.373 11.9468   7
  -1   3  -6 171.702 11.1841   2
  -1   3  -6 164.101 10.4927   3
  -1   3  -6 160.092 15.2608  17
  -2   3  -6 84.5952 8.15611  16
  -2   3  -6 87.0344 5.72639   3
  -2   3  -6 94.6939 6.70952   9
  -2   3  -6 82.4901 7.96834  15
  -2   3  -6 87.4557 6.35866   2
  -2   3  -6 98.9457 7.27512   7
  -2   3  -6 106.173 9.98313  17
  -2   3  -6 90.1477 6.05069  10
  -3   3  -6 11.6137 1.95750   9
  -3   3  -6 15.1562 3.90849  17
  -3   3  -6 12.8557 1.88780  10
  -3   3  -6 14.3964 3.16490  15
  -3   3  -6 12.0234 3.03330  16
  -3   3  -6 13.8145 1.67763   2
  -3   3  -6 12.5913 2.34378   7
  -4   3  -6 286.139 16.3650  10
  -4   3  -6 318.767 25.5526  17
  -4   3  -6 273.059 21.4348  15
  -4   3  -6 296.048 23.1363  16
  -5   3  -6 117.245 11.2769  17
  -5   3  -6 103.537 9.40611  15
  -5   3  -6 103.212 9.79591  16
  -5   3  -6 96.7505 6.03988  10
  -6   3  -6 82.7876 7.95315  15
  -6   3  -6 93.1239 8.88696  16
  -6   3  -6 99.1900 9.90067  17
  -7   3  -6 60.4548 6.17275  15
  -7   3  -6 78.9424 7.12243  16
  -8   3  -6 6.31620 1.56066  15
  -8   3  -6 4.61597 1.67889  16
  -8  -2   6 31.1224 2.13908  10
  -8  -2   6 17.0866 3.50613  14
  -7  -2   6 9.87492 1.58815  10
  -7  -2   6 10.7789 3.60402  14
  -7  -2   6 12.8893 1.68858   9
  -6  -2   6 87.7827 6.13943   9
  -6  -2   6 82.2823 7.16790   8
  -6  -2   6 92.8685 9.95794  14
  -5  -2   6 6.60983 1.93889   9
  -5  -2   6 5.50775 1.42361   8
  -4  -2   6 158.500 13.0873   8
  -3  -2   6 70.8355 6.63327   8
   2   2  -6 109.735 10.2269   8
   2   2  -6 103.490 7.55514   7
   1   2  -6 281.590 21.6174   8
   1   2  -6 287.476 17.3930   7
   1   2  -6 273.508 16.9936   2
   1   2  -6 243.062 17.0188   9
   1   2  -6 210.727 21.6136  17
   1   2  -6 275.178 16.3244   3
   0   2  -6 16.2861 1.26837   3
   0   2  -6 19.1245 2.31787   2
   0   2  -6 15.8417 3.30662  17
   0   2  -6 14.6360 2.78106   8
   0   2  -6 17.6753 2.80102   9
   0   2  -6 19.4727 2.49756   7
   0   2  -6 14.5140 2.17332  10
  -1   2  -6 72.9256 5.07034   2
  -1   2  -6 64.8295 7.31112  17
  -1   2  -6 65.9846 4.34159   3
  -1   2  -6 71.2508 5.51966   7
  -1   2  -6 68.2223 5.41189   9
  -1   2  -6 68.4540 6.16199   8
  -1   2  -6 58.3520 4.67804  10
  -2   2  -6 10.2047 2.03670   7
  -2   2  -6 13.4213 3.00518  15
  -2   2  -6 14.0646 1.79928   2
  -2   2  -6 6.73316 2.10927  18
  -2   2  -6 13.2010 3.26055  17
  -2   2  -6 13.0410 1.91759   9
  -2   2  -6 12.5240 0.99851   3
  -2   2  -6 10.4180 2.70838  16
  -2   2  -6 12.3383 1.75508  10
  -3   2  -6 90.0032 6.54261   7
  -3   2  -6 80.4225 5.26543  10
  -3   2  -6 73.2184 5.31631   2
  -3   2  -6 85.5695 8.86437  17
  -3   2  -6 77.6334 7.64893  15
  -3   2  -6 85.5957 5.09935   3
  -3   2  -6 76.3669 7.95241  16
  -3   2  -6 74.1613 5.34858   9
  -4   2  -6 101.069 6.33812  10
  -4   2  -6 103.936 7.85023   7
  -4   2  -6 102.727 10.4026  17
  -4   2  -6 97.4536 9.25832  15
  -4   2  -6 113.099 9.82572  16
  -5   2  -6 552.759 41.4920  16
  -5   2  -6 521.768 29.7685  10
  -5   2  -6 638.624 45.6020  17
  -5   2  -6 532.754 38.8044  15
  -6   2  -6 28.3194 4.35616  15
  -6   2  -6 28.9966 4.80922  17
  -6   2  -6 27.2286 4.65035  16
  -7   2  -6 1.43425 2.50498  15
  -7   2  -6 2.89288 1.93442  17
  -7   2  -6 3.81738 2.16274  16
  -8   2  -6 51.7045 5.43552  16
  -8   2  -6 50.5581 4.94867  15
  -8  -1   6 0.27437 0.58849   9
  -8  -1   6 0.47886 0.66895  10
  -8  -1   6 -0.7113 1.66333  14
  -7  -1   6 49.3132 6.48165  14
  -7  -1   6 48.5981 3.91961   9
  -7  -1   6 41.2446 3.35000  10
  -6  -1   6 27.0577 2.99952   8
  -6  -1   6 28.9217 3.25264   9
  -6  -1   6 26.0902 5.22252  14
  -5  -1   6 137.929 9.30877   9
  -5  -1   6 144.184 11.7022   8
  -4  -1   6 121.100 10.1571   8
   2   1  -6 292.717 17.8709   7
   2   1  -6 254.844 22.5859   8
   1   1  -6 12.6680 1.05125   3
   1   1  -6 12.1476 1.77187   2
   1   1  -6 13.4929 1.92951   7
   0   1  -6 88.4718 5.75341   3
   0   1  -6 97.0433 6.70557   7
   0   1  -6 91.8068 6.31386   2
  -1   1  -6 318.981 24.6804   8
  -1   1  -6 305.809 19.5396   3
  -1   1  -6 296.551 19.0768   9
  -1   1  -6 342.476 19.8499   2
  -1   1  -6 332.915 20.6009   7
  -2   1  -6 74.5739 4.84927  10
  -2   1  -6 73.1112 7.68189  17
  -2   1  -6 67.6664 5.16388   9
  -2   1  -6 78.2897 5.78814   7
  -2   1  -6 76.5526 5.11304   2
  -2   1  -6 67.8027 7.08903  16
  -2   1  -6 80.5616 4.74664   3
  -2   1  -6 72.7507 7.04980  15
  -2   1  -6 62.1921 5.98203  18
  -3   1  -6 43.5413 3.19742  10
  -3   1  -6 41.2267 3.06751   2
  -3   1  -6 50.9588 5.87683  17
  -3   1  -6 46.5569 5.52638  16
  -3   1  -6 38.4295 4.28394  18
  -3   1  -6 43.9612 5.39724  15
  -3   1  -6 48.3943 2.88928   3
  -3   1  -6 49.6121 4.14211   7
  -3   1  -6 40.5313 3.17906   9
  -4   1  -6 57.6863 6.17011  16
  -4   1  -6 46.9024 6.10380  15
  -4   1  -6 54.8036 3.59371  10
  -4   1  -6 55.9170 4.59322   7
  -4   1  -6 55.6286 6.41820  17
  -5   1  -6 41.1154 5.92266  17
  -5   1  -6 27.2897 3.41754   7
  -5   1  -6 35.1217 4.95131  16
  -5   1  -6 29.9803 5.90759  14
  -5   1  -6 36.2223 2.16453  10
  -5   1  -6 38.3280 5.12960  15
  -6   1  -6 15.0808 4.34116  14
  -6   1  -6 22.4691 3.92904  15
  -6   1  -6 15.8023 4.00092  17
  -6   1  -6 19.7062 3.77910  16
  -7   1  -6 173.853 14.2343  15
  -7   1  -6 181.202 16.0079  17
  -7   1  -6 173.743 15.0392  16
  -8   1  -6 15.3693 3.26636  15
  -8   1  -6 11.9929 3.13865  16
  -8   0   6 94.5800 6.09172   9
  -8   0   6 120.163 10.7603  14
  -8   0   6 92.5934 5.96274  10
  -7   0   6 1.41844 1.31100   9
  -7   0   6 3.63932 2.40189  14
  -7   0   6 1.29795 0.85765  10
  -6   0   6 15.4118 2.20406   9
  -6   0   6 16.8721 4.21072  14
  -6   0   6 14.6140 2.18005   8
  -5   0   6 184.011 11.6134   9
  -5   0   6 178.398 14.5068   8
  -4   0   6 0.20375 0.88805   8
   2   0  -6 8.41522 1.61872   2
   2   0  -6 9.17728 1.38672   7
   2   0  -6 10.7419 0.90973   3
   1   0  -6 138.269 8.90567   7
   1   0  -6 129.594 8.17507   3
   1   0  -6 126.163 8.71040   2
   0   0  -6 259.782 16.3892   7
   0   0  -6 245.061 15.8742   2
   0   0  -6 254.858 15.5811   3
  -1   0  -6 499.561 31.7284   2
  -1   0  -6 555.174 32.8271   7
  -1   0  -6 514.190 31.8097   3
  -2   0  -6 40.5036 3.03624   2
  -2   0  -6 46.2277 3.70406   7
  -3   0  -6 -0.2796 1.25565  18
  -3   0  -6 -0.4667 1.64662  16
  -3   0  -6 0.57559 0.15126   3
  -3   0  -6 0.15761 0.71169  10
  -3   0  -6 -0.0235 0.63374   7
  -3   0  -6 0.95359 0.57456   9
  -3   0  -6 0.66602 0.36201   2
  -3   0  -6 0.11908 1.18884  17
  -3   0  -6 1.54068 1.41401  15
  -4   0  -6 164.516 12.8910  16
  -4   0  -6 151.495 8.29143  10
  -4   0  -6 160.012 10.3627   7
  -4   0  -6 165.958 13.6231  17
  -4   0  -6 135.984 10.3859  18
  -4   0  -6 146.059 12.1274  15
  -4   0  -6 113.781 14.6256  14
  -5   0  -6 28.4687 3.10400  18
  -5   0  -6 31.1331 4.71185  17
  -5   0  -6 32.7798 4.76705  15
  -5   0  -6 28.6136 5.43674  14
  -5   0  -6 32.9323 4.80999  16
  -5   0  -6 26.4055 2.87320   7
  -6   0  -6 114.214 10.3991  17
  -6   0  -6 111.007 10.0700  16
  -6   0  -6 81.1872 10.9180  14
  -6   0  -6 98.9107 9.51789  15
  -7   0  -6 8.32598 2.75163  16
  -7   0  -6 5.56676 2.96297  14
  -7   0  -6 11.6589 3.04857  15
  -7   0  -6 5.25139 2.39288  17
  -8   0  -6 44.4406 5.09454  16
  -8   0  -6 42.2082 4.95406  15
  -9   0  -6 39.3979 3.98355  15
  -9   1   6 16.4610 1.36576  10
  -8   1   6 48.7296 5.96328  14
  -8   1   6 48.9477 3.39722   9
  -8   1   6 43.4626 3.30911  10
  -7   1   6 -0.6083 0.80681   9
  -7   1   6 1.30691 1.09863  10
  -7   1   6 1.03886 2.77681  14
  -7   1   6 0.90835 1.74632  15
  -6   1   6 126.542 10.7011   8
  -6   1   6 135.879 8.82028   9
  -6   1   6 124.733 8.14157  10
  -6   1   6 146.657 13.6287  14
  -5   1   6 6.25288 1.37097   8
  -5   1   6 4.20009 1.11129   2
  -5   1   6 4.54280 0.75372   3
  -5   1   6 5.69021 1.73266   9
  -4   1   6 196.317 15.7192   8
   2  -1  -6 225.389 14.2947   3
   2  -1  -6 242.007 14.8369   2
   1  -1  -6 89.0842 6.30095   7
   1  -1  -6 92.5622 5.73676   3
   1  -1  -6 89.5719 6.26456   2
   0  -1  -6 181.677 12.3556   7
   0  -1  -6 195.130 11.7244   3
   0  -1  -6 190.218 12.0439   2
  -1  -1  -6 411.783 25.1858   3
  -1  -1  -6 405.202 25.1660   2
  -1  -1  -6 421.216 26.0578   7
  -2  -1  -6 42.4529 3.39321   7
  -2  -1  -6 37.9982 2.86419   2
  -2  -1  -6 41.2185 2.58224   3
  -3  -1  -6 171.251 12.9596  16
  -3  -1  -6 159.056 13.7113  17
  -3  -1  -6 142.076 8.61553  10
  -3  -1  -6 155.873 10.6874  18
  -3  -1  -6 169.027 10.5665   7
  -3  -1  -6 139.100 12.0309  15
  -4  -1  -6 66.3052 3.94557  10
  -4  -1  -6 76.2152 7.40133  17
  -4  -1  -6 74.1945 5.45300   7
  -4  -1  -6 73.9255 6.97718  16
  -4  -1  -6 71.7698 7.00226  15
  -4  -1  -6 69.1708 5.61765  18
  -4  -1  -6 54.0322 8.16593  14
  -5  -1  -6 258.771 19.2738  15
  -5  -1  -6 290.947 22.3693  17
  -5  -1  -6 256.864 17.1992  18
  -5  -1  -6 208.152 23.7528  14
  -5  -1  -6 299.968 20.8560  16
  -5  -1  -6 246.634 16.9058   7
  -6  -1  -6 72.1369 7.33541  15
  -6  -1  -6 69.8700 7.33148  13
  -6  -1  -6 81.9101 8.21147  16
  -6  -1  -6 72.4426 6.10697  18
  -6  -1  -6 84.9984 8.72122  17
  -6  -1  -6 63.5284 9.45999  14
  -7  -1  -6 7.52792 2.52669  16
  -7  -1  -6 5.34419 3.01738  17
  -7  -1  -6 9.39325 2.80396  15
  -7  -1  -6 7.79076 3.39010  14
  -7  -1  -6 7.08376 2.33608  13
  -8  -1  -6 82.2442 9.83215  14
  -8  -1  -6 89.4767 8.20876  16
  -8  -1  -6 98.7698 8.36249  15
  -9  -1  -6 5.25000 2.14032  15
  -9   2   6 36.3564 2.41684  10
  -8   2   6 10.3576 1.40846  10
  -8   2   6 6.91949 1.80375  15
  -8   2   6 8.30425 1.30212   9
  -8   2   6 9.08121 2.97571  14
  -7   2   6 207.345 12.4916  10
  -7   2   6 224.515 13.3379   9
  -7   2   6 215.273 16.1925  15
  -7   2   6 220.574 20.0174  14
  -6   2   6 153.470 9.42333  10
  -6   2   6 159.841 10.1235   9
  -6   2   6 144.412 12.3676   8
  -6   2   6 170.120 15.2603  14
  -5   2   6 91.6939 6.55436   3
  -5   2   6 111.538 8.71229   8
  -5   2   6 119.432 10.7434  14
  -5   2   6 105.823 7.06262   9
  -5   2   6 92.8171 6.87314   2
  -4   2   6 124.996 10.4049   8
   2  -2  -6 92.5235 6.52863   2
   2  -2  -6 93.9341 5.91465   3
   1  -2  -6 23.3998 2.19194   7
   1  -2  -6 21.4783 2.10756   2
   1  -2  -6 23.5844 1.61355   3
   0  -2  -6 504.251 31.7264   2
   0  -2  -6 528.457 32.5787   7
   0  -2  -6 528.825 31.8043   3
  -1  -2  -6 97.5432 11.0002   4
  -1  -2  -6 130.479 7.51854   3
  -1  -2  -6 131.286 8.31339   7
  -1  -2  -6 122.972 7.81168   2
  -2  -2  -6 147.802 9.49578   7
  -2  -2  -6 147.472 8.59515   3
  -2  -2  -6 137.732 8.71405   2
  -2  -2  -6 123.725 12.5518   4
  -3  -2  -6 200.896 12.5761   7
  -3  -2  -6 179.620 16.6321   4
  -4  -2  -6 36.3749 6.43195  14
  -4  -2  -6 54.2307 4.22516   7
  -4  -2  -6 60.2572 6.43888  17
  -4  -2  -6 44.2859 2.73436  10
  -4  -2  -6 47.3171 5.11441  15
  -4  -2  -6 54.3299 5.55253  16
  -4  -2  -6 51.6631 4.40689  18
  -4  -2  -6 50.4206 4.08522  11
  -5  -2  -6 349.811 27.5497  17
  -5  -2  -6 301.852 21.0398   7
  -5  -2  -6 338.182 25.3289  16
  -5  -2  -6 327.770 21.3858  18
  -5  -2  -6 333.805 20.4825  11
  -5  -2  -6 317.722 23.5916  15
  -6  -2  -6 1.09227 2.61150  17
  -6  -2  -6 1.92946 1.96562  15
  -6  -2  -6 2.46198 2.53686  14
  -6  -2  -6 1.37217 1.54718  18
  -6  -2  -6 3.12073 2.11400  16
  -6  -2  -6 0.88219 1.21889  11
  -7  -2  -6 17.7330 3.66586  15
  -7  -2  -6 19.6724 3.36798  13
  -7  -2  -6 13.4398 2.45724  18
  -7  -2  -6 17.6475 4.15825  17
  -7  -2  -6 18.5604 4.46848  14
  -7  -2  -6 11.6174 3.35412  16
  -8  -2  -6 1.98268 1.68280  15
  -8  -2  -6 -2.1787 2.25979  13
  -8  -2  -6 -0.0410 2.20761  14
  -8  -2  -6 2.32202 2.25097  16
  -9   3   6 5.77837 0.89006  10
  -8   3   6 44.9810 3.25722  10
  -8   3   6 50.0850 3.37674   9
  -8   3   6 39.9641 4.44098  15
  -7   3   6 3.38805 1.42291   9
  -7   3   6 5.99755 2.07869  15
  -7   3   6 4.73206 1.37205  10
  -7   3   6 9.73171 3.07306  14
  -6   3   6 243.417 19.4325   8
  -6   3   6 267.854 22.7771  14
  -6   3   6 230.082 14.2785  10
  -6   3   6 257.969 15.4029   9
  -5   3   6 142.835 9.74977   2
  -5   3   6 173.054 9.98349   9
  -5   3   6 129.404 9.37142   3
  -5   3   6 165.089 12.1569   8
  -4   3   6 46.2149 4.59246   8
   2  -3  -6 153.359 10.1950   2
   2  -3  -6 156.862 9.69772   3
   1  -3  -6 293.626 18.1036   3
   1  -3  -6 286.939 18.3308   2
   1  -3  -6 303.683 18.7058   7
   0  -3  -6 106.663 7.32985   7
   0  -3  -6 108.546 6.74244   3
   0  -3  -6 108.948 7.10880   2
  -1  -3  -6 333.576 19.4880   2
  -1  -3  -6 323.806 19.4174   3
  -1  -3  -6 282.016 27.6427   4
  -1  -3  -6 329.205 20.2302   7
  -2  -3  -6 417.077 25.1424   3
  -2  -3  -6 422.134 26.1106   7
  -2  -3  -6 440.495 24.9863   2
  -2  -3  -6 366.335 35.6648   4
  -3  -3  -6 35.4239 4.04398   4
  -3  -3  -6 37.8219 3.19586   7
  -3  -3  -6 34.6001 3.46289  18
  -4  -3  -6 341.558 26.4088  17
  -4  -3  -6 304.729 19.8137  11
  -4  -3  -6 305.451 22.4510  15
  -4  -3  -6 305.316 16.7817  10
  -4  -3  -6 313.230 20.5040  18
  -4  -3  -6 307.416 24.1870  16
  -4  -3  -6 317.990 20.3358   7
  -4  -3  -6 325.215 27.4960   4
  -5  -3  -6 2.63604 1.54911  18
  -5  -3  -6 1.68813 1.78834  16
  -5  -3  -6 0.91716 1.12485   7
  -5  -3  -6 2.81986 1.71528  15
  -5  -3  -6 1.84548 1.39460  11
  -5  -3  -6 2.78141 2.78197  17
  -6  -3  -6 75.6815 5.97668  18
  -6  -3  -6 61.8770 7.49664  16
  -6  -3  -6 74.7035 5.60226  11
  -6  -3  -6 64.4287 5.68935  12
  -6  -3  -6 63.7904 6.51087  15
  -6  -3  -6 70.8464 8.39230  17
  -7  -3  -6 28.6448 3.23343  18
  -7  -3  -6 25.6364 4.11448  16
  -7  -3  -6 24.3399 3.85920  15
  -7  -3  -6 26.1420 3.38161  12
  -7  -3  -6 25.8538 2.83348  11
  -7  -3  -6 29.0609 4.17960  13
  -7  -3  -6 24.5238 4.76626  17
  -8  -3  -6 19.2842 2.62593  12
  -8  -3  -6 13.3094 2.13794  18
  -8  -3  -6 18.5688 2.17308  11
  -8  -3  -6 16.6706 3.03794  13
  -8   4   6 43.7533 3.18236  10
  -8   4   6 40.5241 4.30894  15
  -8   4   6 40.4833 2.98652   9
  -7   4   6 52.9666 5.62910  15
  -7   4   6 42.2418 3.49790  10
  -7   4   6 48.0533 3.82614   9
  -6   4   6 15.5737 2.22961   8
  -6   4   6 16.2426 2.37741   9
  -6   4   6 18.3420 2.42570  10
  -5   4   6 3.85890 1.12697   8
  -5   4   6 3.59611 0.67866   3
  -5   4   6 2.33562 0.99966   2
  -5   4   6 4.39377 1.28320   6
  -5   4   6 3.66558 1.65462   9
  -4   4   6 300.660 23.5720   8
   2  -4  -6 494.642 28.9854   3
   2  -4  -6 445.104 29.0801   2
   1  -4  -6 229.200 14.7873   2
   1  -4  -6 242.563 15.1257   7
   1  -4  -6 235.082 14.5224   3
   0  -4  -6 41.4208 5.18520   4
   0  -4  -6 54.2843 3.36965   3
   0  -4  -6 55.7733 3.84263   2
   0  -4  -6 57.7550 4.08513   7
  -1  -4  -6 119.478 7.40880   2
  -1  -4  -6 116.762 7.14259   3
  -1  -4  -6 105.190 10.6030   4
  -1  -4  -6 116.994 7.90946   7
  -2  -4  -6 118.943 7.06983   2
  -2  -4  -6 114.422 7.80746   7
  -2  -4  -6 110.842 6.91249   3
  -2  -4  -6 102.853 10.4432   4
  -3  -4  -6 229.700 19.5924   4
  -3  -4  -6 206.380 11.9593  10
  -3  -4  -6 209.211 17.3871  16
  -3  -4  -6 217.116 18.7740  17
  -3  -4  -6 206.249 14.1685  11
  -3  -4  -6 236.831 14.4828   7
  -3  -4  -6 225.872 14.5763  18
  -4  -4  -6 48.3950 6.12166  17
  -4  -4  -6 51.2406 2.97153  10
  -4  -4  -6 46.1150 6.15820  16
  -4  -4  -6 47.3718 5.38754  15
  -4  -4  -6 54.3746 4.41214   7
  -4  -4  -6 49.4674 4.55248  11
  -4  -4  -6 53.1824 4.59366  18
  -4  -4  -6 49.9251 4.41877  12
  -4  -4  -6 54.9866 5.49038   4
  -5  -4  -6 233.322 14.6156  11
  -5  -4  -6 228.293 15.1985  12
  -5  -4  -6 235.017 15.0784  18
  -5  -4  -6 189.703 17.6116  16
  -5  -4  -6 218.795 19.9504   4
  -5  -4  -6 227.450 19.6098  17
  -6  -4  -6 10.4845 2.23534  11
  -6  -4  -6 8.79952 2.15113  18
  -6  -4  -6 7.46532 2.04755  12
  -6  -4  -6 9.86991 3.16339  17
  -6  -4  -6 11.9288 3.36584  16
  -7  -4  -6 15.6663 3.11403  16
  -7  -4  -6 11.9234 3.90616  17
  -7  -4  -6 17.8281 2.76462  18
  -7  -4  -6 17.8243 2.38137  11
  -7  -4  -6 13.1804 2.81261  12
  -8  -4  -6 75.3608 5.61443  11
  -8  -4  -6 68.3137 6.17475  12
  -8  -4  -6 69.7286 5.61520  18
  -8   5   6 1.46145 0.73326   9
  -8   5   6 1.54827 0.88315  10
  -8   5   6 -0.2964 1.57437  15
  -7   5   6 56.0881 4.39216   9
  -7   5   6 49.0790 3.79699  10
  -7   5   6 54.8022 5.33460  15
  -6   5   6 120.391 8.18056   9
  -5   5   6 211.447 16.3833   8
  -5   5   6 185.690 13.4680   6
  -5   5   6 217.311 13.1367   9
  -4   5   6 93.9464 8.21703   8
  -4   5   6 92.8919 6.72253   6
   1  -5  -6 4.32939 1.07475   2
   1  -5  -6 3.74733 0.49424   3
   1  -5  -6 3.15292 1.33680   4
   0  -5  -6 261.021 26.1919   4
   0  -5  -6 322.840 18.6244   2
   0  -5  -6 312.776 18.4240   3
  -1  -5  -6 11.4673 0.88304   3
  -1  -5  -6 10.5449 2.00468   4
  -1  -5  -6 11.0764 1.32200   2
  -2  -5  -6 483.951 42.7984   4
  -2  -5  -6 510.171 30.1553   3
  -2  -5  -6 536.504 29.9615   2
  -2  -5  -6 423.401 30.6164  11
  -3  -5  -6 77.3090 4.92671   2
  -3  -5  -6 88.9234 8.00441   4
  -3  -5  -6 75.4339 6.35921  12
  -3  -5  -6 73.0356 4.74995   9
  -3  -5  -6 80.8403 4.85323   3
  -3  -5  -6 82.4887 6.14008  18
  -3  -5  -6 72.2611 8.36836  17
  -3  -5  -6 78.9325 6.05498  11
  -3  -5  -6 79.2918 4.65269  10
  -4  -5  -6 170.569 15.4239   4
  -4  -5  -6 167.444 11.3886  11
  -4  -5  -6 140.988 13.6828  16
  -4  -5  -6 177.443 11.7163  18
  -4  -5  -6 162.685 11.8371  12
  -4  -5  -6 176.226 9.22189  10
  -4  -5  -6 165.400 15.4617  17
  -5  -5  -6 106.290 7.53609  18
  -5  -5  -6 100.626 7.80158  12
  -5  -5  -6 100.353 7.13062  11
  -5  -5  -6 86.0262 9.28104   4
  -5  -5  -6 84.7536 9.77742  17
  -6  -5  -6 4.81862 3.25405  17
  -6  -5  -6 3.81426 1.84741  18
  -6  -5  -6 3.43296 1.62890  12
  -6  -5  -6 3.86372 1.49472  11
  -7  -5  -6 177.968 12.1986  11
  -7  -5  -6 174.081 12.8420  12
  -7  -5  -6 186.801 12.5329  18
  -8  -5  -6 17.6663 2.32403  11
  -8  -5  -6 10.7981 2.37661  12
  -9  -5  -6 21.3561 2.69668  12
  -8   6   6 53.7486 4.67164  15
  -7   6   6 44.9989 4.45739  15
  -7   6   6 41.3249 3.46378   9
  -7   6   6 41.2325 3.24698  10
  -6   6   6 162.360 12.8034  15
  -6   6   6 175.266 13.4272   8
  -6   6   6 154.232 10.6589   9
  -5   6   6 186.944 15.6719   8
  -5   6   6 208.547 12.6795   9
  -4   6   6 7.68033 1.82743   8
  -4   6   6 8.06862 1.51858   6
  -3   6   6 216.833 17.4627   8
   2  -6  -6 4.68227 1.85236   8
   2  -6  -6 4.34337 1.45549   4
   1  -6  -6 210.684 12.8051   2
   1  -6  -6 180.763 17.8729   4
   1  -6  -6 189.921 16.0384   8
   1  -6  -6 210.892 12.4064   3
   0  -6  -6 42.5469 5.01355   4
   0  -6  -6 43.5320 4.55314   8
   0  -6  -6 52.8288 3.69852   2
   0  -6  -6 49.3888 3.14594   3
  -1  -6  -6 262.319 21.6080   8
  -1  -6  -6 309.904 17.3009   3
  -1  -6  -6 304.701 17.4394   2
  -1  -6  -6 283.984 24.8579   4
  -1  -6  -6 271.091 15.7471  10
  -1  -6  -6 251.796 17.7133  11
  -1  -6  -6 265.515 16.6999   9
  -2  -6  -6 5.04941 1.46333  11
  -2  -6  -6 4.05203 0.79695   2
  -2  -6  -6 4.46943 1.12680   9
  -2  -6  -6 3.35091 0.89016  10
  -2  -6  -6 2.92273 1.37311   4
  -2  -6  -6 3.31440 0.41851   3
  -2  -6  -6 4.39106 1.18352  18
  -2  -6  -6 3.50651 1.62590  12
  -2  -6  -6 2.96492 1.98302  17
  -3  -6  -6 84.0295 6.40725  18
  -3  -6  -6 89.2341 6.91240  12
  -3  -6  -6 84.4362 8.32298   4
  -3  -6  -6 85.8327 4.96376  10
  -3  -6  -6 74.8287 8.92984  17
  -3  -6  -6 88.8731 6.38221  11
  -3  -6  -6 78.7210 5.16612   9
  -3  -6  -6 82.4813 5.14829   3
  -3  -6  -6 81.8567 5.30672   2
  -4  -6  -6 297.980 26.8277   4
  -4  -6  -6 308.300 19.9793  18
  -4  -6  -6 305.790 19.3577  11
  -4  -6  -6 245.880 25.2879  17
  -4  -6  -6 320.471 16.4223  10
  -4  -6  -6 324.363 20.7344  12
  -5  -6  -6 11.1419 0.90577  10
  -5  -6  -6 8.60085 3.67986  17
  -5  -6  -6 10.2308 2.28900  18
  -5  -6  -6 9.27261 2.16539   4
  -5  -6  -6 12.6482 2.37075  11
  -5  -6  -6 7.89728 2.45874  12
  -6  -6  -6 332.834 20.8776  11
  -6  -6  -6 326.329 22.2674  12
  -6  -6  -6 318.614 21.4538  18
  -7  -6  -6 55.0277 5.06506  18
  -7  -6  -6 62.6805 5.03585  11
  -7  -6  -6 64.9404 6.18469  12
  -8  -6  -6 47.1764 3.97444  11
  -8  -6  -6 44.8960 4.47289  12
  -7   7   6 10.7340 1.67336   9
  -7   7   6 14.5305 2.22881  15
  -7   7   6 8.15907 1.28295  10
  -6   7   6 112.470 7.75818   9
  -6   7   6 103.301 8.85838   8
  -6   7   6 116.930 8.83176  15
  -5   7   6 1.93234 1.83863   8
  -5   7   6 2.37563 1.38919  15
  -5   7   6 0.98823 1.62632   9
  -4   7   6 154.124 12.5267   8
  -4   7   6 143.817 10.1605   6
   3  -7  -6 26.4395 3.82923   4
  -3   7   6 26.4153 3.55548   8
  -3   7   6 29.0237 2.77082   6
   2  -7  -6 34.3119 4.39882   4
   2  -7  -6 37.8161 4.33185   8
  -2   7   6 41.8793 3.26428   6
   1  -7  -6 16.1977 1.32051   3
   1  -7  -6 13.5213 2.54048   4
   1  -7  -6 14.9441 2.61653   8
   1  -7  -6 18.5123 2.13068   2
   0  -7  -6 140.338 8.44873   2
   0  -7  -6 118.402 11.8362   4
   0  -7  -6 124.078 7.59966  10
   0  -7  -6 111.687 8.59820  11
   0  -7  -6 132.274 7.95945   3
   0  -7  -6 123.157 8.37692   9
   0  -7  -6 123.184 10.4141   8
  -1  -7  -6 222.593 12.6120  10
  -1  -7  -6 224.486 13.8021   3
  -1  -7  -6 245.239 14.0939   2
  -1  -7  -6 212.386 17.3778   8
  -1  -7  -6 216.964 13.6065   9
  -1  -7  -6 227.611 20.0752   4
  -1  -7  -6 207.586 14.3151  11
  -2  -7  -6 4.94559 1.62432  12
  -2  -7  -6 -0.0806 0.74533  10
  -2  -7  -6 0.41240 1.18387   4
  -2  -7  -6 0.59348 0.25573   3
  -2  -7  -6 1.09076 1.12423  18
  -2  -7  -6 0.58867 1.20098  11
  -3  -7  -6 73.5612 4.37080  10
  -3  -7  -6 68.5733 5.51090  18
  -3  -7  -6 68.7337 4.63242   2
  -3  -7  -6 72.8970 7.31758   4
  -3  -7  -6 66.6591 4.37631   3
  -3  -7  -6 74.4472 4.66728   9
  -3  -7  -6 64.6586 5.53496  11
  -3  -7  -6 70.7783 6.29695  12
  -4  -7  -6 4.89935 1.56492   4
  -4  -7  -6 5.09797 0.88991  10
  -4  -7  -6 5.29571 2.43238  12
  -4  -7  -6 4.25633 1.63801  11
  -4  -7  -6 5.04181 1.82457  18
  -5  -7  -6 192.235 11.0363  10
  -5  -7  -6 208.347 14.9681  12
  -5  -7  -6 211.336 13.4338  11
  -5  -7  -6 206.185 13.9055  18
  -6  -7  -6 19.5648 2.63874  11
  -6  -7  -6 21.8062 2.88542  18
  -6  -7  -6 14.9640 3.33659  12
  -7  -7  -6 79.1893 6.03746  11
  -7  -7  -6 84.0805 7.37991  12
  -8  -7  -6 68.0360 4.77022  11
  -8  -7  -6 54.6041 5.29577  12
  -7   8   6 47.0190 3.43721   9
  -7   8   6 55.0364 3.48945  10
  -6   8   6 2.27175 1.25835   9
  -6   8   6 1.10016 1.17517  15
  -5   8   6 113.678 8.40022   9
  -5   8   6 114.166 9.08811  15
  -5   8   6 118.049 9.93823   8
  -4   8   6 35.9073 4.19712  15
  -4   8   6 42.6411 5.13788   8
   2  -8  -6 71.4057 7.76826   4
   2  -8  -6 83.2517 7.56236   8
   1  -8  -6 39.2104 3.64333  11
   1  -8  -6 46.3577 4.80458   8
   1  -8  -6 41.5417 4.83032   4
   0  -8  -6 264.096 16.0009   9
   0  -8  -6 276.294 20.6155   8
   0  -8  -6 244.140 16.1155   3
   0  -8  -6 265.898 16.6917  11
   0  -8  -6 260.648 23.2359   4
   0  -8  -6 257.359 16.4290   2
  -1  -8  -6 15.6868 2.33411   9
  -1  -8  -6 17.0227 2.95596   4
  -1  -8  -6 17.9365 1.36949   3
  -1  -8  -6 16.8638 2.36207  11
  -1  -8  -6 17.0780 1.82016  10
  -1  -8  -6 16.4181 2.33850   8
  -2  -8  -6 160.304 15.0867   4
  -2  -8  -6 179.768 12.4293  12
  -2  -8  -6 156.440 10.1437   3
  -2  -8  -6 154.498 10.9143  11
  -2  -8  -6 166.044 10.1221   9
  -2  -8  -6 170.947 9.41945  10
  -3  -8  -6 242.044 12.7099  10
  -3  -8  -6 214.961 20.4361   4
  -3  -8  -6 230.226 16.2019  12
  -3  -8  -6 223.221 14.6839  11
  -3  -8  -6 234.231 13.4802   9
  -3  -8  -6 210.158 15.0458  18
  -4  -8  -6 243.093 17.1251  18
  -4  -8  -6 249.906 18.1266  12
  -4  -8  -6 267.327 14.1826  10
  -4  -8  -6 259.426 16.6071  11
  -5  -8  -6 103.988 5.80952  10
  -5  -8  -6 90.3170 8.41101  12
  -5  -8  -6 101.775 7.30171  11
  -5  -8  -6 98.7718 7.62098  18
  -6  -8  -6 18.9674 3.15715  12
  -6  -8  -6 16.6334 2.46882  11
  -7  -8  -6 15.1705 2.17262  11
  -7  -8  -6 16.9768 2.76152  12
  -8  -8  -6 0.80715 0.90611  11
  -8  -8  -6 -0.6216 1.19112  12
  -6   9   6 63.9245 4.65793   9
  -5   9   6 27.1113 3.25864   8
  -5   9   6 31.2619 3.47874   9
  -4   9   6 83.5319 7.99773   8
   3  -9  -6 209.002 18.2177   8
  -3   9   6 239.332 18.7018   8
   2  -9  -6 -0.2137 1.50583   8
   1  -9  -6 128.104 9.37148   9
   1  -9  -6 128.264 11.0969   8
   0  -9  -6 37.4914 4.75212   4
   0  -9  -6 42.6905 4.40850   8
  -1  -9  -6 138.001 8.01604  10
  -1  -9  -6 138.035 8.75591   9
  -1  -9  -6 131.389 9.10286  11
  -1  -9  -6 118.557 12.4164   4
  -1  -9  -6 135.507 10.7422   8
  -2  -9  -6 34.3156 3.19985   9
  -2  -9  -6 32.6466 3.46605  11
  -2  -9  -6 30.1406 4.27066   4
  -2  -9  -6 39.5123 2.94746  10
  -2  -9  -6 35.4970 4.24239  12
  -3  -9  -6 472.179 24.2564  10
  -3  -9  -6 427.987 25.6954   9
  -3  -9  -6 463.815 29.7881  12
  -3  -9  -6 415.673 27.5069  11
  -4  -9  -6 111.182 6.40119  10
  -4  -9  -6 102.751 7.71820  11
  -4  -9  -6 107.317 9.26223  12
  -5  -9  -6 38.3816 2.50440  10
  -5  -9  -6 31.7266 4.16468  12
  -5  -9  -6 34.6456 3.30925  11
  -6  -9  -6 68.1628 6.42494  12
  -6  -9  -6 66.0043 5.01278  11
  -7  -9  -6 29.2729 3.13944  12
  -7  -9  -6 22.5844 2.38181  11
  -6  10   6 44.5141 3.31417   9
  -5  10   6 -0.1543 0.68410   8
  -5  10   6 -0.6876 1.02649  16
  -5  10   6 1.35808 1.23697   9
   4 -10  -6 165.223 13.2452   8
  -4  10   6 148.069 12.9847   8
   3 -10  -6 4.96172 1.71547   8
  -3  10   6 4.86185 2.29435   8
   2 -10  -6 206.733 16.2811   8
  -2  10   6 187.215 16.7213   8
   1 -10  -6 264.527 17.0620   9
   1 -10  -6 287.053 22.0852   8
   0 -10  -6 11.6345 2.22177   9
   0 -10  -6 9.68840 2.01008   8
  -1 -10  -6 89.9799 7.71586   8
  -1 -10  -6 92.6636 7.68528  12
  -1 -10  -6 97.8968 6.68224   9
  -1 -10  -6 94.1954 5.89642  10
  -2 -10  -6 50.6337 3.80003  10
  -2 -10  -6 51.2842 4.18361   9
  -2 -10  -6 56.1536 5.70631  12
  -3 -10  -6 20.4623 2.12421  10
  -3 -10  -6 15.1945 1.80271   9
  -3 -10  -6 19.7116 3.11790  12
  -4 -10  -6 2.09953 2.26330  12
  -4 -10  -6 1.00528 1.20058  11
  -4 -10  -6 2.53006 0.68466  10
  -5 -10  -6 177.295 12.3576  12
  -5 -10  -6 169.009 9.23271  10
  -5 -10  -6 157.178 10.7787  11
  -6 -10  -6 1.11991 0.84455  11
  -6 -10  -6 0.82582 1.25777  12
   4 -11  -6 11.4145 1.84641   8
  -4  11   6 8.65374 1.72355   9
  -4  11   6 7.10083 1.42562   8
   3 -11  -6 63.1514 5.40315   8
  -3  11   6 46.9585 5.38375   8
   2 -11  -6 143.165 10.9818   8
  -2  11   6 114.000 11.3115   8
   1 -11  -6 67.6464 5.10162   9
   1 -11  -6 64.0839 6.14814   8
   0 -11  -6 109.590 7.25649   9
   0 -11  -6 103.395 8.76493   8
  -1 -11  -6 -0.2571 0.97732   9
  -1 -11  -6 -0.3600 1.24758  12
  -1 -11  -6 0.44055 1.01491  10
  -1 -11  -6 0.14131 0.46012   8
  -2 -11  -6 65.5352 4.51505   9
  -2 -11  -6 55.7461 5.36039  12
  -2 -11  -6 57.0603 3.97742  10
  -3 -11  -6 102.004 7.77997  12
  -3 -11  -6 93.1107 6.01587   9
  -3 -11  -6 101.424 5.98160  10
  -4 -11  -6 41.0588 4.45349  12
  -4 -11  -6 35.1962 2.48535  10
  -5 -11  -6 2.82602 0.55809  10
  -5 -11  -6 2.49409 1.35262  12
  -6 -11  -6 33.1511 3.08350  12
   3 -12  -6 29.2556 2.61932   8
  -3  12   6 17.5389 2.49649   8
   2 -12  -6 11.7889 1.73067   8
   1 -12  -6 50.9603 4.28313   8
   1 -12  -6 58.0814 4.50364  12
  -1  12   6 32.2214 4.79164   8
   0 -12  -6 0.69729 0.96766   9
   0 -12  -6 1.61975 1.36120  12
   0 -12  -6 1.33888 0.52501   8
  -1 -12  -6 110.294 8.21586  12
  -1 -12  -6 111.921 6.56760  10
  -1 -12  -6 105.360 6.97820   9
  -2 -12  -6 17.7429 1.71126   9
  -2 -12  -6 19.8920 1.77910  10
  -2 -12  -6 13.9292 2.15158  12
  -3 -12  -6 38.6553 3.81975  12
  -3 -12  -6 42.3470 2.78361  10
  -4 -12  -6 59.8206 5.07922  12
  -4 -12  -6 67.6431 3.81369  10
   0 -13  -6 67.3265 4.58764   9
  -1 -13  -6 86.1425 5.33693   9
  -2 -13  -6 17.0993 2.19219  12
   3   7  -7 23.2618 2.69104   8
  -3  -7   7 29.7644 2.54289   8
   2   7  -7 1.37343 0.75268   8
  -2  -7   7 1.58654 0.82844   8
   1   7  -7 40.6700 4.81638  17
   1   7  -7 45.4155 4.05865   9
  -1  -7   7 56.9937 4.80781   8
   0   7  -7 49.3160 4.04513   9
   0   7  -7 53.3698 5.43584  17
  -1   7  -7 19.7965 2.25817   9
  -1   7  -7 19.1600 3.07192  17
  -1   7  -7 19.2119 2.07166  10
  -2   7  -7 38.3846 4.34179  17
  -2   7  -7 36.9014 2.74563  10
  -3   7  -7 1.70206 0.57360  10
  -3   7  -7 0.94654 1.10088  17
  -4  -6   7 57.3615 4.76251   8
   3   6  -7 5.08352 1.95042   8
  -3  -6   7 9.43218 1.69019   8
   2   6  -7 45.8410 5.25885   8
  -2  -6   7 56.2008 5.22442   8
   1   6  -7 36.2439 4.06742   9
   1   6  -7 38.5635 4.09796   8
   1   6  -7 39.6343 5.15580  17
   0   6  -7 2.70872 2.17131   9
   0   6  -7 2.18094 1.73427  17
  -1   6  -7 97.6278 6.75884   9
  -1   6  -7 92.0808 9.31879  17
  -1   6  -7 98.0336 6.49201  10
  -2   6  -7 1.59743 1.79130  17
  -2   6  -7 0.43686 1.03058   9
  -2   6  -7 1.71261 1.02402  10
  -3   6  -7 54.6614 3.64452  10
  -3   6  -7 49.1946 5.71995  17
  -4   6  -7 19.0044 1.55339  10
   5   5  -7 10.1924 2.31900   8
  -5  -5   7 12.8408 1.34029   8
  -5  -5   7 10.4021 1.65166   9
  -5  -5   7 14.9739 2.77733  14
  -4  -5   7 27.0934 2.90551   8
   3   5  -7 1.05692 2.19556   8
  -3  -5   7 1.20803 1.04698   8
   2   5  -7 31.7472 4.65619   8
   1   5  -7 2.24503 1.83393  17
   1   5  -7 1.66454 2.44720   9
   1   5  -7 4.15402 1.73303   8
   0   5  -7 102.840 7.70514   9
   0   5  -7 100.184 8.79224   8
   0   5  -7 104.101 10.2030  17
  -1   5  -7 3.96271 1.33767  10
  -1   5  -7 3.03542 2.80038  17
  -1   5  -7 1.91788 2.01153   9
  -2   5  -7 91.6875 6.06311  10
  -2   5  -7 89.0378 9.57145  17
  -2   5  -7 81.1094 6.21882   9
  -3   5  -7 70.9429 7.51565  17
  -3   5  -7 62.4010 4.46786  10
  -4   5  -7 5.20027 1.79209  16
  -4   5  -7 4.98824 2.19776  17
  -4   5  -7 5.46373 0.99340  10
  -5   5  -7 68.7709 6.65503  16
  -5   5  -7 85.3939 7.62124  17
  -6  -4   7 2.09897 1.78668  14
  -6  -4   7 3.18264 1.02559   9
  -5  -4   7 44.7898 4.03450   8
  -5  -4   7 38.8116 3.69037   9
   4   4  -7 4.14438 2.65132   8
  -4  -4   7 3.06761 1.49434   8
   3   4  -7 101.016 10.0309   8
  -3  -4   7 98.2651 8.74309   8
   2   4  -7 8.02530 3.06358   8
   1   4  -7 15.2724 3.70952  17
   1   4  -7 7.68055 2.32935   9
   1   4  -7 10.0782 2.65731   8
   0   4  -7 5.33653 2.06508   8
   0   4  -7 5.84445 3.04944  17
   0   4  -7 5.58962 2.47468   9
  -1   4  -7 93.1299 6.18528  10
  -1   4  -7 89.9489 7.26304   8
  -1   4  -7 72.7100 6.75163  18
  -1   4  -7 95.9246 9.62576  17
  -1   4  -7 101.137 7.32101   9
  -2   4  -7 35.1822 5.42087  17
  -2   4  -7 34.1201 3.84071   9
  -2   4  -7 36.2412 3.50678  10
  -3   4  -7 0.80667 0.88314  10
  -3   4  -7 1.03411 1.57059  16
  -3   4  -7 0.81152 2.73591  17
  -3   4  -7 1.29046 0.81809   9
  -4   4  -7 461.234 25.5498  10
  -4   4  -7 469.873 34.8525  16
  -4   4  -7 474.868 38.4017  17
  -5   4  -7 2.82769 2.10215  17
  -5   4  -7 2.29719 1.87797  16
  -5   4  -7 2.55148 0.52406  10
  -6   4  -7 11.3757 2.38730  17
  -6   4  -7 21.8510 3.08455  16
  -7  -3   7 1.91220 0.69553   9
  -6  -3   7 48.4095 3.81136   8
  -6  -3   7 62.9538 7.15188  14
  -6  -3   7 41.1710 3.74437   9
  -5  -3   7 0.28531 1.10130   9
  -5  -3   7 -0.5395 1.02523   8
  -4  -3   7 35.4472 4.08849   8
   3   3  -7 29.9079 5.14065   8
  -3  -3   7 29.7019 3.64302   8
   2   3  -7 50.6618 6.48731   8
   1   3  -7 25.6853 3.81091   8
   1   3  -7 19.3581 2.72635   7
   1   3  -7 22.5752 4.23040  17
   1   3  -7 20.7691 3.57910   9
   0   3  -7 0.57535 1.37423   7
   0   3  -7 2.57555 1.88732   8
   0   3  -7 2.00643 2.13761   9
   0   3  -7 3.33318 2.66787  17
   0   3  -7 2.81867 1.57123  10
  -1   3  -7 167.912 12.0931   7
  -1   3  -7 186.722 15.8127  17
  -1   3  -7 175.085 10.4431  10
  -1   3  -7 163.634 13.6562   8
  -1   3  -7 169.487 11.3445   9
  -2   3  -7 6.01758 2.63498  17
  -2   3  -7 5.71415 1.88869   9
  -2   3  -7 3.75046 1.54359   7
  -2   3  -7 4.83000 1.87222  18
  -2   3  -7 6.18978 1.62666  10
  -3   3  -7 88.2190 6.20779   9
  -3   3  -7 110.929 10.7844  17
  -3   3  -7 102.257 6.42235  10
  -3   3  -7 98.4718 9.08687  16
  -4   3  -7 34.3247 2.90487  10
  -4   3  -7 36.0278 4.89756  16
  -4   3  -7 35.0683 5.50408  17
  -4   3  -7 32.2540 4.38480  15
  -5   3  -7 102.064 5.97968  10
  -5   3  -7 114.927 9.94861  16
  -5   3  -7 117.508 11.2765  17
  -5   3  -7 100.524 9.19520  15
  -6   3  -7 72.9938 7.54830  16
  -6   3  -7 87.9051 8.71902  17
  -6   3  -7 77.7251 6.89798  15
  -7   3  -7 5.71426 2.03685  16
  -7  -2   7 27.9833 4.34773  14
  -7  -2   7 24.0072 2.28172  10
  -7  -2   7 31.9443 2.74039   9
  -6  -2   7 9.79579 3.06320  14
  -6  -2   7 7.46010 1.28335   8
  -6  -2   7 10.6602 1.84141   9
  -5  -2   7 69.0193 6.35316   8
  -5  -2   7 76.7567 5.82164   9
  -4  -2   7 148.760 12.4320   8
   3   2  -7 42.1283 6.11146   8
   2   2  -7 175.010 15.3973   8
   1   2  -7 0.02220 0.75508   7
   1   2  -7 0.77210 0.35298   3
   1   2  -7 0.64009 1.26670   2
   1   2  -7 0.79217 2.02266   9
   1   2  -7 0.80855 1.83358   8
   0   2  -7 401.610 30.0250   8
   0   2  -7 386.725 23.3415   9
   0   2  -7 350.440 21.4317  10
   0   2  -7 387.640 24.7362   7
   0   2  -7 389.688 31.4153  17
   0   2  -7 370.001 23.9664   2
  -1   2  -7 25.2340 2.77146   2
  -1   2  -7 23.0278 2.76894  10
  -1   2  -7 27.5275 3.03547   7
  -1   2  -7 24.8332 1.83446   3
  -1   2  -7 26.6363 4.44851  17
  -1   2  -7 24.8459 3.00556   8
  -1   2  -7 26.7061 3.32241   9
  -2   2  -7 94.0104 9.17667  17
  -2   2  -7 89.0490 5.48386  10
  -2   2  -7 74.5153 7.92644  16
  -2   2  -7 72.2011 6.76205  18
  -2   2  -7 76.6008 5.66244   2
  -2   2  -7 79.2198 6.40131   7
  -2   2  -7 79.9384 5.93656   9
  -3   2  -7 66.0726 4.39253  10
  -3   2  -7 57.0926 6.17558  15
  -3   2  -7 59.9696 7.64571  17
  -3   2  -7 57.9620 5.32365   7
  -3   2  -7 58.0324 4.19930   9
  -3   2  -7 57.7391 5.46108  18
  -3   2  -7 62.9528 6.60546  16
  -4   2  -7 0.55845 0.85057  10
  -4   2  -7 1.92958 1.95302  15
  -4   2  -7 1.79397 2.78285  17
  -4   2  -7 0.91466 1.82410  16
  -5   2  -7 31.0462 5.07614  17
  -5   2  -7 31.0602 4.84985  16
  -5   2  -7 30.4681 2.01273  10
  -5   2  -7 29.6646 4.80326  15
  -6   2  -7 17.4552 4.09394  17
  -6   2  -7 10.4617 3.37340  16
  -6   2  -7 11.1686 2.75362  15
  -7   2  -7 51.9476 6.24883  17
  -7   2  -7 48.0067 5.71680  16
  -7   2  -7 54.3374 5.21502  15
  -8  -1   7 22.5619 3.44625  14
  -7  -1   7 4.09159 1.14616   9
  -7  -1   7 3.77416 2.15394  14
  -7  -1   7 2.88316 0.96567  10
  -6  -1   7 73.8380 8.31823  14
  -6  -1   7 75.2385 5.48334   9
  -6  -1   7 64.3181 5.90776   8
  -5  -1   7 144.648 12.1740   8
  -5  -1   7 154.939 9.87587   9
  -4  -1   7 24.0068 3.24193   8
   3   1  -7 318.171 26.0525   8
   2   1  -7 0.96610 1.39205   8
   1   1  -7 224.600 13.8710   7
   1   1  -7 201.509 13.5559   2
   1   1  -7 192.620 12.8198   3
   1   1  -7 191.560 13.3233   9
   1   1  -7 234.020 17.3739   8
   0   1  -7 145.912 9.77706  10
   0   1  -7 165.676 10.1638   3
   0   1  -7 179.481 11.3597   7
   0   1  -7 153.979 14.3355  17
   0   1  -7 164.042 13.5551   8
   0   1  -7 157.899 10.8496   9
   0   1  -7 165.838 10.8449   2
  -1   1  -7 186.506 16.5190  17
  -1   1  -7 177.703 11.0682  10
  -1   1  -7 186.738 12.0257   9
  -1   1  -7 209.186 12.9918   7
  -1   1  -7 186.900 14.9275   8
  -1   1  -7 185.414 12.1731   2
  -2   1  -7 73.0929 7.98538  17
  -2   1  -7 71.1265 5.28285   9
  -2   1  -7 65.2473 6.29433  18
  -2   1  -7 78.3114 5.94748   7
  -2   1  -7 76.1081 4.97990  10
  -2   1  -7 70.9702 5.06384   2
  -2   1  -7 73.2564 4.64061   3
  -2   1  -7 68.2691 7.00574  16
  -3   1  -7 1.18639 2.17840  16
  -3   1  -7 1.29676 0.25144   3
  -3   1  -7 1.14460 1.26476   7
  -3   1  -7 1.75369 2.28684  15
  -3   1  -7 1.92452 2.29116  17
  -3   1  -7 2.35180 1.01847  10
  -3   1  -7 1.61623 0.85831   9
  -3   1  -7 -0.2551 1.52745  18
  -3   1  -7 0.65328 0.48649   2
  -4   1  -7 173.680 14.3123  17
  -4   1  -7 134.327 10.2801   7
  -4   1  -7 142.208 12.0207  15
  -4   1  -7 151.461 8.42154  10
  -4   1  -7 147.541 13.0610  16
  -4   1  -7 132.372 10.4178  18
  -5   1  -7 15.1228 3.58485  17
  -5   1  -7 17.1528 4.11935  16
  -5   1  -7 18.5295 3.68280  15
  -6   1  -7 101.629 9.52915  15
  -6   1  -7 92.3346 9.58032  16
  -6   1  -7 114.789 10.9145  17
  -7   1  -7 31.2370 4.72654  17
  -7   1  -7 25.5792 4.10271  15
  -7   1  -7 22.9285 4.26540  16
  -8   1  -7 45.6350 4.10582  15
  -8   1  -7 27.6103 3.96147  16
  -8   0   7 31.9199 2.37045  10
  -8   0   7 31.0523 2.12519   9
  -8   0   7 30.9333 4.14138  14
  -7   0   7 0.39041 1.25593   9
  -7   0   7 -1.0490 2.56826  14
  -7   0   7 1.49361 1.09898  10
  -6   0   7 120.437 8.01435   9
  -6   0   7 122.918 12.2726  14
  -6   0   7 116.493 9.76785   8
  -5   0   7 3.22477 1.33597   8
  -5   0   7 4.22207 1.46053   9
  -4   0   7 152.319 12.6192   8
   3   0  -7 0.14658 1.41360   8
   2   0  -7 111.258 10.3263   8
   1   0  -7 178.075 11.1564   3
   1   0  -7 166.968 11.7986   9
   1   0  -7 191.472 12.0679   7
   1   0  -7 178.202 14.8753   8
   1   0  -7 177.884 11.8232   2
   0   0  -7 1.39865 1.02843   2
   0   0  -7 1.31492 1.66368  17
   0   0  -7 1.25490 0.32243   3
   0   0  -7 0.69186 1.54592   9
   0   0  -7 3.35603 1.21833  10
   0   0  -7 1.49676 1.28633   8
   0   0  -7 3.15133 1.17298   7
  -1   0  -7 23.4415 2.71382   9
  -1   0  -7 19.1202 2.41050   8
  -1   0  -7 22.1359 2.21069   2
  -1   0  -7 22.7232 2.44276   7
  -1   0  -7 18.0974 3.56909  16
  -1   0  -7 22.5507 3.61550  17
  -1   0  -7 21.0326 2.10895  10
  -1   0  -7 22.0073 1.53185   3
  -2   0  -7 4.66832 1.14417  10
  -2   0  -7 2.75702 2.11194  16
  -2   0  -7 1.99008 1.92577  17
  -2   0  -7 3.00411 0.90306   2
  -2   0  -7 3.29016 1.30568   7
  -2   0  -7 1.84838 1.26713  18
  -2   0  -7 2.32554 1.15507   9
  -2   0  -7 2.49113 0.37281   3
  -3   0  -7 112.972 7.33576   2
  -3   0  -7 130.636 7.36773   3
  -3   0  -7 126.873 11.5661  17
  -3   0  -7 114.365 8.87570  18
  -3   0  -7 117.189 8.57736   7
  -3   0  -7 106.954 10.0046  15
  -3   0  -7 127.138 10.7556  16
  -3   0  -7 126.527 7.12168  10
  -3   0  -7 113.545 6.99693   9
  -4   0  -7 52.7903 6.75857  15
  -4   0  -7 53.1510 5.25276  18
  -4   0  -7 65.4899 7.42815  17
  -4   0  -7 61.1166 3.71260  10
  -4   0  -7 64.0368 7.18325  16
  -4   0  -7 57.2760 4.90011   7
  -5   0  -7 203.781 17.0828  17
  -5   0  -7 187.933 16.0380  16
  -5   0  -7 176.558 12.8920  18
  -5   0  -7 187.140 15.1848  15
  -6   0  -7 1.14331 2.05433  17
  -6   0  -7 0.93842 2.17975  16
  -6   0  -7 1.13762 2.20795  15
  -7   0  -7 30.8191 4.84372  16
  -7   0  -7 34.1652 4.72678  15
  -7   0  -7 33.4071 4.84844  17
  -8   0  -7 20.1951 2.98938  15
  -8   0  -7 17.1634 2.95901  16
  -8   1   7 4.75901 0.87216   9
  -8   1   7 3.97000 0.84877  10
  -8   1   7 5.18265 1.96015  14
  -7   1   7 291.275 15.4950   9
  -7   1   7 208.888 14.2314  10
  -7   1   7 270.550 22.9958  14
  -6   1   7 1.91559 1.09976   8
  -6   1   7 1.44968 1.39896   9
  -6   1   7 4.70360 2.95066  14
  -5   1   7 117.003 7.94285   9
  -5   1   7 108.513 9.41528   8
  -4   1   7 47.2933 4.80583   8
   2  -1  -7 171.903 10.5837   3
   2  -1  -7 168.935 14.4562   8
   2  -1  -7 163.735 11.2484   2
   1  -1  -7 25.7881 1.78489   3
   1  -1  -7 22.4708 2.40555   2
   1  -1  -7 23.7638 3.57894   8
   1  -1  -7 24.4464 2.52162   7
   0  -1  -7 291.710 17.3908   7
   0  -1  -7 259.710 20.9715   8
   0  -1  -7 268.196 16.7866   2
   0  -1  -7 230.086 16.1864   9
   0  -1  -7 275.727 16.4299   3
  -1  -1  -7 73.0133 5.58806   9
  -1  -1  -7 72.9188 6.31990  18
  -1  -1  -7 83.6492 5.03969   3
  -1  -1  -7 83.8381 5.51982   2
  -1  -1  -7 88.7855 6.00405   7
  -1  -1  -7 75.7259 5.12075  10
  -1  -1  -7 74.3279 6.55431   8
  -2  -1  -7 306.705 18.8660   7
  -2  -1  -7 294.866 17.7022   3
  -2  -1  -7 286.376 19.1860  18
  -2  -1  -7 303.477 24.1042  17
  -2  -1  -7 281.439 17.0092   9
  -2  -1  -7 268.543 22.2177  16
  -2  -1  -7 275.353 15.9907  10
  -2  -1  -7 291.940 17.7798   2
  -3  -1  -7 63.3302 6.41711  16
  -3  -1  -7 56.1284 6.40817  15
  -3  -1  -7 62.0335 5.31498  18
  -3  -1  -7 61.2785 4.95376   7
  -3  -1  -7 61.3519 6.85133  17
  -3  -1  -7 54.9604 3.74627  10
  -4  -1  -7 68.8479 4.27961  10
  -4  -1  -7 76.8062 8.08265  16
  -4  -1  -7 76.5501 5.94304   7
  -4  -1  -7 75.9020 6.21386  18
  -4  -1  -7 77.7835 7.80533  15
  -4  -1  -7 79.3648 8.02663  17
  -5  -1  -7 56.3605 4.83504   7
  -5  -1  -7 62.7076 7.26019  16
  -5  -1  -7 56.1524 6.90389  15
  -5  -1  -7 59.8350 5.38584  18
  -5  -1  -7 59.2037 6.96615  17
  -6  -1  -7 2.34847 1.70219  18
  -6  -1  -7 3.25784 2.30634  17
  -6  -1  -7 2.57078 2.82556  16
  -6  -1  -7 4.37952 2.60393  15
  -7  -1  -7 54.2454 6.95152  17
  -7  -1  -7 51.3778 5.75659  15
  -7  -1  -7 49.5938 5.95371  16
  -8  -1  -7 0.62973 1.55140  16
  -8  -1  -7 -0.6811 2.29699  15
  -8   2   7 69.1909 4.13488  10
  -8   2   7 56.9582 6.47976  14
  -7   2   7 40.9301 3.48946   9
  -7   2   7 40.7347 4.37845  15
  -7   2   7 38.6730 3.18559  10
  -7   2   7 47.1032 6.07584  14
  -6   2   7 17.3504 2.36745   8
  -6   2   7 13.8760 3.26212  14
  -6   2   7 19.5764 2.53424   9
  -5   2   7 75.5937 7.95568  14
  -5   2   7 66.5475 6.32298   8
  -5   2   7 72.3161 5.67063   9
  -4   2   7 86.7006 7.72029   8
   2  -2  -7 10.0811 0.85880   3
   2  -2  -7 9.58745 2.53197   8
   2  -2  -7 6.20523 1.57944   2
   1  -2  -7 247.113 21.3597   8
   1  -2  -7 276.784 16.6102   3
   1  -2  -7 272.953 17.0140   2
   1  -2  -7 275.636 17.3455   7
   0  -2  -7 43.3079 4.65563   8
   0  -2  -7 47.4873 3.89294   7
   0  -2  -7 49.6800 3.09088   3
   0  -2  -7 44.5682 3.64972   2
  -1  -2  -7 745.236 42.4527   3
  -1  -2  -7 694.388 52.5113   8
  -1  -2  -7 763.487 42.2757   2
  -1  -2  -7 674.472 40.0731   9
  -1  -2  -7 763.774 43.6085   7
  -1  -2  -7 603.222 59.7094   4
  -1  -2  -7 618.204 43.8070  18
  -2  -2  -7 172.584 10.6518  10
  -2  -2  -7 200.866 11.6448   3
  -2  -2  -7 177.100 15.3307  16
  -2  -2  -7 202.664 12.7161   7
  -2  -2  -7 197.797 16.4476  17
  -2  -2  -7 190.985 11.7592   2
  -2  -2  -7 176.968 11.2632   9
  -2  -2  -7 190.792 12.9819  18
  -3  -2  -7 21.4432 3.69283  17
  -3  -2  -7 21.8886 3.79875  15
  -3  -2  -7 23.9822 3.98518  16
  -3  -2  -7 21.1304 2.72597  18
  -3  -2  -7 17.4688 1.66703  10
  -3  -2  -7 20.5657 2.36616   7
  -3  -2  -7 20.4818 2.53278  11
  -4  -2  -7 370.589 26.7216  15
  -4  -2  -7 369.001 23.8820   7
  -4  -2  -7 387.526 30.6559  17
  -4  -2  -7 346.753 19.8097  10
  -4  -2  -7 390.520 24.1568  18
  -4  -2  -7 373.003 28.3081  16
  -5  -2  -7 -1.7372 2.49793  15
  -5  -2  -7 0.67737 2.50367  16
  -5  -2  -7 -0.1598 0.70025   7
  -5  -2  -7 1.76870 2.01618  17
  -5  -2  -7 1.82513 1.25798  18
  -6  -2  -7 69.8091 7.31630  16
  -6  -2  -7 75.2990 6.02923  18
  -6  -2  -7 70.9520 8.29740  17
  -6  -2  -7 71.2300 7.43134  15
  -6  -2  -7 50.7395 8.03858  14
  -7  -2  -7 4.69042 2.27028  15
  -7  -2  -7 8.70003 3.29723  17
  -7  -2  -7 3.85967 2.88322  16
  -7  -2  -7 6.24717 1.68457  18
  -8  -2  -7 22.1877 3.90108  17
  -8  -2  -7 28.1415 3.64206  16
  -8   3   7 25.7310 2.12483  10
  -7   3   7 25.4273 3.40752  15
  -7   3   7 26.6740 2.62690   9
  -7   3   7 22.9654 2.34011  10
  -6   3   7 24.2329 2.86745   9
  -6   3   7 21.0192 2.67975   8
  -5   3   7 13.5684 2.31977   8
  -5   3   7 16.3235 2.51875   9
  -4   3   7 217.694 17.4526   8
   2  -3  -7 206.813 13.8783   2
   2  -3  -7 199.539 17.5890   8
   2  -3  -7 227.855 13.3547   3
   1  -3  -7 133.683 12.4118   8
   1  -3  -7 155.608 9.43832   3
   1  -3  -7 151.687 9.95591   2
   1  -3  -7 160.556 10.1540   7
   0  -3  -7 292.434 29.3323   4
   0  -3  -7 353.657 21.4358   7
   0  -3  -7 346.616 20.5767   3
   0  -3  -7 347.253 20.8158   2
  -1  -3  -7 629.188 37.1562   3
  -1  -3  -7 578.456 35.1279   9
  -1  -3  -7 581.000 38.7505  18
  -1  -3  -7 555.704 52.4874   4
  -1  -3  -7 647.435 37.0163   2
  -1  -3  -7 654.666 38.2701   7
  -2  -3  -7 0.35329 0.66680  10
  -2  -3  -7 0.55695 0.18942   3
  -2  -3  -7 -0.2626 0.96395   4
  -2  -3  -7 -0.3250 1.31109  11
  -2  -3  -7 -0.5135 1.89021  16
  -2  -3  -7 1.07848 0.85315   9
  -2  -3  -7 0.11938 0.84081  18
  -2  -3  -7 0.71556 0.80410   7
  -2  -3  -7 0.68185 1.38087  17
  -2  -3  -7 0.66508 0.57084   2
  -3  -3  -7 264.040 21.3654  16
  -3  -3  -7 282.006 18.0183  18
  -3  -3  -7 278.973 24.0525   4
  -3  -3  -7 287.480 17.8742   7
  -3  -3  -7 268.927 22.8287  17
  -3  -3  -7 262.053 17.3506  11
  -3  -3  -7 260.088 14.8602  10
  -4  -3  -7 32.2596 3.20535   7
  -4  -3  -7 34.3278 4.73329  16
  -4  -3  -7 34.3505 4.35770  15
  -4  -3  -7 30.6339 3.22511  11
  -4  -3  -7 30.1576 3.28156  18
  -4  -3  -7 35.7587 5.42129  17
  -4  -3  -7 32.1211 1.99035  10
  -5  -3  -7 53.0651 4.68549   7
  -5  -3  -7 53.3719 6.25900  15
  -5  -3  -7 59.4109 4.57460  11
  -5  -3  -7 51.4105 6.63347  17
  -5  -3  -7 45.9837 6.69669  16
  -5  -3  -7 53.1227 4.97404  18
  -6  -3  -7 38.7362 5.95256  16
  -6  -3  -7 47.1309 4.73398  18
  -6  -3  -7 45.4719 6.18664  17
  -6  -3  -7 42.9778 5.62476  15
  -6  -3  -7 50.8759 4.28633  11
  -7  -3  -7 7.58978 1.41494  11
  -7  -3  -7 6.68438 2.66732  17
  -7  -3  -7 10.8047 2.83813  16
  -7  -3  -7 7.90499 2.85115  15
  -7  -3  -7 8.30839 2.21896  18
  -8  -3  -7 30.2159 2.83853  18
  -8  -3  -7 21.1672 3.98931  17
  -8   4   7 0.29936 1.10521  15
  -8   4   7 0.83144 0.78801   9
  -8   4   7 0.93475 0.64109  10
  -7   4   7 131.878 8.11852   9
  -7   4   7 120.543 9.75951  15
  -7   4   7 111.511 7.44125  10
  -6   4   7 34.3005 3.50887   8
  -6   4   7 37.5393 3.77022   9
  -5   4   7 49.2772 4.82524   8
  -5   4   7 50.2737 4.33416   9
  -4   4   7 35.3379 3.97212   8
   2  -4  -7 68.2795 4.21385   3
   2  -4  -7 59.1748 4.88408   2
   2  -4  -7 57.7622 6.40800   8
   1  -4  -7 65.1600 6.53301   8
   1  -4  -7 72.6115 4.49911   3
   1  -4  -7 72.3233 5.17225   7
   1  -4  -7 63.7535 5.05863   2
   0  -4  -7 470.634 44.8443   4
   0  -4  -7 529.109 32.6212   7
   0  -4  -7 552.384 31.7095   3
   0  -4  -7 525.288 31.7159   2
   0  -4  -7 507.454 39.5848   8
  -1  -4  -7 21.5141 1.84003   2
  -1  -4  -7 16.4336 1.97667   8
  -1  -4  -7 18.3751 2.27714   7
  -1  -4  -7 17.0688 1.24240   3
  -1  -4  -7 15.7408 2.78333   4
  -1  -4  -7 19.6250 2.14843   9
  -1  -4  -7 15.7320 1.82111  10
  -2  -4  -7 294.731 18.8831  18
  -2  -4  -7 316.610 17.6377   2
  -2  -4  -7 311.944 18.7836   7
  -2  -4  -7 285.620 16.7849   9
  -2  -4  -7 274.673 18.4161  11
  -2  -4  -7 245.853 22.0665  16
  -2  -4  -7 279.117 25.5148   4
  -2  -4  -7 279.211 23.9664  17
  -2  -4  -7 299.579 17.6115   3
  -2  -4  -7 266.480 15.8332  10
  -3  -4  -7 147.375 9.84513   7
  -3  -4  -7 140.762 7.96092  10
  -3  -4  -7 140.887 13.1635   4
  -3  -4  -7 150.836 10.0489  18
  -3  -4  -7 135.151 9.83634  11
  -3  -4  -7 133.193 12.8402  17
  -3  -4  -7 134.287 12.3558  16
  -4  -4  -7 87.0698 6.58169   7
  -4  -4  -7 87.1204 8.52888   4
  -4  -4  -7 75.5712 8.77643  16
  -4  -4  -7 89.4682 4.88140  10
  -4  -4  -7 88.0113 9.53146  17
  -4  -4  -7 90.2488 6.85282  18
  -4  -4  -7 80.4081 6.72434  11
  -5  -4  -7 149.858 14.5738  17
  -5  -4  -7 161.876 11.0043  18
  -5  -4  -7 130.287 12.8938  16
  -5  -4  -7 162.228 10.5594  11
  -6  -4  -7 2.38709 1.62325  11
  -6  -4  -7 1.04790 2.05670  16
  -6  -4  -7 -0.9413 2.87371  17
  -6  -4  -7 -1.0719 1.48582  18
  -7  -4  -7 78.1171 5.69794  11
  -7  -4  -7 76.7755 6.25080  18
  -7  -4  -7 64.4024 7.96620  17
  -8  -4  -7 0.85150 1.14719  18
  -8  -4  -7 0.89100 1.27736  11
  -8   5   7 48.6794 2.98954   9
  -7   5   7 11.6888 1.63812  10
  -7   5   7 7.59743 2.32606  15
  -7   5   7 11.3634 1.73997   9
  -6   5   7 171.333 10.2610   9
  -6   5   7 146.248 12.3609   8
  -5   5   7 82.0601 7.41198   8
  -5   5   7 88.3499 6.38577   9
  -4   5   7 11.1339 2.17312   8
   3  -5  -7 58.4611 6.80438   8
   2  -5  -7 62.8957 6.42111   8
   1  -5  -7 204.973 16.2024   8
   1  -5  -7 207.436 12.4003   3
   1  -5  -7 178.602 17.9880   4
   1  -5  -7 190.602 12.5598   9
   1  -5  -7 210.612 12.8783   2
   0  -5  -7 31.3795 3.11444   9
   0  -5  -7 31.6044 2.08177   3
   0  -5  -7 30.2259 3.32457   8
   0  -5  -7 27.9275 3.87971   4
   0  -5  -7 25.3798 2.42572  10
   0  -5  -7 32.1614 2.72666   2
  -1  -5  -7 425.764 24.8693   9
  -1  -5  -7 354.413 34.6363  17
  -1  -5  -7 402.355 27.1718  18
  -1  -5  -7 430.693 32.3535   8
  -1  -5  -7 462.328 27.1650   7
  -1  -5  -7 418.189 37.1605   4
  -1  -5  -7 385.872 23.2383  10
  -1  -5  -7 420.578 26.5801  11
  -1  -5  -7 448.403 26.0714   3
  -1  -5  -7 483.421 26.1371   2
  -2  -5  -7 6.07521 1.11270   9
  -2  -5  -7 6.28212 0.89533   2
  -2  -5  -7 9.48306 2.09612   4
  -2  -5  -7 8.57872 1.92261  11
  -2  -5  -7 5.53775 1.07362  10
  -2  -5  -7 6.88514 0.56898   3
  -2  -5  -7 7.44246 2.78854  17
  -2  -5  -7 6.16458 1.68105  18
  -2  -5  -7 6.45182 1.55327   7
  -3  -5  -7 49.9486 3.25543  10
  -3  -5  -7 54.0177 4.65548  18
  -3  -5  -7 48.8977 4.43762  11
  -3  -5  -7 45.1256 6.54740  17
  -3  -5  -7 51.5040 5.61122   4
  -3  -5  -7 53.7543 4.35875   7
  -4  -5  -7 218.512 14.4458  11
  -4  -5  -7 224.092 14.7488  18
  -4  -5  -7 212.296 14.8162  12
  -4  -5  -7 183.527 17.4921  16
  -4  -5  -7 209.710 19.2377  17
  -4  -5  -7 229.630 11.7558  10
  -4  -5  -7 212.582 19.5633   4
  -5  -5  -7 33.1969 5.80660  17
  -5  -5  -7 33.4792 3.95271  11
  -5  -5  -7 30.3258 4.15505   4
  -5  -5  -7 24.8984 3.39637  12
  -5  -5  -7 35.8535 3.55239  18
  -6  -5  -7 286.390 17.5839  11
  -6  -5  -7 261.831 18.2976  12
  -6  -5  -7 285.428 18.2089  18
  -6  -5  -7 241.372 23.1791  17
  -7  -5  -7 7.06545 2.85182  17
  -7  -5  -7 6.50277 2.16999  12
  -7  -5  -7 11.6533 2.18054  18
  -7  -5  -7 6.93533 2.08843  11
  -8  -5  -7 16.9432 2.16270  11
  -8  -5  -7 23.6658 2.72571  12
  -7   6   7 44.8752 3.35064  10
  -7   6   7 46.1546 3.62414   9
  -6   6   7 109.223 7.94034   9
  -6   6   7 122.006 9.83574   8
  -6   6   7 118.183 9.60009  15
  -5   6   7 4.09768 1.30812   8
  -5   6   7 3.62556 1.50836   9
  -4   6   7 112.757 9.74308   8
   3  -6  -7 5.28614 1.87034   8
   2  -6  -7 118.308 12.4232   4
   2  -6  -7 148.500 11.4945   8
   1  -6  -7 34.6654 2.39431   3
   1  -6  -7 38.6988 3.20705   2
   1  -6  -7 32.2216 3.62251   9
   1  -6  -7 31.4834 4.34474   4
   1  -6  -7 33.5643 4.04542   8
   0  -6  -7 244.665 14.7928   9
   0  -6  -7 221.300 13.6202  10
   0  -6  -7 245.233 14.8999   3
   0  -6  -7 273.380 15.3130   2
   0  -6  -7 234.414 18.9064   8
   0  -6  -7 224.862 21.5260   4
  -1  -6  -7 78.7540 4.76180   3
  -1  -6  -7 59.1779 7.83700  17
  -1  -6  -7 76.8695 4.88210  10
  -1  -6  -7 72.6398 5.15659   9
  -1  -6  -7 69.7327 7.59970   4
  -1  -6  -7 79.1467 5.18478   2
  -1  -6  -7 69.9389 5.65711  18
  -1  -6  -7 69.3689 5.65902  11
  -1  -6  -7 77.2911 6.21706   8
  -2  -6  -7 0.15170 1.12694  18
  -2  -6  -7 -0.1642 0.92808  12
  -2  -6  -7 0.71687 0.58126  10
  -2  -6  -7 0.85931 0.56188   2
  -2  -6  -7 1.27591 0.89202   9
  -2  -6  -7 0.13868 0.87737   4
  -2  -6  -7 0.52909 2.32075  17
  -2  -6  -7 0.35452 0.18933   3
  -2  -6  -7 -0.4752 0.81387  11
  -3  -6  -7 445.450 26.3511   9
  -3  -6  -7 492.573 25.0736  10
  -3  -6  -7 439.049 27.8746   2
  -3  -6  -7 491.442 28.9848  11
  -3  -6  -7 492.177 30.3935  12
  -3  -6  -7 470.645 40.5035   4
  -3  -6  -7 426.809 37.8735  17
  -3  -6  -7 446.290 28.1883   3
  -3  -6  -7 487.007 29.8155  18
  -4  -6  -7 3.95472 1.79722  18
  -4  -6  -7 3.88589 3.17275  17
  -4  -6  -7 3.97570 1.49159  11
  -4  -6  -7 3.63982 1.85403  12
  -4  -6  -7 3.80129 0.66160  10
  -4  -6  -7 3.50270 1.65529   4
  -5  -6  -7 213.306 21.7270  17
  -5  -6  -7 255.038 16.9509  18
  -5  -6  -7 275.283 16.5970  11
  -5  -6  -7 258.863 17.5138  12
  -6  -6  -7 3.62119 1.47060  18
  -6  -6  -7 2.65106 2.13548  12
  -6  -6  -7 4.22586 1.59266  11
  -7  -6  -7 23.9109 2.90820  18
  -7  -6  -7 20.6446 2.81374  11
  -7  -6  -7 15.3756 2.91895  12
  -8  -6  -7 49.9282 3.84536  11
  -8  -6  -7 39.1251 4.04776  12
  -7   7   7 98.1665 5.90522  10
  -7   7   7 108.885 7.57245  15
  -7   7   7 83.0050 6.13153   9
  -6   7   7 5.82357 1.78225  15
  -6   7   7 6.01856 1.68017   9
  -6   7   7 6.04962 1.33277   8
  -5   7   7 153.001 10.2774   9
  -4   7   7 104.777 9.25363   8
   3  -7  -7 33.4875 4.72460   4
   3  -7  -7 45.2831 5.12725   8
  -3   7   7 37.9088 3.41683   6
   2  -7  -7 39.4593 4.36762   8
   2  -7  -7 27.2505 3.93367   4
   1  -7  -7 15.1136 1.25270   3
   1  -7  -7 16.2643 2.56310   8
   1  -7  -7 11.8600 2.64255   4
   1  -7  -7 15.4247 2.07042   2
   1  -7  -7 19.9071 2.61506   9
   0  -7  -7 158.115 9.56940   3
   0  -7  -7 153.840 12.4219   8
   0  -7  -7 148.888 10.4086  11
   0  -7  -7 161.179 9.99740   2
   0  -7  -7 148.410 9.05032  10
   0  -7  -7 152.432 9.83648   9
   0  -7  -7 137.257 14.0849   4
  -1  -7  -7 47.8287 3.90554   9
  -1  -7  -7 45.4112 3.51512   2
  -1  -7  -7 43.0864 5.29172   4
  -1  -7  -7 44.9806 3.03155   3
  -1  -7  -7 45.4664 4.26528  11
  -1  -7  -7 45.4637 3.29919  10
  -1  -7  -7 47.4222 4.15077   8
  -2  -7  -7 910.302 55.9600  11
  -2  -7  -7 857.143 57.6060  18
  -2  -7  -7 917.065 79.1467   4
  -2  -7  -7 902.126 58.7535  12
  -2  -7  -7 1013.44 49.5178  10
  -3  -7  -7 11.5631 0.84974   3
  -3  -7  -7 11.6044 1.36285  10
  -3  -7  -7 14.6023 2.27278  18
  -3  -7  -7 11.3791 2.34261  12
  -3  -7  -7 12.2213 1.19688   2
  -3  -7  -7 11.9055 2.26991  11
  -3  -7  -7 11.7081 2.50404   4
  -3  -7  -7 12.2025 1.30230   9
  -4  -7  -7 313.569 16.2112  10
  -4  -7  -7 308.172 20.5004  12
  -4  -7  -7 310.647 19.2494  11
  -4  -7  -7 289.879 19.7196  18
  -4  -7  -7 265.064 26.4589   4
  -5  -7  -7 129.818 9.38018  18
  -5  -7  -7 125.030 9.79910  12
  -5  -7  -7 122.743 6.75191  10
  -5  -7  -7 128.562 8.94549  11
  -6  -7  -7 1.21641 1.20819  11
  -6  -7  -7 1.91901 1.69986  12
  -6  -7  -7 1.08662 1.30121  18
  -7  -7  -7 127.270 9.17425  18
  -7  -7  -7 116.379 9.60542  12
  -7  -7  -7 145.181 9.03103  11
  -8  -7  -7 0.71704 1.20575  12
  -8  -7  -7 0.50099 0.97624  11
  -7   8   7 2.44452 0.67961   9
  -7   8   7 2.76590 1.00996  15
  -6   8   7 16.6163 2.32808   9
  -6   8   7 15.1858 2.35109  15
  -5   8   7 44.8911 4.81393  15
  -5   8   7 44.0755 4.29132   9
  -5   8   7 51.2420 4.91392   8
   3  -8  -7 183.561 14.5296   8
  -3   8   7 158.873 14.2165   8
   2  -8  -7 5.15888 1.68897   8
   2  -8  -7 3.62631 1.44390   4
   1  -8  -7 63.3144 5.32297   9
   1  -8  -7 66.7741 6.13429   8
   1  -8  -7 53.3659 6.55761   4
   1  -8  -7 63.0140 5.18595  11
   0  -8  -7 6.85577 1.69100   8
   0  -8  -7 5.40009 1.73722  11
   0  -8  -7 5.89464 1.77860   9
   0  -8  -7 7.11370 1.46675  10
   0  -8  -7 5.92939 0.68019   3
   0  -8  -7 5.16965 1.27471   2
  -1  -8  -7 288.475 21.9648   8
  -1  -8  -7 274.024 25.4883   4
  -1  -8  -7 295.632 17.2652   9
  -1  -8  -7 273.564 17.8113   2
  -1  -8  -7 288.474 18.3300  11
  -1  -8  -7 293.683 16.0114  10
  -2  -8  -7 153.351 8.46893  10
  -2  -8  -7 140.609 13.6321   4
  -2  -8  -7 135.302 10.8494  12
  -2  -8  -7 143.518 10.0321  11
  -2  -8  -7 143.241 9.00854   9
  -3  -8  -7 141.737 7.82826  10
  -3  -8  -7 131.018 9.60368  18
  -3  -8  -7 135.045 9.35391  11
  -3  -8  -7 132.271 10.6740  12
  -3  -8  -7 141.511 8.16120   9
  -3  -8  -7 117.093 12.7747   4
  -4  -8  -7 315.388 21.6891  18
  -4  -8  -7 332.882 22.8492  12
  -4  -8  -7 319.724 21.0494  11
  -4  -8  -7 348.340 18.0480  10
  -5  -8  -7 28.2366 4.31393  12
  -5  -8  -7 39.2397 3.70109  11
  -5  -8  -7 37.3811 2.31429  10
  -5  -8  -7 40.2588 3.84935  18
  -6  -8  -7 124.872 8.67984  11
  -6  -8  -7 122.967 8.90503  18
  -6  -8  -7 122.371 9.86025  12
  -7  -8  -7 6.55760 1.36115  11
  -7  -8  -7 4.94812 1.72640  12
  -6   9   7 65.7397 5.29177  15
  -5   9   7 30.2334 3.17038  15
  -5   9   7 26.2786 3.16708   9
  -5   9   7 34.1656 3.53992   8
   4  -9  -7 154.646 13.3075   8
  -4   9   7 160.318 13.4656   8
   3  -9  -7 4.75990 2.12199   8
  -3   9   7 5.49316 2.18950   8
   2  -9  -7 298.551 23.8367   8
   1  -9  -7 40.7153 3.98887   9
   1  -9  -7 43.2026 4.74531   8
   1  -9  -7 41.0643 4.05602  11
   0  -9  -7 71.3598 5.48066   9
   0  -9  -7 68.0787 6.38338   8
   0  -9  -7 75.7973 5.77287  11
  -1  -9  -7 91.2831 6.93836  11
  -1  -9  -7 102.162 6.14887  10
  -1  -9  -7 93.3762 7.72060   8
  -1  -9  -7 96.5459 6.65021   9
  -2  -9  -7 1.87307 0.99822  10
  -2  -9  -7 -0.6993 1.71775  12
  -2  -9  -7 -0.3131 1.03459   9
  -2  -9  -7 0.60259 1.01326  11
  -3  -9  -7 14.5173 1.60518   9
  -3  -9  -7 11.6871 2.06084  11
  -3  -9  -7 17.9392 3.10334  12
  -3  -9  -7 20.0083 1.88394  10
  -4  -9  -7 15.8677 2.27518  11
  -4  -9  -7 12.2186 3.09754  12
  -4  -9  -7 12.0152 2.24233  18
  -4  -9  -7 16.5245 1.59965  10
  -5  -9  -7 150.213 11.4539  12
  -5  -9  -7 152.730 10.1251  11
  -5  -9  -7 146.166 8.15030  10
  -6  -9  -7 2.30078 1.13087  11
  -6  -9  -7 2.19614 2.20715  12
  -7  -9  -7 58.7536 4.82323  12
  -7  -9  -7 54.2065 4.11041  11
   5 -10  -7 236.582 17.0771   8
  -5  10   7 197.863 16.3128   8
   4 -10  -7 0.75694 1.22285   8
  -4  10   7 0.41808 1.09299   8
   3 -10  -7 172.673 13.8336   8
  -3  10   7 159.238 14.2346   8
   2 -10  -7 98.6131 8.82614   8
   1 -10  -7 108.433 9.26750   8
   0 -10  -7 194.264 12.4257   9
   0 -10  -7 201.297 15.7112   8
  -1 -10  -7 2.21438 0.89847  10
  -1 -10  -7 0.08486 1.28052   9
  -1 -10  -7 1.60390 1.53493  12
  -2 -10  -7 136.419 7.58831  10
  -2 -10  -7 129.202 9.74919  12
  -2 -10  -7 127.530 7.99535   9
  -2 -10  -7 109.602 8.46594  11
  -3 -10  -7 74.6154 4.68327   9
  -3 -10  -7 79.3408 4.77528  10
  -3 -10  -7 72.0703 5.72457  11
  -3 -10  -7 69.5496 6.53240  12
  -4 -10  -7 117.075 8.81066  12
  -4 -10  -7 98.8847 7.27767  11
  -4 -10  -7 101.964 5.98778  10
  -5 -10  -7 5.13537 1.77785  12
  -5 -10  -7 5.76944 0.62412  10
  -5 -10  -7 5.53744 1.27912  11
  -6 -10  -7 61.9488 4.37004  11
   4 -11  -7 40.9448 4.00814   8
  -4  11   7 40.5250 3.84309   8
   3 -11  -7 65.3581 5.67070   8
  -3  11   7 51.7677 5.63193   8
   2 -11  -7 17.9984 2.68413   8
  -2  11   7 15.4976 2.94076   8
   1 -11  -7 73.4126 6.55819   8
   1 -11  -7 78.0008 5.54015   9
   0 -11  -7 21.4404 2.23800   8
   0 -11  -7 16.2952 2.15063   9
   0 -11  -7 18.6840 2.77524  12
  -1 -11  -7 150.471 9.53324   9
  -1 -11  -7 146.476 11.0331  12
  -1 -11  -7 158.004 8.97943  10
  -2 -11  -7 37.2735 2.67926  10
  -2 -11  -7 28.0869 3.72834  12
  -2 -11  -7 35.2040 2.87065   9
  -3 -11  -7 55.6552 5.20907  12
  -3 -11  -7 59.0983 3.72351  10
  -4 -11  -7 25.3839 3.27546  12
  -4 -11  -7 27.6365 2.00699  10
  -5 -11  -7 53.2828 4.56457  12
   3 -12  -7 4.80713 0.93370   8
  -3  12   7 1.79236 0.93987   8
   2 -12  -7 74.3524 5.86052   8
   2 -12  -7 72.9357 4.92386   9
  -2  12   7 59.1860 6.52218   8
   1 -12  -7 29.9361 3.25662  12
   1 -12  -7 32.2853 2.79109   8
   1 -12  -7 32.6430 2.86013   9
   0 -12  -7 98.8727 6.89659  12
   0 -12  -7 80.3512 5.77597   9
  -1 -12  -7 43.8497 4.06066  12
  -1 -12  -7 46.9435 3.21714   9
  -1 -12  -7 36.3596 2.90443  10
  -2 -12  -7 42.9069 2.80310  10
  -2 -12  -7 39.1779 2.70541   9
  -2 -12  -7 37.8258 3.89067  12
  -3 -12  -7 58.9961 3.42001  10
  -3 -12  -7 47.3604 4.57048  12
  -4 -12  -7 1.62002 0.41971  10
  -4 -12  -7 1.28885 1.04730  12
   0 -13  -7 41.7011 2.88790   9
   0 -13  -7 40.9356 3.56832  12
  -1 -13  -7 29.4186 2.83162  12
   2   6  -8 15.3102 2.09912   9
   1   6  -8 0.52839 1.08599   9
   0   6  -8 36.6298 4.34615  17
   0   6  -8 32.0143 2.92711   9
  -1   6  -8 0.59457 0.79193  10
  -1   6  -8 1.06837 0.78019   9
  -1   6  -8 0.61023 1.33876  17
  -2   6  -8 23.4558 3.15164  17
  -2   6  -8 21.4728 2.12659  10
   4   5  -8 0.18157 0.95123   8
  -4  -5   8 0.47709 0.50340   8
   3   5  -8 43.3063 4.36180   8
   2   5  -8 2.61356 1.57506   9
   2   5  -8 1.41608 1.32628   8
  -2  -5   8 0.43997 0.97151   8
   1   5  -8 19.9987 2.45949  18
   1   5  -8 23.7393 3.23435   9
   1   5  -8 20.9020 2.35303   8
   0   5  -8 40.3049 4.32295   9
   0   5  -8 35.2457 3.30818  10
   0   5  -8 41.0048 5.28327  17
  -1   5  -8 36.0938 4.77957  17
  -1   5  -8 31.7921 3.10085   9
  -1   5  -8 37.9240 3.10073  10
  -2   5  -8 27.7557 4.08305  17
  -2   5  -8 25.6881 2.34543  10
  -2   5  -8 20.9440 1.71539   9
  -3   5  -8 46.4890 3.16095  10
  -4   5  -8 77.1643 7.00955  17
  -4   5  -8 70.7378 3.94210  10
   5   4  -8 6.52783 1.84915   8
  -5  -4   8 12.7694 2.56161  14
  -5  -4   8 10.1446 1.19648   8
  -5  -4   8 8.02907 1.44929   9
   4   4  -8 36.4593 5.07259   8
  -4  -4   8 47.1073 4.27084   8
   3   4  -8 24.2232 3.80788   8
  -3  -4   8 27.8598 3.44565   8
   2   4  -8 24.1729 3.68618   9
   2   4  -8 37.2590 4.55527   8
   1   4  -8 63.1729 6.25559   9
   1   4  -8 68.1779 6.46950   8
   0   4  -8 1.79471 0.94730   8
   0   4  -8 0.99765 1.16304  10
   0   4  -8 3.35668 2.29252   9
   0   4  -8 2.23830 1.75537  18
   0   4  -8 0.85459 2.43725  17
  -1   4  -8 71.6928 5.71501   9
  -1   4  -8 57.5057 5.44534  18
  -1   4  -8 67.1896 4.88855  10
  -1   4  -8 76.1683 7.67207  17
  -2   4  -8 -0.3464 1.78590  17
  -2   4  -8 0.46755 1.34213  10
  -2   4  -8 0.86355 1.19351   9
  -3   4  -8 18.1208 3.59372  17
  -3   4  -8 19.5927 2.03360  10
  -4   4  -8 4.26730 2.04191  17
  -4   4  -8 5.88229 0.91451  10
  -5   4  -8 22.8260 2.89894  16
  -6  -3   8 15.7449 2.81872  14
  -6  -3   8 12.6443 1.61643   9
   5   3  -8 13.8370 2.84098   8
  -5  -3   8 19.4752 2.09922   8
  -5  -3   8 19.2151 2.36117   9
   4   3  -8 63.7658 7.11934   8
  -4  -3   8 74.7760 6.48813   8
   3   3  -8 35.3921 4.90979   8
  -3  -3   8 39.5841 4.18519   8
   2   3  -8 44.7765 5.43332   8
   2   3  -8 32.6069 4.65327   9
   1   3  -8 1.69207 1.94712   8
   1   3  -8 0.01125 2.25230   9
   0   3  -8 216.646 13.7265  10
   0   3  -8 250.623 20.3724  17
   0   3  -8 232.302 15.1134   9
   0   3  -8 229.174 18.3497   8
  -1   3  -8 4.66878 2.03545  18
  -1   3  -8 6.73355 2.69463  17
  -1   3  -8 3.90463 1.68308  10
  -1   3  -8 4.21459 1.69374   9
  -2   3  -8 32.6614 3.37987  10
  -2   3  -8 34.8859 3.91171  18
  -2   3  -8 35.6294 5.67528  17
  -2   3  -8 36.6080 3.45826   9
  -3   3  -8 26.2277 4.53895  17
  -3   3  -8 18.0431 2.18537  10
  -4   3  -8 2.87279 0.91194  10
  -4   3  -8 4.59954 2.42245  17
  -4   3  -8 6.18029 2.18199  16
  -5   3  -8 76.6720 8.14973  17
  -5   3  -8 67.2565 6.79863  16
  -6   3  -8 1.13223 1.35027  16
  -6   3  -8 1.36081 1.35048  17
  -6  -2   8 16.0366 2.02682   9
  -6  -2   8 13.7730 1.34054   8
  -6  -2   8 14.5546 2.99956  14
   5   2  -8 20.4715 3.85087   8
  -5  -2   8 36.2629 3.44259   8
   4   2  -8 83.3511 8.88794   8
  -4  -2   8 93.8335 7.95050   8
   3   2  -8 99.3426 9.95008   8
   2   2  -8 2.20754 1.82860   8
   2   2  -8 -0.8717 2.31804   9
   1   2  -8 110.407 9.72292   8
   1   2  -8 92.7280 7.77548   9
   0   2  -8 0.58854 1.44610   8
   0   2  -8 0.35070 0.95229  10
   0   2  -8 1.69969 1.77598  17
   0   2  -8 0.04021 1.39863   9
  -1   2  -8 85.0584 7.77538  18
  -1   2  -8 102.178 10.0382  17
  -1   2  -8 90.4893 6.24695  10
  -1   2  -8 95.3251 7.14450   9
  -2   2  -8 68.6633 5.38545   9
  -2   2  -8 66.0301 6.11132  18
  -2   2  -8 82.1876 8.35428  17
  -2   2  -8 76.7357 5.28426  10
  -3   2  -8 0.50623 2.35486  16
  -3   2  -8 2.20441 0.97013  10
  -3   2  -8 1.46811 1.29321  18
  -3   2  -8 1.26809 1.86576  17
  -4   2  -8 256.528 14.2185  10
  -4   2  -8 275.112 22.4167  17
  -4   2  -8 236.598 20.3990  16
  -5   2  -8 10.0470 2.84092  16
  -5   2  -8 6.60105 3.23396  17
  -6   2  -8 28.3643 4.07168  16
  -6   2  -8 33.1648 4.56041  17
  -7   2  -8 1.92834 1.44352  16
  -7  -1   8 27.7564 4.14015  14
  -7  -1   8 35.9068 2.60575   9
  -6  -1   8 58.1987 4.93838   9
  -6  -1   8 74.1681 5.43990   8
  -6  -1   8 48.6986 7.00582  14
  -5  -1   8 7.55465 1.62498   8
   4   1  -8 47.9200 6.06499   8
  -4  -1   8 52.9594 5.24049   8
   3   1  -8 11.1492 3.33432   8
   2   1  -8 158.327 13.8732   8
   1   1  -8 100.870 7.67384   9
   1   1  -8 84.7568 6.94871   7
   1   1  -8 88.0307 6.93150   2
   1   1  -8 98.9017 8.70129   8
   0   1  -8 0.05896 1.10477   2
   0   1  -8 -0.8580 1.26766  10
   0   1  -8 0.25737 1.97927  17
   0   1  -8 -1.9303 1.76279   9
   0   1  -8 1.92207 1.53969   8
   0   1  -8 0.89019 1.24744   7
  -1   1  -8 191.643 11.1474  10
  -1   1  -8 166.771 13.1035  18
  -1   1  -8 192.726 12.9313   7
  -1   1  -8 189.836 16.4425  17
  -1   1  -8 182.859 11.9700   9
  -2   1  -8 4.51783 2.16298  18
  -2   1  -8 8.62470 1.73888   9
  -2   1  -8 6.43138 2.88259  17
  -2   1  -8 5.73068 2.75932  16
  -2   1  -8 8.07342 1.61186  10
  -2   1  -8 7.43928 1.73915   7
  -3   1  -8 115.038 9.56755  18
  -3   1  -8 115.466 11.4867  16
  -3   1  -8 135.731 7.73164  10
  -3   1  -8 138.613 12.6594  17
  -4   1  -8 0.35294 0.64170  10
  -4   1  -8 -0.2834 1.68098  17
  -4   1  -8 -0.2914 1.05251  18
  -4   1  -8 1.12538 2.80934  16
  -5   1  -8 41.5314 5.59565  16
  -5   1  -8 45.9651 6.02036  17
  -6   1  -8 19.1120 3.94405  17
  -6   1  -8 18.7711 3.90013  16
  -7   1  -8 28.0672 4.12756  17
  -7   1  -8 22.8270 3.60083  16
  -7   0   8 56.0959 6.31904  14
  -7   0   8 57.3969 4.24593   9
  -6   0   8 0.41984 1.94815  14
  -6   0   8 1.23855 1.08921   9
  -6   0   8 0.73591 0.85471   8
  -5   0   8 178.024 14.4369   8
   4   0  -8 197.603 17.8432   8
  -4   0   8 210.267 16.6779   8
   3   0  -8 89.3990 8.91527   8
   2   0  -8 165.430 14.3145   8
   1   0  -8 2.23668 0.46173   3
   1   0  -8 1.50520 1.36932   8
   1   0  -8 2.87380 1.01012   7
   1   0  -8 1.13215 1.23441   2
   1   0  -8 3.52758 2.18811   9
   0   0  -8 378.122 23.8730   7
   0   0  -8 369.257 20.7535  10
   0   0  -8 374.456 22.4050   9
   0   0  -8 352.600 23.0679   2
   0   0  -8 369.743 28.7121   8
  -1   0  -8 5.19637 0.78983   8
  -1   0  -8 6.15928 0.62526   3
  -1   0  -8 5.48153 1.43121  10
  -1   0  -8 5.12804 2.15875  18
  -1   0  -8 5.74658 2.15155  17
  -1   0  -8 6.31061 1.83596   9
  -1   0  -8 5.94685 1.70049   7
  -1   0  -8 5.18467 1.28033   2
  -2   0  -8 125.636 7.75206   9
  -2   0  -8 115.347 9.16578  18
  -2   0  -8 110.187 7.67328   2
  -2   0  -8 109.413 8.50283   7
  -2   0  -8 124.443 7.31452  10
  -2   0  -8 108.877 10.6497  16
  -2   0  -8 133.430 11.4227  17
  -3   0  -8 95.2594 7.71921  18
  -3   0  -8 101.850 9.65179  17
  -3   0  -8 84.0472 7.02228   7
  -3   0  -8 96.1267 5.78357  10
  -3   0  -8 87.0380 9.29987  16
  -4   0  -8 21.4421 3.26768  18
  -4   0  -8 24.0078 4.29830  16
  -4   0  -8 24.3508 1.98402  10
  -4   0  -8 26.3488 4.64977  17
  -5   0  -8 36.2429 5.74920  17
  -5   0  -8 32.4362 5.39632  16
  -5   0  -8 38.5641 4.08622  18
  -5   0  -8 34.8694 4.87803  15
  -6   0  -8 30.9600 5.30896  17
  -6   0  -8 37.4907 4.90619  15
  -6   0  -8 34.7344 5.08594  16
  -7   0  -8 34.6247 4.86365  17
  -7   0  -8 36.0065 4.58766  16
  -7   1   8 10.9789 1.60047   9
  -7   1   8 7.03821 2.61843  14
  -6   1   8 72.7917 6.40918   8
  -6   1   8 83.0058 5.82485   9
  -5   1   8 83.0617 7.31834   8
  -4   1   8 68.3668 6.49016   8
   3  -1  -8 230.854 19.5208   8
   2  -1  -8 -0.1903 1.74196   8
   1  -1  -8 202.152 13.1820   2
   1  -1  -8 196.109 12.4790   3
   1  -1  -8 195.821 13.0778   9
   1  -1  -8 213.012 16.6203   8
   1  -1  -8 198.541 13.3772   7
   0  -1  -8 59.6206 5.06964   9
   0  -1  -8 57.3957 5.74052   8
   0  -1  -8 59.9301 4.58995   2
   0  -1  -8 58.3295 3.82299   3
   0  -1  -8 55.2118 4.21852  10
   0  -1  -8 62.0412 4.79887   7
  -1  -1  -8 134.489 8.80499   7
  -1  -1  -8 120.625 7.52104   3
  -1  -1  -8 124.202 8.06232   9
  -1  -1  -8 114.842 7.96914   2
  -1  -1  -8 122.306 9.26252   8
  -1  -1  -8 120.031 9.12773  18
  -1  -1  -8 118.939 11.0824  17
  -1  -1  -8 115.434 7.42630  10
  -1  -1  -8 106.388 10.5303  16
  -2  -1  -8 51.7589 4.45987   7
  -2  -1  -8 47.5537 3.61826   9
  -2  -1  -8 45.8140 3.53172  10
  -2  -1  -8 45.1850 3.44165   2
  -2  -1  -8 49.6472 6.35644  16
  -2  -1  -8 58.0544 6.32466  17
  -2  -1  -8 50.2114 4.93813  18
  -3  -1  -8 40.3312 5.30874  16
  -3  -1  -8 36.7107 3.67296   7
  -3  -1  -8 36.9615 2.85985  10
  -3  -1  -8 44.7738 5.89913  17
  -3  -1  -8 41.5105 4.12761  18
  -4  -1  -8 56.5935 7.04307  16
  -4  -1  -8 51.1827 4.78001   7
  -4  -1  -8 62.7508 7.23193  17
  -4  -1  -8 58.5045 7.08453  15
  -4  -1  -8 55.8417 4.97016  18
  -4  -1  -8 50.0827 3.27691  10
  -5  -1  -8 7.83005 2.31517  18
  -5  -1  -8 14.0645 3.50383  16
  -5  -1  -8 9.87504 3.59745  15
  -5  -1  -8 11.9285 3.74426  17
  -6  -1  -8 89.5645 9.25148  16
  -6  -1  -8 90.0617 9.43421  17
  -6  -1  -8 92.2395 7.10868  18
  -6  -1  -8 88.2236 8.32717  15
  -7  -1  -8 4.77625 2.82249  17
  -7  -1  -8 7.19087 2.43774  16
  -8  -1  -8 10.4341 2.24747  16
  -7   2   8 3.55280 1.15750   9
  -7   2   8 3.25231 1.29555  15
  -6   2   8 23.4758 3.89082  14
  -6   2   8 24.6736 2.72316   9
  -6   2   8 21.8135 2.52445   8
  -5   2   8 7.98718 1.78205   8
  -5   2   8 11.2169 3.17456  14
  -4   2   8 185.294 15.1137   8
   3  -2  -8 15.1669 3.32546   8
   2  -2  -8 177.887 15.1306   8
   1  -2  -8 72.2178 6.08483   9
   1  -2  -8 77.2753 4.82202   3
   1  -2  -8 74.7619 6.96749   8
   1  -2  -8 66.5842 5.53459   7
   1  -2  -8 76.1986 5.63980   2
   0  -2  -8 158.222 9.25881   3
   0  -2  -8 119.701 13.6134   4
   0  -2  -8 148.287 9.80031   2
   0  -2  -8 147.956 8.99116  10
   0  -2  -8 163.476 10.3204   7
   0  -2  -8 156.388 12.1720   8
   0  -2  -8 139.020 10.4409  18
   0  -2  -8 145.834 9.77113   9
  -1  -2  -8 174.737 11.0939   2
  -1  -2  -8 176.710 12.1991  18
  -1  -2  -8 173.344 13.1589   8
  -1  -2  -8 153.085 11.5054  11
  -1  -2  -8 177.504 10.8683   9
  -1  -2  -8 183.925 10.7280   3
  -1  -2  -8 178.071 10.1601  10
  -1  -2  -8 181.463 11.8656   7
  -1  -2  -8 178.194 15.2584  17
  -1  -2  -8 136.197 13.8621  16
  -2  -2  -8 3.05507 1.32885   7
  -2  -2  -8 2.91052 1.96524  16
  -2  -2  -8 1.77879 0.62037   2
  -2  -2  -8 3.08235 0.98822  10
  -2  -2  -8 0.92578 1.57337  17
  -2  -2  -8 1.95368 0.87575   9
  -2  -2  -8 2.20242 0.30553   3
  -2  -2  -8 3.21314 1.36770  18
  -3  -2  -8 143.501 12.8502  16
  -3  -2  -8 159.119 10.5863  18
  -3  -2  -8 133.367 8.18767  10
  -3  -2  -8 133.871 10.0240   7
  -3  -2  -8 160.584 13.4353  17
  -4  -2  -8 3.66311 0.65186  10
  -4  -2  -8 3.36540 2.93990  16
  -4  -2  -8 3.50066 1.48623   7
  -4  -2  -8 3.82226 1.48986  18
  -4  -2  -8 4.32843 2.23264  17
  -5  -2  -8 62.5566 5.39227  18
  -5  -2  -8 54.3714 6.80004  16
  -5  -2  -8 67.1758 7.85032  17
  -5  -2  -8 55.3730 6.97177  15
  -6  -2  -8 27.0797 4.64617  16
  -6  -2  -8 39.8971 5.73000  17
  -6  -2  -8 32.5881 3.97073  18
  -7  -2  -8 46.7953 6.23094  16
  -7  -2  -8 53.5422 6.50569  17
  -7  -2  -8 57.5192 4.60335  18
  -8  -2  -8 17.0221 2.79941  17
  -7   3   8 211.562 11.9621   9
  -7   3   8 173.856 14.0121  15
  -6   3   8 0.59235 0.89282   8
  -6   3   8 2.20686 1.52961   9
  -5   3   8 39.8614 4.25965   8
  -4   3   8 0.54903 0.83278   8
   3  -3  -8 230.742 19.3014   8
   2  -3  -8 64.6774 6.50046   8
   1  -3  -8 83.3572 5.25511   3
   1  -3  -8 77.0262 6.31176   9
   1  -3  -8 84.1474 6.02671   2
   1  -3  -8 72.1407 6.21157  18
   1  -3  -8 88.0037 7.66014   8
   0  -3  -8 659.840 37.7564  10
   0  -3  -8 725.423 52.9473   8
   0  -3  -8 681.237 44.0466  18
   0  -3  -8 747.887 43.6995   7
   0  -3  -8 687.526 40.4112   9
   0  -3  -8 718.620 42.4891   2
   0  -3  -8 600.018 59.9820   4
   0  -3  -8 739.357 42.5327   3
  -1  -3  -8 18.5877 3.70212  16
  -1  -3  -8 16.7599 1.99157  10
  -1  -3  -8 16.6343 2.33496   7
  -1  -3  -8 16.5620 2.92220   4
  -1  -3  -8 18.1658 1.28686   3
  -1  -3  -8 18.3302 1.90841   2
  -1  -3  -8 19.4238 2.79234  18
  -1  -3  -8 18.3723 2.77859  11
  -1  -3  -8 16.7699 1.61539   8
  -1  -3  -8 18.7382 3.34835  17
  -1  -3  -8 19.3100 2.21373   9
  -2  -3  -8 171.898 14.7342  17
  -2  -3  -8 165.616 9.82717   9
  -2  -3  -8 149.061 13.8163  16
  -2  -3  -8 168.585 11.4838  18
  -2  -3  -8 155.482 9.34547  10
  -2  -3  -8 152.490 11.0971  11
  -2  -3  -8 161.250 10.0006   3
  -2  -3  -8 155.037 11.1172   7
  -2  -3  -8 173.515 10.1945   2
  -3  -3  -8 53.4911 4.78888  18
  -3  -3  -8 48.6199 6.62181  16
  -3  -3  -8 46.8687 3.27047  10
  -3  -3  -8 49.8094 4.39667  11
  -3  -3  -8 57.4187 6.79159  17
  -3  -3  -8 52.5207 4.42037   7
  -4  -3  -8 134.931 9.64986  18
  -4  -3  -8 129.030 7.12210  10
  -4  -3  -8 121.043 11.5954  16
  -4  -3  -8 116.608 9.26382   7
  -4  -3  -8 143.049 12.6230  17
  -4  -3  -8 134.605 9.04055  11
  -5  -3  -8 233.707 14.9997  11
  -5  -3  -8 236.018 20.6663  17
  -5  -3  -8 212.158 18.9809  16
  -5  -3  -8 245.184 16.0177  18
  -6  -3  -8 18.1342 4.33146  17
  -6  -3  -8 16.7127 3.93620  16
  -6  -3  -8 19.3228 2.94468  18
  -7  -3  -8 22.3617 4.48572  17
  -7  -3  -8 27.8932 4.20887  16
  -7  -3  -8 31.3322 3.24155  18
  -8  -3  -8 0.37877 1.49265  17
  -7   4   8 1.07369 1.34281   9
  -7   4   8 0.38923 1.13201  15
  -6   4   8 21.4634 2.57848   9
  -6   4   8 19.3475 2.44380   8
  -5   4   8 20.1914 2.88964   8
  -4   4   8 70.4579 6.65097   8
   3  -4  -8 169.559 14.6837   8
   2  -4  -8 79.7568 7.55853   8
   1  -4  -8 332.525 32.2889   4
   1  -4  -8 368.460 22.9755   2
   1  -4  -8 347.607 23.7217  18
   1  -4  -8 354.639 22.1105   9
   1  -4  -8 391.076 28.7855   8
   1  -4  -8 395.276 22.6053   3
   0  -4  -8 20.9112 2.60164  18
   0  -4  -8 22.1172 2.77705   9
   0  -4  -8 22.2454 2.62201   7
   0  -4  -8 19.7554 3.13240   4
   0  -4  -8 20.9842 2.37308  10
   0  -4  -8 23.1955 1.62313   3
   0  -4  -8 24.1446 2.83911   8
   0  -4  -8 21.3961 2.35640   2
  -1  -4  -8 98.4996 6.35701  10
  -1  -4  -8 104.981 6.43238   3
  -1  -4  -8 100.955 7.56589  18
  -1  -4  -8 102.631 10.0006  17
  -1  -4  -8 109.177 6.84633   9
  -1  -4  -8 97.3527 7.71645  11
  -1  -4  -8 97.6153 10.0678   4
  -1  -4  -8 107.683 7.57354   7
  -1  -4  -8 99.1647 7.90044   8
  -1  -4  -8 107.428 6.85994   2
  -2  -4  -8 215.184 12.7902   9
  -2  -4  -8 241.022 14.7943  18
  -2  -4  -8 216.911 13.2645   3
  -2  -4  -8 229.028 13.3710   2
  -2  -4  -8 199.258 19.5844   4
  -2  -4  -8 225.577 14.5695   7
  -2  -4  -8 210.515 18.6384  17
  -2  -4  -8 192.047 17.5644  16
  -2  -4  -8 213.217 12.1814  10
  -2  -4  -8 206.151 14.3999  11
  -3  -4  -8 24.4815 2.88651  18
  -3  -4  -8 26.2565 4.79083  17
  -3  -4  -8 23.4786 3.47020   4
  -3  -4  -8 23.3684 2.74921   7
  -3  -4  -8 22.9192 1.91240  10
  -3  -4  -8 26.6405 4.90357  16
  -3  -4  -8 23.6207 3.24028  11
  -4  -4  -8 180.916 16.9518  16
  -4  -4  -8 215.011 14.2634  18
  -4  -4  -8 217.446 11.2642  10
  -4  -4  -8 207.312 18.7329  17
  -4  -4  -8 212.654 13.8958  11
  -4  -4  -8 196.768 14.0999   7
  -5  -4  -8 33.8759 5.26078  16
  -5  -4  -8 35.7645 3.89763  11
  -5  -4  -8 31.9483 5.68791  17
  -5  -4  -8 37.2137 3.78419  18
  -6  -4  -8 26.9644 4.96912  16
  -6  -4  -8 29.3640 5.35010  17
  -6  -4  -8 34.8051 3.35005  11
  -6  -4  -8 33.7327 3.57823  18
  -7  -4  -8 -0.2819 1.25478  11
  -7  -4  -8 0.67327 1.19851  18
  -7  -4  -8 0.66695 1.99637  17
  -8  -4  -8 53.4638 4.21035  18
  -7   5   8 16.4374 2.36935  15
  -7   5   8 16.8974 2.01532   9
  -6   5   8 78.9283 5.56553   9
  -6   5   8 69.7138 6.21688   8
  -5   5   8 2.14411 1.32681   8
   4  -5  -8 105.307 10.3000   8
  -4   5   8 104.794 9.27252   8
   3  -5  -8 11.3798 2.55497   8
   2  -5  -8 146.875 12.5190   8
   1  -5  -8 52.2469 4.67704   9
   1  -5  -8 55.1223 5.38104   8
   1  -5  -8 44.4305 5.80861   4
   1  -5  -8 54.9838 3.50447   3
   1  -5  -8 50.8993 4.24565   2
   0  -5  -8 191.355 14.0214   8
   0  -5  -8 163.844 11.8564  18
   0  -5  -8 172.867 11.0063   9
   0  -5  -8 175.804 11.8065   7
   0  -5  -8 179.114 10.8527   3
   0  -5  -8 185.192 11.3047   2
   0  -5  -8 155.483 10.1734  10
   0  -5  -8 161.351 16.0755   4
  -1  -5  -8 572.428 43.0351   8
  -1  -5  -8 620.231 36.3029   7
  -1  -5  -8 502.374 45.7674  17
  -1  -5  -8 612.659 33.2624   9
  -1  -5  -8 591.474 35.5937  11
  -1  -5  -8 567.891 35.0082   3
  -1  -5  -8 568.241 31.1817  10
  -1  -5  -8 582.816 36.4424  18
  -1  -5  -8 541.081 49.7431   4
  -2  -5  -8 23.2919 1.59293   3
  -2  -5  -8 21.5389 4.30511  17
  -2  -5  -8 23.4279 2.15375   9
  -2  -5  -8 23.8121 2.21790  10
  -2  -5  -8 22.2480 2.64537   7
  -2  -5  -8 25.7864 3.15665  18
  -2  -5  -8 25.2675 1.94717   2
  -2  -5  -8 24.1820 3.25083  11
  -2  -5  -8 23.8838 3.42095   4
  -3  -5  -8 244.198 15.5581  18
  -3  -5  -8 227.685 12.7114  10
  -3  -5  -8 225.623 20.8928   4
  -3  -5  -8 235.000 15.4065  11
  -3  -5  -8 220.768 15.4075   7
  -3  -5  -8 226.476 20.2215  17
  -4  -5  -8 5.84623 2.12756  11
  -4  -5  -8 5.76017 0.69182  10
  -4  -5  -8 5.15381 1.87379  18
  -4  -5  -8 3.51811 1.66411   4
  -4  -5  -8 3.81494 3.06564  17
  -5  -5  -8 17.9864 2.87267  18
  -5  -5  -8 17.7678 4.03828  17
  -5  -5  -8 18.3779 2.73529  11
  -6  -5  -8 13.9342 2.51281  11
  -6  -5  -8 9.02517 3.68240  17
  -6  -5  -8 14.2638 2.52875  18
  -7  -5  -8 49.4335 4.61443  18
  -7  -5  -8 52.7592 4.18585  11
  -7  -5  -8 41.0387 5.80102  17
  -8  -5  -8 3.88226 1.05657  11
  -7   6   8 35.7331 2.90221   9
  -6   6   8 1.14360 1.23234   9
  -6   6   8 2.64666 1.52934  15
  -5   6   8 120.234 10.1141   8
   4  -6  -8 48.7050 5.63044   8
  -4   6   8 51.2547 5.13007   8
   3  -6  -8 114.120 9.44702   8
   3  -6  -8 86.2569 9.62439   4
   2  -6  -8 28.6989 4.43253   4
   2  -6  -8 41.8438 4.57742   8
   1  -6  -8 23.8948 3.03931   9
   1  -6  -8 21.6909 2.43045   2
   1  -6  -8 21.0704 1.59244   3
   1  -6  -8 17.2172 3.26951   4
   1  -6  -8 21.4239 2.86197   8
   0  -6  -8 196.372 12.2461   3
   0  -6  -8 173.060 17.9553   4
   0  -6  -8 203.005 15.6530   8
   0  -6  -8 211.450 12.7205   2
   0  -6  -8 193.509 11.4592  10
   0  -6  -8 205.028 12.4463   9
  -1  -6  -8 499.646 27.7085   9
  -1  -6  -8 461.077 25.9247  10
  -1  -6  -8 453.143 35.5997   8
  -1  -6  -8 481.269 30.2704  18
  -1  -6  -8 464.417 29.5855  11
  -1  -6  -8 465.712 41.4394   4
  -1  -6  -8 471.477 28.9794   3
  -1  -6  -8 496.225 29.0142   2
  -2  -6  -8 369.831 20.1340  10
  -2  -6  -8 389.374 23.4283  11
  -2  -6  -8 365.561 32.4375   4
  -2  -6  -8 324.053 30.3153  17
  -2  -6  -8 345.140 22.3832   3
  -2  -6  -8 384.059 21.3816   9
  -2  -6  -8 375.470 22.3827   2
  -2  -6  -8 377.963 23.8317  18
  -3  -6  -8 66.1619 7.26319   4
  -3  -6  -8 65.8335 5.68167  18
  -3  -6  -8 69.0292 4.18822  10
  -3  -6  -8 71.8943 5.70675  11
  -3  -6  -8 57.4367 7.55550  17
  -4  -6  -8 224.329 14.5582  11
  -4  -6  -8 224.394 11.8226  10
  -4  -6  -8 215.267 14.8424  18
  -4  -6  -8 188.186 19.2949  17
  -5  -6  -8 41.8492 6.38110  17
  -5  -6  -8 51.6154 4.61049  11
  -5  -6  -8 48.3696 4.45246  18
  -6  -6  -8 22.8454 4.59427  17
  -6  -6  -8 27.3645 3.33549  18
  -6  -6  -8 25.0152 3.08790  11
  -7  -6  -8 70.9108 5.57479  11
  -7  -6  -8 76.8320 6.00297  18
  -8  -6  -8 1.10119 0.97459  11
  -7   7   8 5.37678 1.25759  15
  -7   7   8 4.82582 1.00127   9
  -6   7   8 90.1002 7.11437   8
  -6   7   8 87.2886 7.16480  15
  -6   7   8 76.6170 6.03566   9
   4  -7  -8 45.8904 5.46922   8
  -4   7   8 42.5274 4.76654   8
   3  -7  -8 200.613 16.7646   8
   2  -7  -8 17.2584 2.83130   8
   2  -7  -8 10.1645 2.58784   4
   1  -7  -8 66.4242 7.55128   4
   1  -7  -8 75.6109 5.64330   9
   1  -7  -8 80.0192 6.94253   8
   1  -7  -8 71.4310 5.47629   2
   0  -7  -8 4.13795 1.17349   2
   0  -7  -8 4.20579 1.48370  11
   0  -7  -8 3.34422 1.23179   8
   0  -7  -8 3.74461 1.61393   9
   0  -7  -8 4.02099 1.57773   4
   0  -7  -8 2.58671 0.99703  10
   0  -7  -8 3.26636 0.51971   3
  -1  -7  -8 167.974 16.4860   4
  -1  -7  -8 178.181 11.1243   9
  -1  -7  -8 177.207 13.1936  12
  -1  -7  -8 199.302 10.5178  10
  -1  -7  -8 178.837 11.4343   2
  -1  -7  -8 185.791 12.2266  11
  -1  -7  -8 172.387 13.5468   8
  -2  -7  -8 62.6465 3.99891  10
  -2  -7  -8 58.9787 4.97569  11
  -2  -7  -8 59.4922 5.70321  12
  -2  -7  -8 53.3957 6.27253   4
  -2  -7  -8 53.3747 4.90338  18
  -3  -7  -8 98.4382 10.6942   4
  -3  -7  -8 108.278 8.55326  12
  -3  -7  -8 109.699 8.23138  18
  -3  -7  -8 116.978 6.45120  10
  -3  -7  -8 119.933 8.32555  11
  -3  -7  -8 95.7281 11.2463  17
  -4  -7  -8 170.387 12.5219  18
  -4  -7  -8 188.850 10.0347  10
  -4  -7  -8 173.158 12.9681  12
  -4  -7  -8 187.043 12.3946  11
  -5  -7  -8 55.8915 5.63657  12
  -5  -7  -8 59.4606 5.00335  11
  -5  -7  -8 55.1453 4.96647  18
  -6  -7  -8 175.658 13.1740  12
  -6  -7  -8 207.225 12.6937  11
  -6  -7  -8 186.239 12.9295  18
  -7  -7  -8 13.3555 2.01583  18
  -7  -7  -8 6.39687 1.77547  12
  -7  -7  -8 11.2065 1.85425  11
  -6   8   8 129.774 8.46814   9
  -6   8   8 132.774 9.71451  15
   5  -8  -8 46.2418 5.61959   8
  -5   8   8 56.4040 5.07535   8
  -5   8   8 49.2840 4.93137  15
  -5   8   8 46.3038 4.79664   9
   4  -8  -8 140.329 12.2762   8
   3  -8  -8 1.69643 1.32593   8
  -3   8   8 0.13847 0.94986   8
   2  -8  -8 285.117 22.7982   8
   1  -8  -8 24.7158 3.01479   8
   1  -8  -8 20.3267 2.91327  11
   1  -8  -8 22.4313 3.07159   9
   0  -8  -8 149.725 8.77034  10
   0  -8  -8 152.383 11.8810   8
   0  -8  -8 152.582 10.2701  11
   0  -8  -8 151.974 9.75675   9
   0  -8  -8 126.771 13.6698   4
  -1  -8  -8 69.6856 9.29313   4
  -1  -8  -8 108.985 6.73597   9
  -1  -8  -8 106.202 6.11382  10
  -1  -8  -8 100.159 7.31478  11
  -1  -8  -8 95.6672 8.03189  12
  -2  -8  -8 11.1634 1.52915  10
  -2  -8  -8 11.3954 2.02443  11
  -2  -8  -8 9.95310 1.46872   9
  -2  -8  -8 8.87538 2.40208  12
  -3  -8  -8 183.891 14.0839  12
  -3  -8  -8 200.875 13.3144  11
  -3  -8  -8 177.029 13.2869  18
  -3  -8  -8 218.733 11.1556  10
  -4  -8  -8 8.98087 1.01539  10
  -4  -8  -8 6.12383 1.62519  18
  -4  -8  -8 6.91015 1.76333  11
  -4  -8  -8 6.43245 2.05578  12
  -5  -8  -8 224.179 15.6119  12
  -5  -8  -8 228.346 14.5351  11
  -5  -8  -8 209.834 14.7974  18
  -6  -8  -8 4.09835 1.33641  11
  -6  -8  -8 3.61994 1.54404  12
  -6  -8  -8 3.55253 1.45090  18
  -7  -8  -8 39.5644 3.04038  11
  -7  -8  -8 28.0183 3.16588  12
  -6   9   8 28.4965 2.55266   9
   5  -9  -8 80.1106 6.59577   8
  -5   9   8 68.6299 5.62125  15
  -5   9   8 69.7495 5.35099   9
  -5   9   8 64.1725 6.05951   8
   4  -9  -8 0.15632 1.22597   8
  -4   9   8 -0.2876 1.77150   8
  -4   9   8 -1.0857 0.77431  15
   3  -9  -8 130.364 9.98038  11
   3  -9  -8 159.516 12.8671   8
  -3   9   8 170.036 13.5580   8
   2  -9  -8 1.09507 1.42776  11
   2  -9  -8 2.06133 1.27072   8
   2  -9  -8 0.88668 1.32014   9
   1  -9  -8 89.8606 7.94940   8
   1  -9  -8 89.9286 6.88713  11
   1  -9  -8 90.5394 6.64662   9
   0  -9  -8 277.091 21.5437   8
   0  -9  -8 281.189 17.0246   9
   0  -9  -8 276.050 17.9181  11
   0  -9  -8 277.995 15.7499  10
  -1  -9  -8 0.54988 1.52005  11
  -1  -9  -8 1.94933 0.91085  10
  -1  -9  -8 0.47868 1.84501  12
  -2  -9  -8 303.628 17.4929   9
  -2  -9  -8 282.073 18.9305  11
  -2  -9  -8 311.875 16.5454  10
  -2  -9  -8 283.716 20.2786  12
  -3  -9  -8 0.17998 1.07164  11
  -3  -9  -8 0.86515 1.56248  12
  -3  -9  -8 1.54092 0.84468  10
  -4  -9  -8 132.164 10.6674  12
  -4  -9  -8 132.662 9.39864  11
  -4  -9  -8 147.800 7.78162  10
  -4  -9  -8 130.591 9.59977  18
  -5  -9  -8 12.0183 1.93619  18
  -5  -9  -8 10.7130 2.00381  11
  -5  -9  -8 5.80487 2.32709  12
  -6  -9  -8 17.3111 2.10104  11
  -6  -9  -8 11.6474 1.91368  12
  -7  -9  -8 37.1707 2.92808  11
   5 -10  -8 3.64174 1.19295   8
  -5  10   8 2.50711 0.66134   8
   4 -10  -8 126.243 10.2893   8
  -4  10   8 119.601 10.4342   8
   3 -10  -8 50.8645 5.06611   8
  -3  10   8 53.6539 5.88955   8
   2 -10  -8 8.52020 1.94432   8
   1 -10  -8 201.538 15.9715   8
   0 -10  -8 -0.0394 1.35345  11
   0 -10  -8 2.53954 1.00106  10
   0 -10  -8 -0.0050 1.37339   9
   0 -10  -8 1.54543 0.86507   8
  -1 -10  -8 219.716 12.0632  10
  -1 -10  -8 198.772 13.6778  11
  -1 -10  -8 212.871 14.7907  12
  -1 -10  -8 208.813 12.7746   9
  -2 -10  -8 0.51112 0.92097  10
  -2 -10  -8 0.57202 1.02057  11
  -2 -10  -8 4.27558 2.23244  12
  -2 -10  -8 1.73079 0.86536   9
  -3 -10  -8 18.9314 1.65605  10
  -3 -10  -8 16.8341 2.39089  11
  -3 -10  -8 18.0574 2.80067  12
  -4 -10  -8 76.5652 5.92858  11
  -4 -10  -8 76.7188 6.65655  12
  -4 -10  -8 82.3229 4.65866  10
  -5 -10  -8 37.6901 3.76964  12
  -5 -10  -8 33.9601 2.99161  11
  -6 -10  -8 15.3768 1.67535  11
   4 -11  -8 58.2889 4.48686   8
  -4  11   8 42.8034 4.32475   8
   3 -11  -8 15.1613 1.91379   8
  -3  11   8 12.3639 2.47346   8
   2 -11  -8 235.426 18.6352   8
   2 -11  -8 245.733 14.5988   9
   1 -11  -8 22.1643 2.49597   9
   1 -11  -8 18.6840 2.11037   8
   0 -11  -8 118.213 9.29096  12
   0 -11  -8 135.520 8.24132   9
  -1 -11  -8 76.1332 4.84603  10
  -1 -11  -8 76.6185 6.30030  12
  -1 -11  -8 76.9305 5.11345   9
  -2 -11  -8 60.0723 3.95727   9
  -2 -11  -8 66.1870 3.98599  10
  -2 -11  -8 55.8735 5.37507  12
  -3 -11  -8 82.1818 7.46346  12
  -3 -11  -8 108.359 5.81148  10
  -4 -11  -8 1.83551 0.46872  10
  -4 -11  -8 -0.6632 1.06128  12
  -4 -11  -8 1.70829 0.78976  11
  -5 -11  -8 45.5119 3.85081  12
   2 -12  -8 16.5265 2.01549  12
  -2  12   8 11.9495 2.13898   8
   1 -12  -8 61.6051 5.35795  12
   1 -12  -8 75.8872 4.79818   9
   0 -12  -8 50.9901 3.47854   9
   0 -12  -8 35.8101 3.72739  12
  -1 -12  -8 35.1036 3.96083  12
  -1 -12  -8 51.0563 3.10771  10
  -1 -12  -8 46.4229 3.06872   9
  -2 -12  -8 87.4941 5.11581  10
  -2 -12  -8 85.5521 6.51878  12
  -3 -12  -8 0.56125 0.40127  10
  -3 -12  -8 0.57209 0.95036  12
   1   5  -9 68.4290 4.77446   9
   0   5  -9 1.51182 0.77310   9
   0   5  -9 2.38290 0.97794  10
  -1   5  -9 12.8913 1.49983  10
  -1   5  -9 13.7572 2.32866  17
  -2   5  -9 4.90887 0.83094  10
  -2   5  -9 3.86335 1.44891  17
   4   4  -9 17.0667 2.21402   8
  -4  -4   9 18.7389 1.85230   8
   3   4  -9 21.3360 2.45590   8
   3   4  -9 13.6452 2.36214   9
  -3  -4   9 29.2089 2.65222   8
   2   4  -9 32.4296 3.42265  18
   2   4  -9 41.7530 3.54696   8
   2   4  -9 33.3113 3.66722   9
   1   4  -9 13.8022 2.08058  18
   1   4  -9 24.6075 2.83172   9
   0   4  -9 50.1227 4.42268  18
   0   4  -9 69.5191 4.60705  10
   0   4  -9 57.7421 5.86817  17
   0   4  -9 51.7474 4.42792   9
  -1   4  -9 0.68125 0.93345  10
  -1   4  -9 0.80510 1.53900  17
  -1   4  -9 0.69998 1.09575   9
  -2   4  -9 24.5621 2.39694  10
  -2   4  -9 15.9896 3.02936  17
  -3   4  -9 92.3405 4.85584  10
  -3   4  -9 63.4679 7.48891  17
  -4   4  -9 18.1793 2.82834  17
   5   3  -9 3.52521 1.25461   8
  -5  -3   9 6.01269 0.88400   8
  -5  -3   9 6.46877 1.97351  14
   4   3  -9 5.72021 1.64341   8
  -4  -3   9 4.50363 1.05718   8
   3   3  -9 57.9098 5.91856   8
  -3  -3   9 66.4510 5.78069   8
   2   3  -9 0.09387 1.03770   8
   2   3  -9 0.49112 1.59305   9
   1   3  -9 8.57346 1.53397   8
   1   3  -9 7.17655 2.05651   9
   0   3  -9 8.77428 2.30938  18
   0   3  -9 7.85160 2.30965   9
   0   3  -9 8.75568 2.75894  17
   0   3  -9 14.6065 2.08918  10
  -1   3  -9 66.7341 4.78284  10
  -1   3  -9 70.6570 5.19088   9
  -1   3  -9 61.2268 5.38389  18
  -1   3  -9 70.2799 7.64755  17
  -2   3  -9 46.1568 3.76509  10
  -2   3  -9 46.3895 6.23816  17
  -3   3  -9 40.7074 5.35019  17
  -3   3  -9 43.2508 3.01001  10
  -4   3  -9 58.0570 6.81778  17
  -5   3  -9 1.61150 1.46127  17
   5   2  -9 7.09441 1.91870   8
  -5  -2   9 10.2528 2.50853  14
  -5  -2   9 7.63457 1.25964   8
   4   2  -9 44.7691 5.54669   8
  -4  -2   9 49.9389 4.62032   8
   3   2  -9 2.59402 2.27596   8
  -3  -2   9 4.97830 1.46131   8
   2   2  -9 13.1413 2.72194   9
   2   2  -9 14.0394 2.83168   8
   1   2  -9 41.6098 4.66370   9
   1   2  -9 40.6243 4.48035   8
   0   2  -9 32.8915 4.12016  18
   0   2  -9 37.8008 5.85210  17
   0   2  -9 45.9968 3.63168  10
   0   2  -9 34.1272 4.12835   9
  -1   2  -9 93.0200 7.07810   9
  -1   2  -9 104.271 8.14166  18
  -1   2  -9 97.2815 6.67521  10
  -1   2  -9 102.912 10.2093  17
  -2   2  -9 -0.5848 1.67592  18
  -2   2  -9 1.29868 0.92647   9
  -2   2  -9 -0.1447 0.82818  10
  -2   2  -9 -0.0639 1.74558  17
  -3   2  -9 47.2499 6.22388  17
  -3   2  -9 37.0804 3.60481  18
  -3   2  -9 38.1899 2.92736  10
  -4   2  -9 -1.4894 2.03636  16
  -4   2  -9 0.58308 0.50738  10
  -4   2  -9 0.21623 1.72424  17
  -5   2  -9 27.9361 3.77458  16
  -5   2  -9 28.5033 4.37992  17
  -6   2  -9 2.52340 1.52384  17
  -6   2  -9 3.38036 1.49216  16
   6   1  -9 1.73970 1.33380   8
  -6  -1   9 1.78734 0.92350   9
  -6  -1   9 2.54793 1.65163  14
   5   1  -9 58.8782 6.52149   8
  -5  -1   9 70.2502 5.78599   8
   4   1  -9 54.5275 6.45496   8
  -4  -1   9 67.6050 5.97345   8
   3   1  -9 71.6001 7.66703   8
   2   1  -9 44.2103 5.33089   8
   2   1  -9 37.9054 4.46677   9
   1   1  -9 19.8637 3.33780   9
   1   1  -9 18.1351 2.98276   8
   0   1  -9 194.687 11.6912  10
   0   1  -9 183.242 14.0129  18
   0   1  -9 189.180 15.2150   8
   0   1  -9 220.596 13.0167   9
  -1   1  -9 3.83484 2.69351  17
  -1   1  -9 5.75500 1.85210   9
  -1   1  -9 6.06514 1.71735  10
  -1   1  -9 4.13453 1.82412  18
  -2   1  -9 101.011 6.11402  10
  -2   1  -9 83.0489 5.85441   9
  -2   1  -9 100.974 9.95366  17
  -2   1  -9 84.9347 7.30421  18
  -3   1  -9 6.33424 2.15405  18
  -3   1  -9 4.93190 2.83310  16
  -3   1  -9 6.18162 1.14891  10
  -3   1  -9 5.44094 2.97067  17
  -4   1  -9 44.8828 3.86356  18
  -4   1  -9 45.4384 5.77283  17
  -4   1  -9 37.7389 2.58204  10
  -4   1  -9 35.1601 4.99007  16
  -5   1  -9 62.5956 6.63146  17
  -5   1  -9 44.7609 5.74562  16
  -6   1  -9 2.78635 1.83003  17
  -6   1  -9 4.97889 2.06588  16
   6   0  -9 55.0185 6.49171   8
  -6   0   9 68.6209 5.60331   8
  -6   0   9 81.9181 7.76369  14
  -6   0   9 80.8756 5.27744   9
   5   0  -9 49.0717 6.18700   8
  -5   0   9 64.2428 5.57733   8
  -5   0   9 65.6541 7.08551  14
   4   0  -9 106.361 10.6384   8
  -4   0   9 123.628 10.0587   8
   3   0  -9 111.080 10.3573   8
   2   0  -9 1.82704 1.66171   8
   2   0  -9 3.33612 2.45043   9
   1   0  -9 141.482 12.1336   8
   1   0  -9 141.568 9.88067   9
   0   0  -9 4.71485 1.28850   8
   0   0  -9 6.63936 1.77856  10
   0   0  -9 5.58587 2.19657   9
   0   0  -9 5.90079 2.36078  18
  -1   0  -9 71.2237 4.92746  10
  -1   0  -9 65.3431 6.12690  18
  -1   0  -9 68.8804 5.40291   9
  -1   0  -9 70.0389 7.91146  17
  -2   0  -9 46.4719 5.73791  17
  -2   0  -9 41.3109 3.22842   9
  -2   0  -9 39.7565 4.82933  18
  -2   0  -9 43.6573 3.48288  10
  -2   0  -9 33.4692 5.34882  16
  -3   0  -9 50.7517 3.63557  10
  -3   0  -9 64.4685 7.30860  17
  -3   0  -9 49.0629 4.91578  18
  -3   0  -9 43.3433 6.41548  16
  -4   0  -9 43.8414 5.69346  17
  -4   0  -9 37.4130 4.33324  18
  -4   0  -9 39.0356 2.54216  10
  -4   0  -9 39.7506 5.57333  16
  -5   0  -9 7.93739 2.83724  17
  -5   0  -9 6.20985 3.14860  16
  -5   0  -9 8.25244 1.71194  18
  -6   0  -9 94.7000 9.08357  16
  -6   0  -9 107.732 10.2908  17
  -7   0  -9 2.47556 1.63441  17
  -7   0  -9 2.33079 1.50624  16
  -7   1   9 41.7848 3.02432   9
  -6   1   9 32.0294 2.99449   8
  -6   1   9 29.6338 4.12409  14
  -6   1   9 31.9173 3.00075   9
   5  -1  -9 4.23554 1.98382   8
  -5   1   9 6.02786 1.42775   8
  -5   1   9 5.96078 2.33744  14
   4  -1  -9 129.954 12.2102   8
  -4   1   9 134.182 11.1577   8
   3  -1  -9 0.24577 2.14070   8
   2  -1  -9 126.747 11.3493   8
   2  -1  -9 130.669 9.60014   9
   1  -1  -9 163.258 11.0646  10
   1  -1  -9 179.810 11.9046   9
   1  -1  -9 191.585 14.9745   8
   0  -1  -9 46.4147 3.66513  10
   0  -1  -9 51.7250 4.60109   9
   0  -1  -9 44.5089 4.28809   8
   0  -1  -9 38.3448 3.86059   7
   0  -1  -9 43.4358 4.87168  18
  -1  -1  -9 32.0729 3.14231   9
  -1  -1  -9 40.7089 4.49881  18
  -1  -1  -9 29.7584 3.58198   7
  -1  -1  -9 34.5423 5.28055  17
  -1  -1  -9 37.7338 3.27685  10
  -2  -1  -9 32.9635 4.12301  18
  -2  -1  -9 29.2971 2.73415   9
  -2  -1  -9 37.9744 5.45215  17
  -2  -1  -9 29.2543 4.90097  16
  -2  -1  -9 27.9182 3.52372   7
  -2  -1  -9 33.2139 2.88918  10
  -3  -1  -9 104.205 8.54218  18
  -3  -1  -9 101.283 10.3913  16
  -3  -1  -9 103.703 6.39725  10
  -3  -1  -9 121.738 11.1786  17
  -4  -1  -9 9.27195 3.38561  17
  -4  -1  -9 11.0381 1.11746  10
  -4  -1  -9 9.70214 2.46988  18
  -4  -1  -9 13.1618 3.52720  16
  -5  -1  -9 117.066 11.0776  17
  -5  -1  -9 107.746 10.7320  16
  -5  -1  -9 107.898 8.46107  18
  -6  -1  -9 18.6007 2.38305  18
  -6  -1  -9 15.5828 3.45443  17
  -6  -1  -9 10.0248 2.95668  16
  -7  -1  -9 16.2395 2.86283  16
  -7  -1  -9 12.3936 3.05374  17
  -7   2   9 48.4340 3.51754   9
  -6   2   9 -0.1709 0.47878   8
  -6   2   9 0.35287 0.99509   9
   5  -2  -9 55.5222 6.72690   8
  -5   2   9 56.9104 5.28093   8
   4  -2  -9 42.6015 5.67959   8
  -4   2   9 39.5366 4.42851   8
   3  -2  -9 145.451 12.8482   8
   2  -2  -9 53.2525 5.07823   9
   2  -2  -9 54.7211 6.13142   8
   1  -2  -9 12.1044 1.93417   2
   1  -2  -9 11.7100 2.54780  18
   1  -2  -9 12.3831 1.98319  10
   1  -2  -9 14.0533 2.48038   9
   1  -2  -9 10.9393 2.37457   8
   0  -2  -9 47.5040 4.14940   2
   0  -2  -9 51.7872 4.16331  10
   0  -2  -9 48.6952 4.48857   7
   0  -2  -9 56.0462 4.88201   8
   0  -2  -9 58.3305 4.81581   9
   0  -2  -9 48.9197 4.80011  18
  -1  -2  -9 8.19106 1.79014   7
  -1  -2  -9 5.88490 1.20028   2
  -1  -2  -9 8.51945 1.62738  10
  -1  -2  -9 6.31349 1.60589   9
  -1  -2  -9 10.4127 2.68794  17
  -1  -2  -9 10.9745 2.20153  18
  -2  -2  -9 95.2994 9.09433  17
  -2  -2  -9 88.3309 5.60831  10
  -2  -2  -9 71.9223 8.33970  16
  -2  -2  -9 80.1844 6.65047   7
  -2  -2  -9 94.7067 7.37839  18
  -2  -2  -9 91.3577 5.67130   9
  -3  -2  -9 14.2581 3.39594  17
  -3  -2  -9 8.85943 3.00768  16
  -3  -2  -9 9.68845 2.37318  18
  -3  -2  -9 11.7618 1.44561  10
  -4  -2  -9 177.775 16.9233  16
  -4  -2  -9 219.202 14.2121  18
  -4  -2  -9 196.195 10.9190  10
  -4  -2  -9 221.056 18.3781  17
  -5  -2  -9 22.8734 4.39803  16
  -5  -2  -9 27.7615 3.30166  18
  -5  -2  -9 25.9186 4.50843  17
  -6  -2  -9 65.9269 7.71394  17
  -6  -2  -9 57.1330 6.54804  16
  -6  -2  -9 62.7900 5.44806  18
  -7  -2  -9 38.1995 5.15890  16
  -7  -2  -9 66.0263 6.16589  17
  -7   3   9 1.99463 0.92755   9
  -6   3   9 33.8390 3.17890   9
  -6   3   9 32.3766 3.12508   8
   5  -3  -9 15.1596 3.14781   8
  -5   3   9 15.7658 2.42260   8
   4  -3  -9 59.8938 7.06197   8
  -4   3   9 63.6612 5.98864   8
   3  -3  -9 73.9071 7.44841   8
   2  -3  -9 22.4942 3.10243  18
   2  -3  -9 30.1319 3.61429   9
   2  -3  -9 23.5751 3.71274   8
   1  -3  -9 121.559 8.07058  10
   1  -3  -9 120.777 8.90436   2
   1  -3  -9 140.354 11.1456   8
   1  -3  -9 142.856 9.24741   9
   1  -3  -9 125.903 9.41307  18
   0  -3  -9 46.0578 3.85168   2
   0  -3  -9 48.2389 4.27568   7
   0  -3  -9 51.8870 4.39551   9
   0  -3  -9 54.2811 4.60788   8
   0  -3  -9 50.0115 4.73859  18
   0  -3  -9 40.9868 5.47077   4
   0  -3  -9 53.2221 3.93594  10
   0  -3  -9 42.7142 3.10834   3
  -1  -3  -9 127.670 9.37274   7
  -1  -3  -9 124.652 8.53451   2
  -1  -3  -9 134.597 8.00451  10
  -1  -3  -9 136.537 8.49105   9
  -1  -3  -9 133.262 12.3243  17
  -1  -3  -9 131.199 9.55201  18
  -1  -3  -9 127.344 9.24822  11
  -2  -3  -9 26.4946 2.43293  10
  -2  -3  -9 24.4040 3.22274  11
  -2  -3  -9 26.6657 2.26659   9
  -2  -3  -9 30.5740 3.69438  18
  -2  -3  -9 26.2865 4.64289  16
  -2  -3  -9 29.4037 3.08926   7
  -2  -3  -9 31.1859 4.94392  17
  -3  -3  -9 93.5610 6.50076  11
  -3  -3  -9 94.9603 6.96349  18
  -3  -3  -9 81.6249 8.63820  16
  -3  -3  -9 61.9855 6.54199   7
  -3  -3  -9 87.8343 5.25425  10
  -3  -3  -9 94.9188 9.20152  17
  -4  -3  -9 26.6014 5.01417  16
  -4  -3  -9 28.1865 1.71754  10
  -4  -3  -9 24.3167 3.43990  18
  -4  -3  -9 25.8074 4.92082  17
  -5  -3  -9 37.6977 3.83462  18
  -5  -3  -9 31.3821 5.47757  17
  -5  -3  -9 33.2117 5.65823  16
  -6  -3  -9 96.4951 6.69146  18
  -6  -3  -9 69.9210 7.87128  16
  -6  -3  -9 77.0502 9.00448  17
  -7  -3  -9 11.5826 1.88277  18
  -7  -3  -9 7.49118 2.40317  17
  -7   4   9 27.9666 2.38770   9
  -7   4   9 24.0494 2.76600  15
  -6   4   9 28.0849 2.94294   9
  -6   4   9 27.7760 2.73657   8
   5  -4  -9 15.3627 3.48236   8
  -5   4   9 17.8519 2.40992   8
   4  -4  -9 186.690 16.1444   8
  -4   4   9 188.285 15.3436   8
   3  -4  -9 6.36862 2.07519   8
   2  -4  -9 125.774 10.9391   8
   2  -4  -9 124.747 9.07072   9
   1  -4  -9 18.1542 2.20943   2
   1  -4  -9 20.3402 2.54079  10
   1  -4  -9 26.6747 3.13869   9
   1  -4  -9 13.9136 3.01787   4
   1  -4  -9 22.2814 3.07774   8
   1  -4  -9 18.6422 2.68241  18
   0  -4  -9 416.958 40.4766   4
   0  -4  -9 454.246 28.5425   2
   0  -4  -9 491.065 27.3937   9
   0  -4  -9 497.106 29.9134  18
   0  -4  -9 441.151 29.4551   7
   0  -4  -9 458.613 25.5662  10
   0  -4  -9 430.861 28.3443   3
   0  -4  -9 521.142 35.3929   8
  -1  -4  -9 302.925 29.4602   4
  -1  -4  -9 363.655 21.9572  18
  -1  -4  -9 322.721 18.4607  10
  -1  -4  -9 330.362 21.6172   7
  -1  -4  -9 315.444 21.3336  11
  -1  -4  -9 358.924 19.7258   9
  -1  -4  -9 329.422 20.5128   2
  -2  -4  -9 13.9397 1.54397   9
  -2  -4  -9 10.5422 2.37308  11
  -2  -4  -9 12.0696 1.61578  10
  -2  -4  -9 16.6421 3.51025  17
  -2  -4  -9 13.3554 2.26603   7
  -2  -4  -9 17.9534 2.73952  18
  -3  -4  -9 179.323 16.1299  17
  -3  -4  -9 169.415 9.76542  10
  -3  -4  -9 183.718 12.0907  11
  -3  -4  -9 186.934 12.3589  18
  -3  -4  -9 154.893 11.9937   7
  -4  -4  -9 1.60497 0.39290  10
  -4  -4  -9 1.53886 2.40118  16
  -4  -4  -9 1.45843 1.65318  11
  -4  -4  -9 1.61685 2.83268  17
  -4  -4  -9 0.86398 1.21915  18
  -5  -4  -9 42.6402 4.46638  18
  -5  -4  -9 39.8370 5.79702  16
  -5  -4  -9 34.0946 5.79000  17
  -5  -4  -9 42.4859 3.75415  11
  -6  -4  -9 9.77714 1.59090  11
  -6  -4  -9 4.62860 2.45853  17
  -6  -4  -9 10.1863 2.06249  18
  -7  -4  -9 59.0833 4.76855  18
  -7  -4  -9 58.0085 6.50186  17
  -7   5   9 35.5220 3.29296  15
  -7   5   9 33.8442 2.76428   9
  -6   5   9 14.9044 2.13555   9
  -6   5   9 11.9755 1.70330   8
   5  -5  -9 132.276 12.0592   8
  -5   5   9 142.685 11.4830   8
   4  -5  -9 27.1740 4.34527   8
  -4   5   9 33.8011 3.91663   8
   3  -5  -9 184.073 15.6025   8
   2  -5  -9 50.6463 5.01721   8
   2  -5  -9 47.3460 4.59492   9
   2  -5  -9 30.6299 4.67326   4
   1  -5  -9 15.0945 2.23625  10
   1  -5  -9 14.2581 2.39123   8
   1  -5  -9 13.0891 2.04850   2
   1  -5  -9 16.0358 2.43423   9
   1  -5  -9 10.8482 2.65534   4
   0  -5  -9 287.434 19.0743  18
   0  -5  -9 251.349 25.9163   4
   0  -5  -9 287.731 16.4589  10
   0  -5  -9 284.015 18.2283   2
   0  -5  -9 317.995 22.4995   8
   0  -5  -9 309.337 17.6963   9
  -1  -5  -9 270.653 15.0828   9
  -1  -5  -9 242.584 16.5277   7
  -1  -5  -9 235.471 22.5689   4
  -1  -5  -9 254.718 14.1646  10
  -1  -5  -9 220.535 15.5154   2
  -1  -5  -9 261.916 16.6706  18
  -1  -5  -9 268.708 16.5850  11
  -2  -5  -9 60.3411 5.16051  18
  -2  -5  -9 55.8520 3.91079   9
  -2  -5  -9 59.5680 3.93186  10
  -2  -5  -9 57.2831 5.44071  11
  -2  -5  -9 52.0608 4.91027   7
  -2  -5  -9 52.4062 7.09912  17
  -3  -5  -9 15.6675 3.76030  17
  -3  -5  -9 15.0576 2.81281  11
  -3  -5  -9 17.6181 2.62108  18
  -3  -5  -9 16.0305 1.57320  10
  -4  -5  -9 125.018 9.23373  18
  -4  -5  -9 129.216 6.77147  10
  -4  -5  -9 106.744 11.9201  17
  -4  -5  -9 119.264 9.17644  11
  -5  -5  -9 76.5372 6.20391  18
  -5  -5  -9 74.0915 5.82254  11
  -5  -5  -9 60.8943 8.47103  17
  -6  -5  -9 40.3849 5.62613  17
  -6  -5  -9 41.1558 3.91907  18
  -7  -5  -9 30.1466 2.76113  11
  -7  -5  -9 32.0269 3.11087  18
   6  -6  -9 122.699 11.5771   8
  -6   6   9 139.303 10.2554  15
  -6   6   9 136.712 10.6464   8
   5  -6  -9 23.0206 3.60781   8
  -5   6   9 20.2188 2.58791   8
   4  -6  -9 80.3934 7.70018   8
  -4   6   9 72.1130 6.91047   8
   3  -6  -9 285.824 23.0517   8
   2  -6  -9 23.6832 3.34166   9
   2  -6  -9 24.8096 3.60945   8
   1  -6  -9 125.097 13.8665   4
   1  -6  -9 154.942 9.81431   9
   1  -6  -9 162.965 12.2626   8
   0  -6  -9 9.42084 1.55478  10
   0  -6  -9 11.7220 2.22709  11
   0  -6  -9 12.2035 1.99060   9
   0  -6  -9 8.53465 1.46554   8
   0  -6  -9 8.03510 2.08353   4
  -1  -6  -9 5.90368 2.08889   4
  -1  -6  -9 7.37739 1.43846  10
  -1  -6  -9 7.16084 1.84986  11
  -1  -6  -9 5.76724 1.68675  18
  -1  -6  -9 5.39763 1.49714   9
  -2  -6  -9 25.0301 3.38683  11
  -2  -6  -9 22.3880 2.97911  18
  -2  -6  -9 30.0664 2.26871   9
  -2  -6  -9 25.6668 2.32477  10
  -2  -6  -9 22.2263 3.77476   4
  -2  -6  -9 19.1824 4.43945  17
  -3  -6  -9 59.2345 4.99416  18
  -3  -6  -9 58.3078 3.68115  10
  -3  -6  -9 48.0297 6.87362  17
  -3  -6  -9 61.1190 5.22539  11
  -4  -6  -9 46.0643 7.43854  17
  -4  -6  -9 58.4975 3.27571  10
  -4  -6  -9 57.5156 5.51416  11
  -4  -6  -9 51.3400 5.12640  18
  -5  -6  -9 101.303 11.4668  17
  -5  -6  -9 127.385 8.69198  11
  -5  -6  -9 124.290 8.74607  18
  -6  -6  -9 66.5460 5.37574  18
  -6  -6  -9 65.6184 5.25936  11
  -7  -6  -9 0.51742 1.03161  18
  -7  -6  -9 3.64782 1.16467  11
  -6   7   9 33.2219 3.35524  15
  -6   7   9 34.0492 2.81588   8
  -6   7   9 32.6351 3.09732   9
   5  -7  -9 36.0863 4.25204   8
   4  -7  -9 129.877 10.9984   8
  -4   7   9 117.065 10.3801   8
   3  -7  -9 84.9209 8.08168   8
   2  -7  -9 216.642 17.8026   8
   2  -7  -9 224.662 14.1445   9
   1  -7  -9 68.5338 6.23978   8
   1  -7  -9 65.1576 5.27972   9
   0  -7  -9 57.1326 4.36433  10
   0  -7  -9 54.3678 5.08560  11
   0  -7  -9 61.9662 4.94193   9
   0  -7  -9 62.4780 5.25417   8
  -1  -7  -9 266.911 17.1246  11
  -1  -7  -9 256.767 15.6392   9
  -1  -7  -9 255.562 14.6320  10
  -2  -7  -9 77.6383 6.67058  18
  -2  -7  -9 91.1840 7.11629  11
  -2  -7  -9 91.8797 5.51181  10
  -3  -7  -9 57.8426 5.02917  11
  -3  -7  -9 51.9324 4.77573  18
  -3  -7  -9 42.7270 7.26794  17
  -3  -7  -9 61.7306 3.65980  10
  -4  -7  -9 31.2767 1.94363  10
  -4  -7  -9 21.5228 3.26285  11
  -4  -7  -9 30.0013 3.68812  18
  -5  -7  -9 109.057 7.81066  11
  -5  -7  -9 95.9078 7.52836  18
  -6  -7  -9 1.43715 1.54796  11
  -6  -7  -9 2.42594 1.62583  18
  -7  -7  -9 43.6138 3.57819  11
  -6   8   9 3.26682 0.99483  15
   5  -8  -9 103.353 8.58431   8
  -5   8   9 89.1545 8.05224   8
  -5   8   9 96.3528 7.48395  15
   4  -8  -9 2.15980 1.86175   8
  -4   8   9 1.82949 1.08961   8
   3  -8  -9 79.3781 7.49471   8
   2  -8  -9 18.9456 2.95016   9
   2  -8  -9 20.8062 3.14263   8
   1  -8  -9 93.0873 7.99867   8
   1  -8  -9 91.9639 6.93078   9
   1  -8  -9 92.8339 7.24659  11
   0  -8  -9 215.352 12.6717   9
   0  -8  -9 199.811 11.5854  10
   0  -8  -9 204.496 13.4944  11
   0  -8  -9 189.031 15.3749   8
  -1  -8  -9 172.041 10.0452  10
  -1  -8  -9 175.394 11.8644  11
  -1  -8  -9 167.110 10.7118   9
  -2  -8  -9 135.686 9.77775  11
  -2  -8  -9 136.674 8.04840  10
  -2  -8  -9 136.580 8.31165   9
  -3  -8  -9 12.7355 1.27895  10
  -3  -8  -9 10.8645 2.32255  11
  -3  -8  -9 9.62439 2.05233  18
  -4  -8  -9 172.498 11.7534  11
  -4  -8  -9 182.647 9.56685  10
  -4  -8  -9 161.360 12.0177  18
  -5  -8  -9 1.76108 1.64700  11
  -5  -8  -9 1.58851 1.59079  18
  -6  -8  -9 58.0664 4.66009  18
  -6  -8  -9 59.6339 4.54043  11
   5  -9  -9 8.87602 1.60982   8
  -5   9   9 4.64028 1.15591   8
  -5   9   9 5.72350 1.24124  15
   4  -9  -9 71.4166 5.71333  11
   4  -9  -9 91.4683 7.35568   8
  -4   9   9 84.1155 7.47510   8
   3  -9  -9 84.1625 6.47761  11
   3  -9  -9 97.2407 8.14239   8
   2  -9  -9 34.5906 3.44222   8
   2  -9  -9 23.4373 2.97715   9
   2  -9  -9 29.9932 3.16822  11
   1  -9  -9 168.293 11.2073  11
   1  -9  -9 164.858 13.2084   8
   1  -9  -9 165.035 10.7326   9
   0  -9  -9 3.23350 1.35294   9
   0  -9  -9 0.09400 1.65127  12
   0  -9  -9 1.78682 1.15929  10
   0  -9  -9 -0.3355 1.54452  11
  -1  -9  -9 224.326 14.7268  11
  -1  -9  -9 215.150 13.3886   9
  -1  -9  -9 216.833 15.4554  12
  -1  -9  -9 236.269 12.7779  10
  -2  -9  -9 9.01047 2.06945  12
  -2  -9  -9 8.41036 1.16161   9
  -2  -9  -9 8.49797 1.84012  11
  -2  -9  -9 8.93342 1.32460  10
  -3  -9  -9 64.3138 5.91323  12
  -3  -9  -9 73.1284 4.22097  10
  -3  -9  -9 60.6272 5.26936  11
  -4  -9  -9 70.2312 5.66444  18
  -4  -9  -9 73.7131 5.66046  11
  -4  -9  -9 64.8102 6.03313  12
  -4  -9  -9 81.4929 4.29603  10
  -5  -9  -9 8.95563 1.56420  11
  -5  -9  -9 8.32377 1.48264  18
  -5  -9  -9 9.15457 1.67944  12
  -6  -9  -9 20.7189 2.10163  11
   4 -10  -9 61.1013 5.59396   8
  -4  10   9 68.7644 5.87084   8
   3 -10  -9 23.5369 2.77515   8
  -3  10   9 18.3815 3.16113   8
   2 -10  -9 161.320 10.8161  11
   2 -10  -9 154.261 10.3538   9
   2 -10  -9 166.915 12.9022   8
   1 -10  -9 0.58856 0.66569   8
   1 -10  -9 0.44554 1.00368  11
   1 -10  -9 -0.2694 1.10336  12
   0 -10  -9 207.276 13.4437  11
   0 -10  -9 196.493 11.7028  10
   0 -10  -9 197.058 14.2654  12
   0 -10  -9 220.906 12.6669   9
  -1 -10  -9 54.0908 5.10069  12
  -1 -10  -9 62.0136 3.96155  10
  -1 -10  -9 57.4610 4.15902   9
  -1 -10  -9 58.4605 4.71538  11
  -2 -10  -9 46.8675 5.11839  12
  -2 -10  -9 51.0344 3.16601   9
  -2 -10  -9 53.0686 3.40379  10
  -2 -10  -9 50.3388 4.49684  11
  -3 -10  -9 98.7744 5.65777  10
  -3 -10  -9 94.6445 7.77740  12
  -3 -10  -9 98.4040 6.89746  11
  -4 -10  -9 -0.1362 1.21957  12
  -4 -10  -9 -0.2049 0.32557  10
  -4 -10  -9 -0.3144 0.94502  11
  -5 -10  -9 37.1681 3.11689  11
  -5 -10  -9 44.0140 3.68874  12
   3 -11  -9 88.9154 7.09337   8
  -3  11   9 90.0873 7.76908   8
   2 -11  -9 4.46636 1.32748  12
   2 -11  -9 6.04378 0.88781   8
   2 -11  -9 7.74821 1.41419   9
  -2  11   9 8.13276 2.22011   8
   1 -11  -9 68.1149 5.56334  12
   1 -11  -9 72.5928 4.93760   9
   0 -11  -9 85.1267 5.55433   9
   0 -11  -9 81.7090 5.09517  10
   0 -11  -9 79.8313 6.55573  12
  -1 -11  -9 31.5454 3.95978  12
  -1 -11  -9 40.0590 2.80306   9
  -2 -11  -9 28.0536 2.60405  11
  -2 -11  -9 30.5806 3.21976  12
  -2 -11  -9 30.5946 2.17243  10
  -3 -11  -9 0.15873 1.02987  11
  -3 -11  -9 0.20767 0.38088  10
  -3 -11  -9 -0.1346 1.08730  12
  -4 -11  -9 82.4697 6.23945  12
   1 -12  -9 84.4985 6.16754  12
   1 -12  -9 85.6486 5.36939   9
   0 -12  -9 7.66072 1.01980  10
   0 -12  -9 8.00052 1.53024  12
   0 -12  -9 9.82910 1.18068   9
  -1 -12  -9 66.2258 3.95742  10
  -1 -12  -9 63.6471 5.00408  12
  -2 -12  -9 27.2868 1.79256  10
  -2 -12  -9 21.1909 2.53542  12
   1   4 -10 16.0648 1.84712   9
   3   3 -10 0.76658 1.00180  18
   2   3 -10 30.7335 3.00090  18
   1   3 -10 49.5726 3.95991   9
   1   3 -10 49.8505 4.21875  18
   0   3 -10 42.3140 3.81857  18
   0   3 -10 49.1957 3.68600   9
   0   3 -10 46.6076 3.49149  10
  -1   3 -10 24.3670 2.59010  18
  -1   3 -10 32.9127 2.56508  10
  -1   3 -10 32.8300 3.84138  17
  -2   3 -10 11.7485 2.42655  17
  -2   3 -10 11.9520 1.34702  10
  -3   3 -10 19.2470 1.20324  10
  -3   3 -10 14.3673 2.64768  17
   4   2 -10 4.24532 1.17398   8
   4   2 -10 3.32531 1.15633  18
  -4  -2  10 3.35122 0.83735   8
   3   2 -10 30.2643 3.22266   8
   3   2 -10 29.0986 3.29524  18
   3   2 -10 30.3312 3.48264   9
  -3  -2  10 32.9510 3.30204   8
   2   2 -10 19.5747 2.76204  18
   2   2 -10 17.7766 2.03087   8
   2   2 -10 15.7184 2.43853   9
   1   2 -10 48.8768 4.51865   9
   1   2 -10 56.3898 5.16519  18
   0   2 -10 66.7554 5.12847   9
   0   2 -10 72.4342 5.16044  10
   0   2 -10 70.4216 5.77902  18
  -1   2 -10 -0.4039 1.31991  17
  -1   2 -10 0.96944 1.25106  18
  -1   2 -10 1.13953 1.07544   9
  -1   2 -10 -1.1905 1.21827  10
  -2   2 -10 86.0846 5.32658  10
  -2   2 -10 77.3716 6.24355  18
  -2   2 -10 82.3750 8.22094  17
  -3   2 -10 7.86716 1.02857  10
  -3   2 -10 12.9788 2.76556  17
   5   1 -10 0.92884 1.24787   8
  -5  -1  10 1.17674 0.65671   8
   4   1 -10 30.5439 3.22997  18
   4   1 -10 29.8605 3.61345   8
  -4  -1  10 36.6045 3.39605   8
   3   1 -10 30.5751 3.82815   9
   3   1 -10 33.9856 4.04831   8
  -3  -1  10 35.3553 3.67603   8
   2   1 -10 3.98102 1.43464   8
   2   1 -10 1.88327 1.63427   9
   2   1 -10 3.10091 1.66798  18
   1   1 -10 54.7480 5.34738  18
   1   1 -10 54.0687 5.08389   9
   1   1 -10 47.2673 3.98256  10
   1   1 -10 47.0398 3.87014   8
   0   1 -10 -0.6716 1.38071  18
   0   1 -10 0.49477 1.05117  10
   0   1 -10 -0.1883 1.66932   9
  -1   1 -10 83.9881 5.79429  10
  -1   1 -10 86.3728 8.76845  17
  -1   1 -10 88.9388 6.01275   9
  -1   1 -10 96.8791 7.22889  18
  -2   1 -10 19.6466 3.93673  17
  -2   1 -10 26.9801 3.20902  18
  -2   1 -10 18.8224 2.10229  10
  -3   1 -10 11.5218 2.16066  18
  -3   1 -10 21.2526 3.77092  17
  -3   1 -10 16.8869 1.72507  10
  -4   1 -10 30.7839 3.96360  16
  -5   1 -10 -0.5401 1.09704  16
  -5   1 -10 0.55796 1.60475  17
   5   0 -10 0.60754 1.54854   8
   5   0 -10 2.02233 0.94458  18
  -5   0  10 2.79339 0.82694   8
  -5   0  10 2.06063 1.55061  14
   4   0 -10 57.0075 5.30345  18
   4   0 -10 64.8711 6.65113   8
  -4   0  10 77.1457 6.22611   8
   3   0 -10 10.4666 2.55016   8
   3   0 -10 8.59019 2.24165   9
   2   0 -10 61.4892 5.79040   8
   2   0 -10 51.7506 5.19530  18
   2   0 -10 54.5904 5.17473   9
   1   0 -10 6.45626 2.43078  18
   1   0 -10 4.56541 1.83591  10
   1   0 -10 6.59799 1.53434   8
   1   0 -10 5.44758 2.30910   9
   0   0 -10 103.742 6.85655  10
   0   0 -10 104.501 8.36053  18
   0   0 -10 107.674 7.65184   9
  -1   0 -10 42.6263 3.87570   9
  -1   0 -10 52.7406 6.23851  17
  -1   0 -10 43.6262 3.59073  10
  -1   0 -10 46.1277 4.69863  18
  -2   0 -10 19.3157 2.16627  10
  -2   0 -10 19.3199 3.96311  17
  -2   0 -10 20.8569 3.21829  18
  -3   0 -10 151.111 10.1804  18
  -3   0 -10 106.924 11.5157  16
  -3   0 -10 137.857 7.88855  10
  -3   0 -10 149.363 12.8818  17
  -4   0 -10 1.60821 1.91359  17
  -4   0 -10 0.91414 1.75917  16
  -4   0 -10 0.50303 1.01350  18
  -5   0 -10 67.6689 6.88161  16
  -5   0 -10 77.2786 7.65798  17
  -6   0 -10 10.9514 2.48287  17
  -6   0 -10 7.31986 1.95600  16
   5  -1 -10 50.5696 5.14816   8
  -5   1  10 47.7289 4.39624   8
   4  -1 -10 10.9203 2.59278   8
   4  -1 -10 6.62994 1.93219  18
  -4   1  10 10.4543 1.88872   8
   3  -1 -10 81.9668 7.64598   8
   3  -1 -10 78.9391 6.58146  18
   3  -1 -10 81.3341 6.58894   9
   2  -1 -10 27.0126 3.79006   8
   2  -1 -10 26.2971 3.49939  18
   2  -1 -10 28.1126 3.78821   9
   1  -1 -10 12.0518 2.05762   8
   1  -1 -10 11.7518 2.45749  18
   1  -1 -10 12.7352 2.69712   9
   1  -1 -10 12.8168 2.02991  10
   0  -1 -10 54.2847 4.85413   9
   0  -1 -10 48.2455 4.00335  10
   0  -1 -10 52.2831 5.42713  18
  -1  -1 -10 35.7641 3.43220   9
  -1  -1 -10 40.7317 3.23977  10
  -1  -1 -10 37.0267 4.23020  18
  -2  -1 -10 153.424 9.53644  10
  -2  -1 -10 172.259 12.0604  18
  -2  -1 -10 168.556 15.0671  17
  -3  -1 -10 0.91630 2.68306  16
  -3  -1 -10 1.11211 1.79843  18
  -3  -1 -10 -0.2104 0.69276  10
  -3  -1 -10 0.75894 2.59947  17
  -4  -1 -10 134.212 11.9341  17
  -4  -1 -10 103.940 10.7604  16
  -4  -1 -10 130.868 9.17655  18
  -5  -1 -10 29.7339 4.59070  17
  -5  -1 -10 20.9276 3.79116  16
  -5  -1 -10 26.6742 2.85565  18
  -6  -1 -10 35.8494 4.30748  16
   6  -2 -10 32.8333 4.22913   8
  -6   2  10 49.9790 3.61265   8
   5  -2 -10 77.4256 7.66530   8
  -5   2  10 88.4570 7.16735   8
   4  -2 -10 14.8480 2.71639   8
  -4   2  10 14.5844 2.40186   8
   3  -2 -10 39.4881 4.28810  18
   3  -2 -10 40.0804 4.74777   9
   3  -2 -10 40.0399 5.00604   8
   2  -2 -10 11.7775 2.30306  18
   2  -2 -10 13.6739 2.62827   8
   2  -2 -10 10.7574 2.77953   9
   1  -2 -10 92.3382 6.40641  10
   1  -2 -10 96.1352 8.27131   8
   1  -2 -10 99.2040 7.40386   9
   1  -2 -10 97.0485 7.85265  18
   0  -2 -10 30.1856 3.29539   9
   0  -2 -10 28.5642 3.81033  18
   0  -2 -10 25.8897 2.92090  10
  -1  -2 -10 119.189 7.77632  10
  -1  -2 -10 129.487 9.49129  18
  -1  -2 -10 128.616 8.18620   9
  -2  -2 -10 14.8313 2.78759  18
  -2  -2 -10 11.8946 3.53881  17
  -2  -2 -10 13.3462 1.73179  10
  -3  -2 -10 82.9022 9.58633  16
  -3  -2 -10 94.9007 5.82844  10
  -3  -2 -10 110.505 7.90536  18
  -3  -2 -10 107.078 10.4727  17
  -4  -2 -10 4.99130 1.96099  18
  -4  -2 -10 7.33326 2.71136  17
  -4  -2 -10 5.99566 2.67272  16
  -5  -2 -10 14.9383 2.47414  18
  -5  -2 -10 17.3898 3.51332  16
  -5  -2 -10 11.7479 3.50534  17
  -6  -2 -10 134.894 8.61860  18
  -6  -2 -10 104.188 10.9381  17
  -6   3  10 53.3811 4.43730  15
  -6   3  10 50.1150 3.91463   9
   5  -3 -10 0.10291 1.27636   8
  -5   3  10 -0.1962 0.69878   8
   4  -3 -10 96.5522 9.05478   8
  -4   3  10 93.9424 8.36047   8
   3  -3 -10 -0.6968 1.54957   9
   3  -3 -10 -0.2532 1.25289   8
   2  -3 -10 9.62444 2.20460  18
   2  -3 -10 8.79705 2.53048   9
   2  -3 -10 12.4890 2.32480   8
   1  -3 -10 13.0000 2.54414  18
   1  -3 -10 14.1358 2.69489   9
   1  -3 -10 16.9365 2.27910  10
   1  -3 -10 16.9710 2.46442   8
   0  -3 -10 458.874 28.4760  18
   0  -3 -10 432.059 24.2636  10
   0  -3 -10 445.102 25.8260   9
   0  -3 -10 408.366 27.3037  11
  -1  -3 -10 0.34174 1.12057   9
  -1  -3 -10 1.18154 1.24506  11
  -1  -3 -10 -0.0282 1.11101  18
  -1  -3 -10 0.59926 0.82191  10
  -2  -3 -10 80.8063 9.03362  17
  -2  -3 -10 81.0116 5.24422  10
  -2  -3 -10 89.2409 6.81849  18
  -3  -3 -10 106.947 8.04237  18
  -3  -3 -10 98.3156 5.89932  10
  -3  -3 -10 96.2657 10.0813  17
  -4  -3 -10 0.93116 1.69592  18
  -4  -3 -10 -0.4628 2.65930  17
  -5  -3 -10 148.136 14.5380  17
  -5  -3 -10 165.840 11.2097  18
  -6  -3 -10 2.35933 1.61294  18
  -6  -3 -10 1.68246 2.59112  17
  -7  -3 -10 28.5522 3.80748  17
   6  -4 -10 12.1806 2.07431   8
  -6   4  10 11.8315 1.87001  15
  -6   4  10 10.3050 1.65056   9
   5  -4 -10 71.0277 6.63029   8
  -5   4  10 65.7513 5.92518   8
   4  -4 -10 43.4098 4.97647   8
  -4   4  10 45.4405 4.74084   8
   3  -4 -10 115.146 10.0594   8
   3  -4 -10 111.759 8.61834   9
   2  -4 -10 12.3185 2.21659   8
   2  -4 -10 6.21559 1.83332  18
   2  -4 -10 9.49619 2.49108   9
   1  -4 -10 50.3186 4.10567  10
   1  -4 -10 56.4257 5.10929   8
   1  -4 -10 49.4067 4.84131   9
   1  -4 -10 52.2553 4.87376  18
   0  -4 -10 8.34349 1.84270  18
   0  -4 -10 7.02914 1.99314  11
   0  -4 -10 9.07949 1.61812  10
   0  -4 -10 11.9783 2.07139   9
  -1  -4 -10 45.3529 3.67941  10
  -1  -4 -10 47.9612 3.82716   9
  -1  -4 -10 42.2214 4.74257  11
  -1  -4 -10 52.2841 4.50511  18
  -2  -4 -10 70.1335 8.34620  17
  -2  -4 -10 80.0099 5.08954  10
  -2  -4 -10 85.4644 6.45196  11
  -2  -4 -10 87.0514 6.56445  18
  -3  -4 -10 11.5334 1.28085  10
  -3  -4 -10 14.1423 3.52686  17
  -3  -4 -10 13.5837 2.23590  11
  -3  -4 -10 15.1645 2.39299  18
  -4  -4 -10 297.718 19.4012  11
  -4  -4 -10 288.665 25.8249  17
  -4  -4 -10 333.685 20.4446  18
  -5  -4 -10 24.4860 4.43531  17
  -5  -4 -10 24.7419 3.01546  18
  -6  -4 -10 51.5132 4.26756  18
  -6  -4 -10 42.3668 5.62594  17
  -7  -4 -10 27.2624 3.70397  17
   6  -5 -10 54.1316 4.70828   8
  -6   5  10 41.1223 3.68418   9
   5  -5 -10 5.86622 1.71515   8
  -5   5  10 3.82735 1.09122   8
   4  -5 -10 264.911 20.7899   8
  -4   5  10 251.758 20.5097   8
   3  -5 -10 168.448 11.6389   9
   3  -5 -10 171.097 14.1685   8
   2  -5 -10 16.3745 2.90573   9
   2  -5 -10 16.5801 2.65823   8
   1  -5 -10 103.702 7.18764  10
   1  -5 -10 115.800 7.88871   9
   1  -5 -10 103.217 8.05214  18
   1  -5 -10 115.418 9.20801   8
   0  -5 -10 113.886 7.61798  10
   0  -5 -10 120.864 8.79923  18
   0  -5 -10 131.687 8.33036   9
   0  -5 -10 121.900 9.21867  11
  -1  -5 -10 79.4746 5.42471  10
  -1  -5 -10 85.8039 6.48482  18
  -1  -5 -10 76.8385 6.59522  11
  -1  -5 -10 85.2082 5.67874   9
  -2  -5 -10 1.71436 0.93666  10
  -2  -5 -10 5.74128 2.09750  11
  -2  -5 -10 1.42378 2.58735  17
  -2  -5 -10 2.43267 1.59914  18
  -3  -5 -10 107.483 8.14353  11
  -3  -5 -10 106.125 8.05831  18
  -3  -5 -10 105.756 6.08798  10
  -3  -5 -10 95.4953 10.7454  17
  -4  -5 -10 42.9582 4.41362  11
  -4  -5 -10 42.4791 4.08974  18
  -4  -5 -10 42.3193 5.92472  17
  -5  -5 -10 35.7299 5.51056  17
  -5  -5 -10 45.8685 4.10137  18
  -5  -5 -10 44.2157 3.79346  11
  -6  -5 -10 79.8855 6.09729  18
  -6  -5 -10 73.6036 5.36435  11
  -7  -5 -10 13.4120 1.86155  18
   6  -6 -10 10.8119 1.88966   8
  -6   6  10 10.1624 1.68920  15
   5  -6 -10 86.1897 7.34893   8
  -5   6  10 73.7574 6.64880   8
   4  -6 -10 106.400 9.04360   8
  -4   6  10 93.7226 8.52709   8
   3  -6 -10 27.7021 3.67636   9
   3  -6 -10 33.2363 4.05561   8
   2  -6 -10 220.202 18.0605   8
   2  -6 -10 237.067 14.5063   9
   1  -6 -10 76.6206 5.54538  10
   1  -6 -10 73.5129 5.81308   9
   1  -6 -10 80.7722 6.74178   8
   0  -6 -10 228.288 13.5193  10
   0  -6 -10 231.570 15.5594  11
   0  -6 -10 241.891 14.4631   9
  -1  -6 -10 134.850 9.55597  11
  -1  -6 -10 128.512 9.40399  18
  -1  -6 -10 133.920 8.31935   9
  -1  -6 -10 125.942 7.82527  10
  -2  -6 -10 15.2561 1.54992  10
  -2  -6 -10 14.0580 2.25808  18
  -2  -6 -10 8.98160 2.71977  17
  -2  -6 -10 13.9889 2.49954  11
  -3  -6 -10 51.2962 5.24630  11
  -3  -6 -10 51.6237 4.90256  18
  -3  -6 -10 41.2060 6.33340  17
  -3  -6 -10 59.7675 3.44681  10
  -4  -6 -10 29.6368 5.37117  17
  -4  -6 -10 39.1417 3.88365  11
  -4  -6 -10 41.3122 4.06933  18
  -5  -6 -10 58.3333 7.47226  17
  -5  -6 -10 79.9728 5.76862  18
  -5  -6 -10 72.2914 5.76711  11
  -6  -6 -10 4.18286 1.67151  18
  -6  -6 -10 8.63293 1.55600  11
   5  -7 -10 69.1666 6.25478   8
   4  -7 -10 1.19652 1.22194   8
  -4   7  10 2.21604 1.30902   8
   3  -7 -10 85.7928 6.95131   9
   3  -7 -10 106.548 8.69755   8
   2  -7 -10 41.9125 4.47132   8
   2  -7 -10 46.0557 4.13424   9
   1  -7 -10 38.4806 3.97941  11
   1  -7 -10 40.2858 3.82853   8
   1  -7 -10 36.7706 3.53537  10
   1  -7 -10 45.0779 3.79843   9
   0  -7 -10 113.391 7.58228   9
   0  -7 -10 112.260 8.38317  11
   0  -7 -10 106.954 6.86568  10
  -1  -7 -10 119.813 7.47268  10
  -1  -7 -10 125.839 8.97179  11
  -1  -7 -10 123.790 7.84694   9
  -2  -7 -10 49.4240 4.51937  18
  -2  -7 -10 56.3438 3.75334  10
  -2  -7 -10 59.3871 5.02263  11
  -3  -7 -10 0.08218 1.14776  11
  -3  -7 -10 0.74954 0.57423  10
  -3  -7 -10 0.65055 1.03386  18
  -4  -7 -10 36.9851 3.91580  11
  -4  -7 -10 27.5303 3.11445  18
  -5  -7 -10 0.48718 1.04792  18
  -5  -7 -10 1.15552 1.62909  11
  -6  -7 -10 86.4317 6.00439  11
  -6  -7 -10 82.7479 6.15195  18
   5  -8 -10 4.19219 1.20366  11
   5  -8 -10 7.80796 1.38098   8
  -5   8  10 10.8793 1.60035  15
  -5   8  10 10.0514 1.40193   8
   4  -8 -10 71.9517 6.50757   8
   3  -8 -10 59.8140 4.90837  11
   3  -8 -10 65.0984 4.98524   9
   3  -8 -10 58.8361 5.50569   8
   2  -8 -10 88.7090 6.29769   9
   2  -8 -10 84.0429 7.29535   8
   2  -8 -10 84.3604 6.45559  11
   1  -8 -10 104.181 6.73587   9
   1  -8 -10 97.0674 7.09997  11
   1  -8 -10 96.2122 6.09533  10
   1  -8 -10 88.8709 7.56532   8
   0  -8 -10 24.9646 2.36098  10
   0  -8 -10 23.5594 3.14185  11
   0  -8 -10 26.5392 3.02711   9
  -1  -8 -10 143.199 9.74141  11
  -1  -8 -10 135.498 8.15666  10
  -2  -8 -10 12.5151 2.39470  11
  -2  -8 -10 14.7842 1.55403  10
  -3  -8 -10 51.2562 4.83619  11
  -3  -8 -10 55.4398 3.25685  10
  -3  -8 -10 44.0126 4.22615  18
  -4  -8 -10 34.3476 3.28852  11
  -4  -8 -10 27.0864 3.30294  18
  -5  -8 -10 77.9137 5.34914  11
  -5  -8 -10 64.2860 5.24004  18
  -6  -8 -10 35.8143 3.01367  11
   4  -9 -10 45.8488 3.98774   8
   4  -9 -10 36.4687 3.20067  11
  -4   9  10 38.3114 3.56543  15
  -4   9  10 45.0929 4.27787   8
   3  -9 -10 71.1886 5.21653  11
   3  -9 -10 69.4221 5.09275   9
   3  -9 -10 60.3593 5.53405   8
   2  -9 -10 72.7689 5.34722  11
   2  -9 -10 60.2836 5.36075   8
   2  -9 -10 64.9674 4.97865   9
   1  -9 -10 2.65594 1.30048  11
   1  -9 -10 3.79724 1.65972   9
   0  -9 -10 244.551 15.8740  11
   0  -9 -10 246.526 14.7141   9
   0  -9 -10 241.699 13.8051  10
  -1  -9 -10 10.4299 1.24903   9
  -1  -9 -10 5.37931 1.90088  11
  -1  -9 -10 8.24912 1.33230  10
  -2  -9 -10 158.702 8.35540  10
  -2  -9 -10 126.757 9.70368  11
  -3  -9 -10 132.747 9.38699  11
  -3  -9 -10 138.165 7.62907  10
  -4  -9 -10 6.15692 1.27389  18
  -4  -9 -10 7.67833 1.48575  11
  -5  -9 -10 46.3267 3.65063  18
   3 -10 -10 57.3982 4.63275   8
  -3  10  10 56.0563 5.46395   8
   2 -10 -10 0.99857 0.90209  11
   1 -10 -10 124.789 8.40524  11
   0 -10 -10 37.8195 3.07490   9
   0 -10 -10 42.6330 3.64553  11
   0 -10 -10 46.9334 3.11646  10
  -1 -10 -10 20.3663 1.71899  10
  -1 -10 -10 10.8308 1.84773  11
  -1 -10 -10 18.3858 1.53330   9
  -2 -10 -10 89.6015 6.81889  11
  -2 -10 -10 105.638 5.82772  10
  -3 -10 -10 4.00644 0.61577  10
  -3 -10 -10 1.89139 1.45639  11
  -4 -10 -10 84.7676 5.81202  11
   2 -11 -10 22.0274 2.03389   9
   1 -11 -10 73.0284 4.77758   9
   0 -11 -10 15.4099 1.56842   9
   0 -11 -10 13.9590 1.75740  11
   0 -11 -10 15.0688 1.49036  10
  -1 -11 -10 113.797 8.44270  11
  -1 -11 -10 147.826 7.50329  10
  -2 -11 -10 0.37777 0.57160  10
  -2 -11 -10 0.48222 0.79075  11
  -3 -11 -10 120.926 6.53034  10
   2   2 -11 8.17690 1.28272   9
   2   2 -11 5.05111 1.28445  18
   1   2 -11 41.4387 3.81538  18
   1   2 -11 56.7734 3.56164   9
   0   2 -11 0.05612 0.83919  18
   0   2 -11 0.36489 0.79661  10
  -1   2 -11 48.2458 3.88328  18
  -1   2 -11 52.9666 3.46595  10
  -2   2 -11 24.2031 1.72207  10
   3   1 -11 4.95703 1.21576  18
   3   1 -11 2.02388 1.25409   9
   2   1 -11 42.5450 3.65892   9
   2   1 -11 43.2838 3.85499  18
   1   1 -11 0.02921 1.03626   9
   1   1 -11 -0.0253 0.89155  10
   1   1 -11 2.42887 1.39594  18
   0   1 -11 95.8301 6.00309   9
   0   1 -11 98.8738 7.13253  18
   0   1 -11 88.8714 5.90721  10
  -1   1 -11 62.9387 4.26264  10
  -1   1 -11 66.6375 5.19189  18
  -2   1 -11 13.9126 1.88061  18
  -2   1 -11 13.7109 2.56575  17
  -2   1 -11 12.9923 1.41593  10
  -3   1 -11 82.6925 7.76021  17
   4   0 -11 0.83476 0.66735   8
  -4   0  11 0.52621 0.59407   8
   3   0 -11 55.0740 4.75593   9
   3   0 -11 54.9570 4.42341  18
   3   0 -11 49.7682 4.21967   8
  -3   0  11 52.7185 4.96342   8
   2   0 -11 -0.0469 1.24567  18
   1   0 -11 18.1707 2.50230   9
   1   0 -11 12.4685 2.58752  18
   1   0 -11 18.1327 2.15328  10
   0   0 -11 106.340 8.15690  18
   0   0 -11 105.237 6.87857   9
   0   0 -11 100.171 6.75073  10
  -1   0 -11 2.11486 1.28410  10
  -1   0 -11 3.54802 1.56721  18
  -2   0 -11 76.0221 7.43780  17
  -2   0 -11 69.6014 4.52453  10
  -2   0 -11 76.5145 5.84085  18
  -3   0 -11 9.85353 0.96699  10
  -3   0 -11 13.4634 1.99758  18
  -3   0 -11 13.1014 2.74152  17
  -4   0 -11 22.4405 3.26038  17
  -4   0 -11 10.3789 1.88321  18
   4  -1 -11 20.8355 2.29279  18
   4  -1 -11 21.9332 2.62274   8
  -4   1  11 24.8511 2.57640   8
   3  -1 -11 2.48045 1.61182  18
   3  -1 -11 0.33046 1.87622   9
   3  -1 -11 2.63497 1.13138   8
   2  -1 -11 23.3816 2.15781   8
   2  -1 -11 18.0038 2.61182  18
   2  -1 -11 20.2766 2.98479   9
   1  -1 -11 237.874 16.5793  18
   1  -1 -11 235.481 14.2616  10
   1  -1 -11 265.986 15.3429   9
   0  -1 -11 15.1754 2.77991  18
   0  -1 -11 19.1318 2.37528   9
   0  -1 -11 18.9343 2.34206  10
  -1  -1 -11 121.189 7.59657  10
  -1  -1 -11 124.642 7.48885   9
  -1  -1 -11 134.484 9.40173  18
  -2  -1 -11 11.9708 1.41506  10
  -2  -1 -11 10.7327 2.99347  17
  -2  -1 -11 13.4921 2.51325  18
  -3  -1 -11 9.38442 0.97702  10
  -3  -1 -11 12.3772 2.85067  17
  -3  -1 -11 8.37591 1.93078  18
  -4  -1 -11 49.2185 4.05798  18
  -4  -1 -11 43.2789 5.38307  17
  -5  -1 -11 3.45058 1.78889  17
   5  -2 -11 0.33708 0.78821   8
  -5   2  11 0.52024 0.53610   8
   4  -2 -11 67.1060 5.68533   8
  -4   2  11 55.5088 5.37414   8
   3  -2 -11 8.11423 1.68747  18
   3  -2 -11 8.97936 1.76432   8
   3  -2 -11 9.67888 2.08737   9
   2  -2 -11 55.9270 4.96626   8
   2  -2 -11 59.8078 4.89726   9
   2  -2 -11 57.0021 4.93982  18
   1  -2 -11 41.5981 4.24938   9
   1  -2 -11 40.2965 3.46206  10
   1  -2 -11 37.6545 3.96006  18
   0  -2 -11 124.173 8.05091  10
   0  -2 -11 133.014 9.72263  18
   0  -2 -11 129.038 8.41664   9
  -1  -2 -11 12.1493 1.67344  10
  -1  -2 -11 12.2700 1.39719   9
  -1  -2 -11 12.9714 2.32194  18
  -2  -2 -11 104.534 10.4291  17
  -2  -2 -11 113.308 8.19464  18
  -2  -2 -11 104.366 6.47725  10
  -3  -2 -11 159.964 9.23866  10
  -3  -2 -11 173.102 15.1663  17
  -3  -2 -11 180.767 11.9837  18
  -4  -2 -11 1.50854 1.27304  18
  -4  -2 -11 1.36442 1.96566  17
  -5  -2 -11 46.0792 5.36026  17
   5  -3 -11 66.3705 6.56801   8
  -5   3  11 92.4564 6.62778   8
   4  -3 -11 21.2136 2.74711   8
  -4   3  11 22.7244 2.65737   8
   3  -3 -11 48.1134 4.27250   9
   3  -3 -11 43.6990 4.34701   8
   2  -3 -11 11.9470 2.12544   9
   2  -3 -11 11.3320 1.79834   8
   2  -3 -11 7.88584 1.95918  18
   1  -3 -11 8.60145 2.11142   9
   1  -3 -11 5.99824 1.95897  18
   1  -3 -11 5.13992 1.74699  10
   1  -3 -11 7.51613 1.94461  11
   0  -3 -11 0.95871 1.42291   9
   0  -3 -11 2.33096 1.36464  18
   0  -3 -11 1.95601 1.07393  10
  -1  -3 -11 97.1973 6.40433  10
  -1  -3 -11 109.544 7.98251  18
  -1  -3 -11 106.080 6.54704   9
  -2  -3 -11 117.532 8.33111  18
  -2  -3 -11 109.500 6.59350  10
  -2  -3 -11 100.622 10.5840  17
  -3  -3 -11 4.24957 2.14317  17
  -3  -3 -11 3.21219 0.70181  10
  -3  -3 -11 2.46388 1.68507  18
  -4  -3 -11 125.135 11.7391  17
  -4  -3 -11 127.124 9.15150  18
  -5  -3 -11 21.8347 3.80133  17
  -5  -3 -11 29.5455 2.90734  18
   5  -4 -11 4.09836 1.11561   8
  -5   4  11 5.00067 1.09541   8
   4  -4 -11 92.6851 7.85715   8
  -4   4  11 89.5511 7.85008   8
   3  -4 -11 48.4878 4.72719   8
   3  -4 -11 52.5151 4.94055   9
   2  -4 -11 10.0313 1.65619   8
   2  -4 -11 10.3826 2.10223   9
   1  -4 -11 84.2179 5.94088   9
   1  -4 -11 72.1792 5.85133  18
   1  -4 -11 71.9428 6.19637  11
   1  -4 -11 71.4039 5.14641  10
   0  -4 -11 22.7399 2.83035  18
   0  -4 -11 22.2159 3.01077  11
   0  -4 -11 20.1672 2.47364   9
   0  -4 -11 22.1160 2.43858  10
  -1  -4 -11 96.8246 7.33286  11
  -1  -4 -11 94.1279 6.07956  10
  -1  -4 -11 98.1611 7.44047  18
  -1  -4 -11 101.260 6.21803   9
  -2  -4 -11 0.83347 1.42005  11
  -2  -4 -11 1.86986 0.94815  10
  -2  -4 -11 1.82458 1.65014  18
  -3  -4 -11 125.336 13.1144  17
  -3  -4 -11 146.787 7.90297  10
  -3  -4 -11 145.908 10.1344  18
  -4  -4 -11 16.9207 2.53051  18
  -4  -4 -11 17.1011 3.81910  17
  -5  -4 -11 30.8169 4.94701  17
  -5  -4 -11 50.0776 3.89005  18
  -6  -4 -11 38.8525 3.33251  18
   5  -5 -11 35.9379 3.60750   8
  -5   5  11 38.0986 3.41379   8
   4  -5 -11 28.6364 3.11802   8
  -4   5  11 27.8504 3.11809   8
   3  -5 -11 19.9038 2.70256   9
   3  -5 -11 23.5639 2.71360   8
   2  -5 -11 84.1295 6.07192   9
   2  -5 -11 80.2924 6.86303   8
   1  -5 -11 -0.6211 1.20123  11
   1  -5 -11 0.93267 1.65308   9
   1  -5 -11 0.47604 1.32426  10
   0  -5 -11 413.243 26.7814  18
   0  -5 -11 424.238 26.3853  11
   0  -5 -11 404.657 23.0493  10
   0  -5 -11 423.613 24.3924   9
  -1  -5 -11 8.86117 1.25019   9
  -1  -5 -11 9.08494 1.78289  18
  -1  -5 -11 9.57167 1.53148  10
  -1  -5 -11 11.6186 2.21746  11
  -2  -5 -11 58.6030 4.98055  18
  -2  -5 -11 61.4609 5.37193  11
  -2  -5 -11 58.8136 3.89365  10
  -3  -5 -11 12.7215 3.79195  17
  -3  -5 -11 23.1592 2.82554  11
  -3  -5 -11 25.2512 2.86354  18
  -3  -5 -11 24.6071 1.67779  10
  -4  -5 -11 14.1112 3.27470  17
  -4  -5 -11 13.2945 2.09918  18
  -4  -5 -11 17.5523 2.24923  11
  -5  -5 -11 76.7651 5.97719  18
  -5  -5 -11 80.9123 7.96610  17
  -6  -5 -11 2.00699 1.00086  18
   5  -6 -11 45.4597 4.14037   8
  -5   6  11 48.3478 4.09693   8
   4  -6 -11 1.53609 0.95862   8
  -4   6  11 1.26928 0.90184   8
   3  -6 -11 171.624 13.7097   8
   3  -6 -11 172.475 11.2219   9
   2  -6 -11 4.21284 1.59099  11
   2  -6 -11 5.77635 1.19986   8
   2  -6 -11 7.28127 1.76399   9
   1  -6 -11 148.115 9.24369  10
   1  -6 -11 152.442 10.7100  11
   1  -6 -11 164.139 9.95971   9
   0  -6 -11 59.6642 4.39882   9
   0  -6 -11 57.2147 4.05388  10
   0  -6 -11 54.3212 4.98161  11
  -1  -6 -11 7.62033 1.11836   9
  -1  -6 -11 6.72340 1.53959  18
  -1  -6 -11 7.86865 1.39358  10
  -1  -6 -11 5.81839 1.78931  11
  -2  -6 -11 71.1757 5.86657  11
  -2  -6 -11 73.1264 4.53830  10
  -2  -6 -11 71.6094 5.67409  18
  -3  -6 -11 3.08681 0.64086  10
  -3  -6 -11 1.10294 1.44649  18
  -3  -6 -11 0.99062 1.89793  17
  -3  -6 -11 0.50040 1.70036  11
  -4  -6 -11 73.8299 8.59680  17
  -4  -6 -11 93.9181 6.40812  11
  -4  -6 -11 81.4656 6.25036  18
  -5  -6 -11 1.80782 0.92602  11
  -5  -6 -11 -0.0235 1.30842  18
  -6  -6 -11 64.5695 4.79799  18
   4  -7 -11 167.604 13.1832   8
   4  -7 -11 163.020 10.9047  11
   4  -7 -11 185.340 10.7966   9
  -4   7  11 160.179 13.3210   8
   3  -7 -11 26.6388 2.82633   9
   3  -7 -11 22.4256 2.60105   8
   3  -7 -11 23.1751 2.79948  11
   2  -7 -11 58.0504 4.83133   8
   2  -7 -11 60.6842 4.95454  11
   2  -7 -11 56.1171 4.54226   9
   1  -7 -11 146.588 10.3264  11
   1  -7 -11 150.524 9.55037   9
   1  -7 -11 153.680 9.06211  10
   0  -7 -11 2.25560 1.22278   9
   0  -7 -11 1.34025 0.86940  10
   0  -7 -11 3.18265 1.52569  11
  -1  -7 -11 180.095 12.3719  11
  -1  -7 -11 186.559 10.5507  10
  -2  -7 -11 7.58423 1.80087  11
  -2  -7 -11 6.93489 1.51314  18
  -2  -7 -11 8.72879 1.09316  10
  -3  -7 -11 33.8588 3.43074  18
  -3  -7 -11 39.9081 3.77355  11
  -3  -7 -11 40.4379 2.40162  10
  -4  -7 -11 8.72071 1.54940  18
  -5  -7 -11 34.6772 3.19355  18
  -5  -7 -11 37.9204 3.13447  11
   4  -8 -11 15.8490 1.70429   8
   3  -8 -11 53.4165 4.15660   8
   3  -8 -11 51.0319 3.95538   9
   3  -8 -11 57.3798 4.42439  11
  -3   8  11 36.4972 4.50982   8
   2  -8 -11 78.9559 6.31707  11
   2  -8 -11 86.5880 6.05459   9
   1  -8 -11 2.63695 1.11520   9
   1  -8 -11 2.97673 1.37416  11
   1  -8 -11 2.03065 1.16772  10
   0  -8 -11 95.8609 5.37058  10
   0  -8 -11 74.4708 6.18131  11
   0  -8 -11 80.4264 5.47615   9
  -1  -8 -11 4.74991 0.95665  10
  -1  -8 -11 2.49385 1.31431  11
  -1  -8 -11 4.31117 0.66900   9
  -2  -8 -11 112.498 7.96823  11
  -2  -8 -11 111.475 6.47040  10
  -3  -8 -11 72.7326 3.93368  10
  -3  -8 -11 60.3024 5.12400  18
  -3  -8 -11 72.5529 5.42896  11
  -4  -8 -11 2.31059 1.05195  11
  -4  -8 -11 4.53261 1.35043  18
  -5  -8 -11 52.1991 4.01426  18
  -5  -8 -11 54.6410 3.98664  11
   3  -9 -11 35.9317 3.15481  11
   3  -9 -11 41.1076 3.23140   9
  -3   9  11 41.5910 4.29820   8
   2  -9 -11 -0.0778 1.34898  11
   2  -9 -11 0.26422 0.94918   9
   1  -9 -11 90.7505 6.62140  11
   1  -9 -11 97.5344 6.17175   9
   1  -9 -11 91.7967 5.68098  10
   0  -9 -11 23.0044 2.72362  11
   0  -9 -11 24.2039 2.24088  10
  -1  -9 -11 88.9776 6.43402  11
  -2  -9 -11 156.060 8.76737  10
  -2  -9 -11 159.918 10.4638  11
  -3  -9 -11 14.2325 0.94442  10
  -3  -9 -11 14.0960 1.96330  11
  -4  -9 -11 109.525 7.36315  11
   2 -10 -11 42.7849 3.07186   9
   1 -10 -11 33.7249 2.88370  11
   0 -10 -11 115.556 6.57757  10
   0 -10 -11 111.492 6.69475   9
  -1 -10 -11 248.227 15.8059  11
  -1 -10 -11 255.465 13.8165  10
  -2 -10 -11 7.05676 1.36321  11
  -2 -10 -11 6.57031 0.78242  10
  -3 -10 -11 143.123 9.20798  11
  -1 -11 -11 26.6543 1.85580  10
   1   0 -12 86.6147 5.15287   9
   0   0 -12 0.59172 0.72468  10
   0   0 -12 0.36432 0.96152  18
  -1   0 -12 61.5731 3.76053  10
  -1   0 -12 60.5392 4.62590  18
  -2   0 -12 18.8665 2.09866  18
   2  -1 -12 9.57734 1.36578   9
   2  -1 -12 4.98407 1.20318  18
   1  -1 -12 29.5407 2.86360  18
   1  -1 -12 21.8712 2.23037  10
   1  -1 -12 24.2324 2.28656   9
   0  -1 -12 54.3118 3.89013  10
   0  -1 -12 61.2641 4.75353  18
  -1  -1 -12 28.0391 2.82941  18
  -1  -1 -12 23.7483 2.28267  10
  -2  -1 -12 25.6368 2.72171  18
  -2  -1 -12 25.8610 1.78002  10
  -3  -1 -12 51.6150 4.05458  18
   2  -2 -12 7.87882 1.54296  18
   2  -2 -12 10.8801 1.64782   9
   1  -2 -12 3.71073 1.17705  10
   1  -2 -12 3.01308 1.00694   9
   1  -2 -12 2.76453 1.18913  18
   0  -2 -12 41.9748 3.85533  18
   0  -2 -12 40.7712 2.75635   9
  -1  -2 -12 31.9054 3.19149  18
  -1  -2 -12 26.8323 2.26587  10
  -2  -2 -12 65.6207 5.13568  18
  -2  -2 -12 62.8719 3.84316  10
  -3  -2 -12 7.98743 2.38698  17
  -3  -2 -12 10.9460 1.64470  18
   3  -3 -12 28.2002 2.73773   9
   2  -3 -12 18.9041 2.21355  18
   2  -3 -12 15.4913 2.19165   9
   1  -3 -12 253.521 16.3591  18
   1  -3 -12 220.644 13.9556  10
   1  -3 -12 271.656 14.9190   9
   0  -3 -12 10.2505 1.68056  10
   0  -3 -12 9.53947 1.19723   9
   0  -3 -12 8.52920 1.80268  18
  -1  -3 -12 80.0501 5.71328  18
  -1  -3 -12 64.0675 4.39645  10
  -2  -3 -12 0.27862 1.07748  18
  -2  -3 -12 -0.4190 0.60311  10
  -3  -3 -12 19.7350 3.36954  17
  -3  -3 -12 29.5655 2.84228  18
  -4  -3 -12 15.6442 2.06151  18
  -4  -3 -12 12.8066 2.52915  17
   3  -4 -12 24.4407 2.75995  11
   3  -4 -12 30.6125 2.78956   9
   2  -4 -12 104.307 6.88311   9
   2  -4 -12 96.9121 6.87132  11
   1  -4 -12 20.9001 2.36090  11
   1  -4 -12 20.7556 2.18284  10
   1  -4 -12 15.3994 2.13340  18
   1  -4 -12 17.1440 2.13953   9
   0  -4 -12 71.1306 4.65052  10
   0  -4 -12 69.4443 5.48930  18
  -1  -4 -12 22.4276 2.18945  10
  -1  -4 -12 20.2705 2.54756  18
  -2  -4 -12 66.3994 5.36186  18
  -2  -4 -12 68.2406 4.09727  10
  -3  -4 -12 28.4575 2.99297  18
  -4  -4 -12 9.84166 2.29726  17
  -4  -4 -12 14.7772 2.00577  18
   3  -5 -12 57.7913 4.61754  11
   3  -5 -12 66.7599 4.80787   9
   2  -5 -12 0.54876 1.04521   9
   2  -5 -12 2.25346 1.26623  11
   1  -5 -12 65.1032 5.49635  11
   1  -5 -12 73.3124 4.99172   9
   1  -5 -12 69.1001 4.63695  10
   0  -5 -12 45.1424 4.09603  11
   0  -5 -12 49.7073 4.06188  18
   0  -5 -12 51.4637 3.53870  10
  -1  -5 -12 35.6263 3.33479  11
  -1  -5 -12 37.9148 2.82490  10
  -1  -5 -12 35.6729 3.38186  18
  -2  -5 -12 48.2350 4.17959  18
  -2  -5 -12 53.3651 3.15599  10
  -2  -5 -12 44.1868 3.90769  11
  -3  -5 -12 1.93575 1.11903  18
  -4  -5 -12 33.5031 4.08150  17
   3  -6 -12 0.81987 0.97274  11
   3  -6 -12 -0.8564 0.97856   9
   2  -6 -12 93.6739 5.71386   9
   2  -6 -12 72.0619 5.90637  11
   1  -6 -12 81.1697 5.43564   9
   1  -6 -12 78.2425 6.18681  11
   1  -6 -12 79.4285 5.11089  10
   0  -6 -12 16.0282 1.61226   9
   0  -6 -12 14.4862 2.17924  11
   0  -6 -12 15.2568 1.78867  10
  -1  -6 -12 142.245 8.16752  10
  -1  -6 -12 142.715 9.78120  11
  -2  -6 -12 1.15670 0.94438  18
  -2  -6 -12 2.21821 1.51145  11
  -2  -6 -12 0.75998 0.56567  10
  -3  -6 -12 45.8392 4.18396  18
  -3  -6 -12 65.1337 4.33503  11
  -4  -6 -12 24.3245 2.41167  18
   3  -7 -12 35.5043 2.97622  11
   3  -7 -12 29.9183 2.70437   9
   2  -7 -12 86.0138 6.03514  11
   2  -7 -12 80.8230 5.48697   9
   1  -7 -12 2.89439 1.16166  10
   1  -7 -12 3.06237 0.96866   9
   1  -7 -12 1.48835 1.65589  11
   0  -7 -12 116.484 8.24197  11
   0  -7 -12 119.468 7.09119   9
   0  -7 -12 119.799 6.99858  10
  -1  -7 -12 23.1422 1.86345  10
  -1  -7 -12 22.7972 2.71416  11
  -2  -7 -12 85.3358 6.90353  18
  -2  -7 -12 103.489 7.10300  11
  -2  -7 -12 110.923 5.73424  10
  -3  -7 -12 37.9524 3.14106  11
  -3  -7 -12 31.8281 2.93888  18
  -4  -7 -12 0.56017 0.78669  11
  -4  -7 -12 -0.2070 0.66267  18
   2  -8 -12 4.20091 1.17867  11
   2  -8 -12 4.95639 1.03892   9
   1  -8 -12 89.4034 6.35817  11
   1  -8 -12 89.2227 5.65856   9
   0  -8 -12 76.6263 4.36965  10
   0  -8 -12 60.8348 5.18419  11
  -1  -8 -12 64.0970 4.92642  11
  -1  -8 -12 63.6732 3.88702  10
  -2  -8 -12 63.2023 5.12706  11
  -2  -8 -12 74.6877 4.06821  10
  -3  -8 -12 7.20081 1.32405  11
   1  -9 -12 47.1450 3.80917  11
   1  -9 -12 52.4516 3.21673   9
   0  -9 -12 144.788 9.42651  11
  -1  -9 -12 69.5728 5.16277  11
  -1  -9 -12 72.8013 4.17605  10
  -2  -9 -12 1.21902 0.35378  10
  -2  -9 -12 0.96845 0.84037  11
   0  -3 -13 33.0904 2.29040  10
  -1  -3 -13 4.51890 0.67625  10
   0  -4 -13 27.9821 2.05872  10
  -1  -4 -13 31.7812 3.01426  18
  -1  -4 -13 39.9374 2.39331  10
  -2  -4 -13 55.1456 4.20577  18
   0  -5 -13 27.1535 2.03196  10
  -1  -5 -13 114.555 6.37453  10
  -1  -5 -13 113.273 7.72449  18
  -2  -5 -13 1.70676 0.85689  18
   0  -6 -13 80.7820 4.15067  10
   0  -6 -13 51.3716 4.82520  11
  -1  -6 -13 2.77483 0.50778  10
   0  -7 -13 17.6219 1.40311  10
  -1  -7 -13 37.6969 2.26811  10
   0   0   0    0.00    0.00   0
;
_shelx_hkl_checksum     681

