 
data_k13043c
 
_audit_creation_method            SHELXL-2013 
# CIF file largely edited automatically on-the-fly by script CIFFIX. 
 
_publ_section_exptl_refinement 
; 
H atoms were found in difference Fourier maps and subsequently placed 
in idealized positions with constrained distances of 0.98 \%A (RCH~3~), 
0.99 \%A (R~2~CH~2~), 0.95 \%A (C~sp2~H), and with U~iso~(H) values set 
to either 1.2U~eq~ or 1.5U~eq~ (RCH~3~) of the attached atom. 

To ensure satisfactory refinement of the disordered parts of the structure, 
a combination of constraints and restraints were required.  The constraints 
(SHELXL commands EXYZ and EADP) were included to force coordinates and/or 
displacement parameters of superimposed or partially overlapping fragments 
to be equal.  The restraints (SHELXL commands SAME and RIGU) were used to 
ensure similar geometries and/or displacement parameters for overlapping or 
nearby, chemically similar groups. 
; 

_publ_section_references 
; 
Hope, H. (1994). 
<i>Prog. Inorg. Chem.</i> <b>41</b>, 1---19. 

Nonius (1998). 
<i>Collect</i> Nonius BV, Delft, The Netherlands. 

Otwinowski, Z. & Minor, W. (1997). 
<i>Methods in Enzymology</i>, <b>276</b>, <i>Macromolecular 
Crystallography</i>, Part A, eds. C. W. Carter Jr & R. M. Sweet. 
307---326. New York: Academic Press. 

Parkin, S. & Hope, H. (1998). 
<i>J. Appl. Cryst.</i> <b>31</b>, 945---953. 

Parkin, S. (2000). 
<i>Acta Cryst.</i> A<b>56</b>, 157---162. 

Sheldrick, G.M. (2008). 
<i>Acta Cryst.</i> <b>A</b>64, 112---122. 

Sheldrick, G.M. (2013). 
<i>SADABS</i> University of G\"ottingen, Germany. 

Spek, A.L. (2009). 
<i>Acta Cryst.</i> <b>D</b>65, 148---155. 
; 

_chemical_name_systematic
;
 ?
;
_chemical_name_common             ?
_chemical_melting_point           ?
_chemical_formula_moiety          'C36 H36 F2 S2 Si2'   
_chemical_formula_sum             'C36 H36 F2 S2 Si2'   
_chemical_formula_weight          626.95

loop_
 _atom_type_symbol
 _atom_type_description
 _atom_type_scat_dispersion_real
 _atom_type_scat_dispersion_imag
 _atom_type_scat_source
 'C'  'C'   0.0033   0.0016
 'International Tables Vol C Tables 4.2.6.8 and 6.1.1.4'
 'H'  'H'   0.0000   0.0000
 'International Tables Vol C Tables 4.2.6.8 and 6.1.1.4'
 'F'  'F'   0.0171   0.0103
 'International Tables Vol C Tables 4.2.6.8 and 6.1.1.4'
 'Si'  'Si'   0.0817   0.0704
 'International Tables Vol C Tables 4.2.6.8 and 6.1.1.4'
 'S'  'S'   0.1246   0.1234
 'International Tables Vol C Tables 4.2.6.8 and 6.1.1.4'
 
_space_group_crystal_system       triclinic
_space_group_IT_number            2
_space_group_name_H-M_alt         'P -1'
_space_group_name_Hall            '-P 1'
 
_shelx_space_group_comment
;
The symmetry employed for this shelxl refinement is uniquely defined
by the following loop, which should always be used as a source of
symmetry information in preference to the above space-group names.
They are only intended as comments.
;
 
loop_
 _space_group_symop_operation_xyz
 'x, y, z'
 '-x, -y, -z'
 
_cell_length_a                    6.2389(1)
_cell_length_b                    8.4594(2)
_cell_length_c                    15.3638(4)
_cell_angle_alpha                 78.969(1)
_cell_angle_beta                  86.039(1)
_cell_angle_gamma                 82.599(1)
_cell_volume                      788.43(3)
_cell_formula_units_Z             1
_cell_measurement_temperature     90.0(2) 
_cell_measurement_reflns_used     3583 
_cell_measurement_theta_min       1.00  
_cell_measurement_theta_max       27.48  
 
_exptl_crystal_description        plate  
_exptl_crystal_colour             red  
_exptl_crystal_density_meas       ? 
_exptl_crystal_density_method     ?              
_exptl_crystal_density_diffrn     1.320          
_exptl_crystal_F_000              330
_exptl_transmission_factor_min    ?                                             
_exptl_transmission_factor_max    ?                                             
_exptl_crystal_size_max           0.250
_exptl_crystal_size_mid           0.220
_exptl_crystal_size_min           0.040
_exptl_absorpt_coefficient_mu     0.282
_shelx_estimated_absorpt_T_min    0.933
_shelx_estimated_absorpt_T_max    0.989
_exptl_absorpt_correction_type    multi-scan  
_exptl_absorpt_correction_T_min   0.7827 
_exptl_absorpt_correction_T_max   0.8944 
_exptl_absorpt_process_details    'SADABS (Sheldrick, 2013)'  
 
_exptl_special_details 
; 
The crystal was mounted on a fine glass fibre in polyisobutene oil 
directly into the cold stream of a nitrogen-based cryostat, according 
to established methods (Hope, 1994; Parkin & Hope, 1998).
; 

_diffrn_ambient_temperature       90.0(2) 
_diffrn_radiation_wavelength      0.71073
_diffrn_radiation_type            MoK\a
_diffrn_source                    'fine-focus sealed-tube'                        
_diffrn_measurement_device_type   'Nonius KappaCCD diffractometer'  
_diffrn_measurement_method        '\f and \w scans at fixed \c = 55\%'  
_diffrn_detector_area_resol_mean  9.1  
_diffrn_reflns_number             23509
_diffrn_reflns_av_unetI/netI      0.0267
_diffrn_reflns_av_R_equivalents   0.0472
_diffrn_reflns_limit_h_min        -8
_diffrn_reflns_limit_h_max        8
_diffrn_reflns_limit_k_min        -10
_diffrn_reflns_limit_k_max        10
_diffrn_reflns_limit_l_min        -19
_diffrn_reflns_limit_l_max        19
_diffrn_reflns_theta_min          2.470
_diffrn_reflns_theta_max          27.536
_diffrn_reflns_theta_full         25.242
_diffrn_measured_fraction_theta_max                0.993
_diffrn_measured_fraction_theta_full               0.999
_diffrn_reflns_Laue_measured_fraction_max          0.993
_diffrn_reflns_Laue_measured_fraction_full         0.999
_diffrn_reflns_point_group_measured_fraction_max   0.993
_diffrn_reflns_point_group_measured_fraction_full  0.999
_reflns_number_total              3607
_reflns_number_gt                 3202
_reflns_threshold_expression      'I > 2\s(I)'
_reflns_Friedel_coverage          0.000
_reflns_Friedel_fraction_max      .
_reflns_Friedel_fraction_full     .
 
_reflns_special_details
;
 Reflections were merged by SHELXL according to the crystal
 class for the calculation of statistics and refinement.
 
 _reflns_Friedel_fraction is defined as the number of unique
 Friedel pairs measured divided by the number that would be
 possible theoretically, ignoring centric projections and
 systematic absences.
;
 
_computing_data_collection        'COLLECT (Nonius, 1998)' 
_computing_cell_refinement        'SCALEPACK (Otwinowski & Minor, 1997)' 
_computing_data_reduction         'DENZO-SMN (Otwinowski & Minor, 1997)' 
_computing_structure_solution     'SHELXS-97 (Sheldrick, 2008)' 
_computing_structure_refinement   'SHELXL-2013 (Sheldrick, 2013)'
_computing_molecular_graphics     'XP in SHELXTL (Sheldrick, 2008)' 
_computing_publication_material   'SHELX (Sheldrick, 2008) and local procedures' 
 
_refine_special_details 
; 
Refinement progress was checked using routines in Platon (Spek, 2009), by an 
R-tensor (Parkin, 2000), and finally by the IUCr utility checkCIF. 
; 

_refine_ls_structure_factor_coef  Fsqd
_refine_ls_matrix_type            full
_refine_ls_weighting_scheme       calc
_refine_ls_weighting_details
;
 w=1/[\s^2^(Fo^2^)+(0.0470P)^2^+0.3526P]
 where P=(Fo^2^+2Fc^2^)/3
;
_atom_sites_solution_primary      ?
_atom_sites_solution_secondary    ?
_atom_sites_solution_hydrogens    geom
_refine_ls_hydrogen_treatment     constr
_refine_ls_extinction_method      none
_refine_ls_extinction_coef        .
_refine_ls_number_reflns          3607
_refine_ls_number_parameters      216
_refine_ls_number_restraints      91
_refine_ls_R_factor_all           0.0403
_refine_ls_R_factor_gt            0.0351
_refine_ls_wR_factor_ref          0.0946
_refine_ls_wR_factor_gt           0.0914
_refine_ls_goodness_of_fit_ref    1.056
_refine_ls_restrained_S_all       1.044
_refine_ls_shift/su_max           0.001
_refine_ls_shift/su_mean          0.000
 
loop_
 _atom_site_label
 _atom_site_type_symbol
 _atom_site_fract_x
 _atom_site_fract_y
 _atom_site_fract_z
 _atom_site_U_iso_or_equiv
 _atom_site_adp_type
 _atom_site_occupancy
 _atom_site_site_symmetry_order  
 _atom_site_calc_flag
 _atom_site_refinement_flags_posn
 _atom_site_refinement_flags_adp
 _atom_site_refinement_flags_occupancy
 _atom_site_disorder_assembly
 _atom_site_disorder_group
Si1 Si 0.90306(6) 0.43249(4) 0.84277(2) 0.01750(11) Uani 1 1 d . . . . .
C1 C 0.6042(2) 0.49354(15) 0.57995(8) 0.0164(3) Uani 1 1 d . . . . .
C2 C 0.4022(2) 0.58955(15) 0.56497(8) 0.0164(3) Uani 1 1 d . . . . .
C3 C 0.3050(2) 0.68371(16) 0.62781(8) 0.0184(3) Uani 1 1 d . . . . .
H3 H 0.3768 0.6852 0.6801 0.022 Uiso 1 1 calc R U . A 1
C4 C 0.1076(2) 0.77197(16) 0.61233(9) 0.0190(3) Uani 0.6803(17) 1 d D U P B 1
S5 S -0.03455(18) 0.89378(14) 0.68136(6) 0.02215(19) Uani 0.6803(17) 1 d D U P B 1
C6 C -0.2450(6) 0.9348(6) 0.6079(3) 0.0200(8) Uani 0.6803(17) 1 d D U P B 1
F1 F -0.4205(2) 1.03062(18) 0.63052(10) 0.0279(3) Uani 0.6803(17) 1 d D U P B 1
C7 C -0.2148(14) 0.8687(12) 0.5369(6) 0.0219(15) Uani 0.6803(17) 1 d D U P B 1
H7 H -0.3175 0.8828 0.4924 0.026 Uiso 0.6803(17) 1 calc R U P B 1
C8 C -0.0055(2) 0.77101(15) 0.53429(9) 0.0182(3) Uani 0.6803(17) 1 d D U P B 1
C4' C 0.1076(2) 0.77197(16) 0.61233(9) 0.0190(3) Uani 0.3197(17) 1 d D U P B 2
C5' C -0.0216(19) 0.8763(14) 0.6675(7) 0.02215(19) Uani 0.3197(17) 1 d D U P B 2
H5' H 0.0216 0.8963 0.7221 0.027 Uiso 0.3197(17) 1 calc R U P B 2
F1' F -0.3654(5) 1.0388(4) 0.6636(2) 0.0279(3) Uani 0.3197(17) 1 d D U P B 2
C6' C -0.2046(14) 0.9380(14) 0.6309(6) 0.0213(17) Uani 0.3197(17) 1 d D U P B 2
S7' S -0.2539(8) 0.8886(7) 0.5281(3) 0.0204(7) Uani 0.3197(17) 1 d D U P B 2
C8' C -0.0055(2) 0.77101(15) 0.53429(9) 0.0182(3) Uani 0.3197(17) 1 d D U P B 2
C9 C 0.0881(2) 0.68576(15) 0.47142(8) 0.0172(3) Uani 1 1 d . . . . .
H9 H 0.0147 0.6877 0.4190 0.021 Uiso 1 1 calc R U . B 1
C10 C 0.2945(2) 0.59447(15) 0.48437(8) 0.0161(3) Uani 1 1 d . . . . .
C11 C 0.7047(2) 0.48196(15) 0.66227(9) 0.0182(3) Uani 1 1 d . . . . .
C12 C 0.7856(2) 0.46835(16) 0.73283(9) 0.0199(3) Uani 1 1 d . . . . .
C13 C 0.8038(2) 0.24525(16) 0.91023(9) 0.0214(3) Uani 1 1 d . . . . .
H13A H 0.8459 0.2324 0.9724 0.026 Uiso 1 1 calc R U . . .
H13B H 0.6439 0.2556 0.9102 0.026 Uiso 1 1 calc R U . . .
C14 C 0.9006(2) 0.09488(17) 0.87158(10) 0.0273(3) Uani 1 1 d . . . . .
H14A H 0.8509 -0.0030 0.9097 0.033 Uiso 1 1 calc R U . . .
H14B H 0.8449 0.1037 0.8118 0.033 Uiso 1 1 calc R U . . .
C15 C 1.1489(3) 0.07346(18) 0.86428(11) 0.0305(3) Uani 1 1 d . . . . .
H15A H 1.2040 0.0668 0.9239 0.037 Uiso 1 1 calc R U . . .
H15B H 1.1986 -0.0309 0.8450 0.037 Uiso 1 1 calc R U . . .
C16 C 1.2482(2) 0.2087(2) 0.80011(10) 0.0289(3) Uani 1 1 d . . . . .
H16A H 1.1908 0.2179 0.7406 0.035 Uiso 1 1 calc R U . . .
H16B H 1.4068 0.1794 0.7950 0.035 Uiso 1 1 calc R U . . .
C17 C 1.2010(2) 0.37485(18) 0.82951(9) 0.0240(3) Uani 1 1 d . . . . .
H17A H 1.2645 0.4584 0.7846 0.029 Uiso 1 1 calc R U . . .
H17B H 1.2688 0.3694 0.8866 0.029 Uiso 1 1 calc R U . . .
C18 C 0.8293(2) 0.61695(17) 0.89436(9) 0.0243(3) Uani 1 1 d . . . . .
H18A H 0.8589 0.5873 0.9583 0.029 Uiso 1 1 calc R U . . .
H18B H 0.9247 0.6996 0.8670 0.029 Uiso 1 1 calc R U . . .
C19 C 0.5938(3) 0.6931(2) 0.88524(12) 0.0345(4) Uani 1 1 d . . . . .
H19A H 0.5661 0.7328 0.8223 0.052 Uiso 1 1 calc R U . . .
H19B H 0.5674 0.7838 0.9174 0.052 Uiso 1 1 calc R U . . .
H19C H 0.4973 0.6115 0.9101 0.052 Uiso 1 1 calc R U . . .
 
loop_
 _atom_site_aniso_label
 _atom_site_aniso_U_11
 _atom_site_aniso_U_22
 _atom_site_aniso_U_33
 _atom_site_aniso_U_23
 _atom_site_aniso_U_13
 _atom_site_aniso_U_12
Si1 0.01860(19) 0.01893(19) 0.01517(18) -0.00468(13) -0.00467(13) 0.00145(13)
C1 0.0182(6) 0.0164(6) 0.0149(6) -0.0023(5) -0.0034(5) -0.0029(5)
C2 0.0176(6) 0.0158(6) 0.0155(6) -0.0015(5) -0.0017(5) -0.0027(5)
C3 0.0209(6) 0.0204(6) 0.0146(6) -0.0040(5) -0.0031(5) -0.0020(5)
C4 0.0214(6) 0.0174(6) 0.0182(6) -0.0037(5) 0.0006(5) -0.0023(5)
S5 0.0234(3) 0.0226(4) 0.0209(4) -0.0084(2) -0.0021(3) 0.0026(2)
C6 0.0155(14) 0.0186(12) 0.024(2) -0.0020(14) -0.0045(12) 0.0037(10)
F1 0.0234(8) 0.0293(6) 0.0306(9) -0.0122(6) -0.0034(6) 0.0092(5)
C7 0.022(3) 0.022(3) 0.0219(18) -0.0001(17) -0.0080(18) -0.005(2)
C8 0.0191(6) 0.0153(6) 0.0195(6) -0.0006(5) -0.0021(5) -0.0025(5)
C4' 0.0214(6) 0.0174(6) 0.0182(6) -0.0037(5) 0.0006(5) -0.0023(5)
C5' 0.0234(3) 0.0226(4) 0.0209(4) -0.0084(2) -0.0021(3) 0.0026(2)
F1' 0.0234(8) 0.0293(6) 0.0306(9) -0.0122(6) -0.0034(6) 0.0092(5)
C6' 0.022(4) 0.022(3) 0.019(4) -0.006(3) 0.001(3) 0.005(3)
S7' 0.0171(13) 0.0179(10) 0.0252(13) -0.0038(9) -0.0022(10) 0.0017(8)
C8' 0.0191(6) 0.0153(6) 0.0195(6) -0.0006(5) -0.0021(5) -0.0025(5)
C9 0.0181(6) 0.0166(6) 0.0170(6) -0.0020(5) -0.0043(5) -0.0023(5)
C10 0.0177(6) 0.0153(6) 0.0155(6) -0.0016(5) -0.0021(5) -0.0031(5)
C11 0.0184(6) 0.0168(6) 0.0194(6) -0.0044(5) -0.0006(5) -0.0002(5)
C12 0.0194(6) 0.0207(6) 0.0193(6) -0.0049(5) -0.0024(5) 0.0011(5)
C13 0.0226(7) 0.0222(7) 0.0191(6) -0.0046(5) -0.0028(5) 0.0007(5)
C14 0.0316(8) 0.0205(7) 0.0301(8) -0.0072(6) -0.0045(6) 0.0010(6)
C15 0.0319(8) 0.0269(7) 0.0325(8) -0.0112(6) -0.0088(6) 0.0104(6)
C16 0.0207(7) 0.0399(9) 0.0265(7) -0.0134(6) -0.0033(6) 0.0074(6)
C17 0.0193(6) 0.0307(7) 0.0214(7) -0.0036(6) -0.0042(5) -0.0012(5)
C18 0.0312(7) 0.0215(7) 0.0208(7) -0.0062(5) -0.0084(6) 0.0020(6)
C19 0.0325(8) 0.0329(8) 0.0407(9) -0.0186(7) -0.0043(7) 0.0060(7)
 
_geom_special_details
;
 All esds (except the esd in the dihedral angle between two l.s. planes)
 are estimated using the full covariance matrix.  The cell esds are taken
 into account individually in the estimation of esds in distances, angles
 and torsion angles; correlations between esds in cell parameters are only
 used when they are defined by crystal symmetry.  An approximate (isotropic)
 treatment of cell esds is used for estimating esds involving l.s. planes.
;
 
loop_
 _geom_bond_atom_site_label_1
 _geom_bond_atom_site_label_2
 _geom_bond_distance
 _geom_bond_site_symmetry_2
 _geom_bond_publ_flag
Si1 C12 1.8440(14) . ?
Si1 C17 1.8673(14) . ?
Si1 C13 1.8715(14) . ?
Si1 C18 1.8743(14) . ?
C1 C10 1.4157(17) 2_666 ?
C1 C2 1.4162(17) . ?
C1 C11 1.4311(18) . ?
C2 C3 1.4225(18) . ?
C2 C10 1.4406(17) . ?
C3 C4 1.3664(18) . ?
C3 H3 0.9500 . ?
C4 C8 1.4344(18) . ?
C4 S5 1.7395(15) . ?
S5 C6 1.748(3) . ?
C6 C7 1.310(10) . ?
C6 F1 1.343(4) . ?
C7 C8 1.455(7) . ?
C7 H7 0.9500 . ?
C8 C9 1.3691(19) . ?
C5' C6' 1.310(13) . ?
C5' H5' 0.9500 . ?
F1' C6' 1.364(8) . ?
C6' S7' 1.765(9) . ?
C9 C10 1.4196(18) . ?
C9 H9 0.9500 . ?
C10 C1 1.4157(17) 2_666 ?
C11 C12 1.2066(19) . ?
C13 C14 1.5418(19) . ?
C13 H13A 0.9900 . ?
C13 H13B 0.9900 . ?
C14 C15 1.535(2) . ?
C14 H14A 0.9900 . ?
C14 H14B 0.9900 . ?
C15 C16 1.527(2) . ?
C15 H15A 0.9900 . ?
C15 H15B 0.9900 . ?
C16 C17 1.544(2) . ?
C16 H16A 0.9900 . ?
C16 H16B 0.9900 . ?
C17 H17A 0.9900 . ?
C17 H17B 0.9900 . ?
C18 C19 1.531(2) . ?
C18 H18A 0.9900 . ?
C18 H18B 0.9900 . ?
C19 H19A 0.9800 . ?
C19 H19B 0.9800 . ?
C19 H19C 0.9800 . ?
 
loop_
 _geom_angle_atom_site_label_1
 _geom_angle_atom_site_label_2
 _geom_angle_atom_site_label_3
 _geom_angle
 _geom_angle_site_symmetry_1
 _geom_angle_site_symmetry_3
 _geom_angle_publ_flag
C12 Si1 C17 108.78(6) . . ?
C12 Si1 C13 107.88(6) . . ?
C17 Si1 C13 103.64(6) . . ?
C12 Si1 C18 109.23(6) . . ?
C17 Si1 C18 113.60(7) . . ?
C13 Si1 C18 113.41(7) . . ?
C10 C1 C2 120.95(11) 2_666 . ?
C10 C1 C11 119.51(11) 2_666 . ?
C2 C1 C11 119.51(11) . . ?
C1 C2 C3 120.98(11) . . ?
C1 C2 C10 119.78(11) . . ?
C3 C2 C10 119.24(11) . . ?
C4 C3 C2 119.49(12) . . ?
C4 C3 H3 120.3 . . ?
C2 C3 H3 120.3 . . ?
C3 C4 C8 121.52(12) . . ?
C3 C4 S5 125.77(11) . . ?
C8 C4 S5 112.71(10) . . ?
C4 S5 C6 88.70(14) . . ?
C7 C6 F1 127.1(4) . . ?
C7 C6 S5 116.6(4) . . ?
F1 C6 S5 116.3(2) . . ?
C6 C7 C8 112.1(6) . . ?
C6 C7 H7 124.0 . . ?
C8 C7 H7 124.0 . . ?
C9 C8 C4 120.02(12) . . ?
C9 C8 C7 130.1(4) . . ?
C4 C8 C7 109.9(4) . . ?
C6' C5' H5' 124.7 . . ?
C5' C6' F1' 126.9(7) . . ?
C5' C6' S7' 118.0(7) . . ?
F1' C6' S7' 115.1(5) . . ?
C8 C9 C10 120.16(12) . . ?
C8 C9 H9 119.9 . . ?
C10 C9 H9 119.9 . . ?
C1 C10 C9 121.30(11) 2_666 . ?
C1 C10 C2 119.25(11) 2_666 . ?
C9 C10 C2 119.45(11) . . ?
C12 C11 C1 177.94(14) . . ?
C11 C12 Si1 175.81(12) . . ?
C14 C13 Si1 110.28(10) . . ?
C14 C13 H13A 109.6 . . ?
Si1 C13 H13A 109.6 . . ?
C14 C13 H13B 109.6 . . ?
Si1 C13 H13B 109.6 . . ?
H13A C13 H13B 108.1 . . ?
C15 C14 C13 113.52(12) . . ?
C15 C14 H14A 108.9 . . ?
C13 C14 H14A 108.9 . . ?
C15 C14 H14B 108.9 . . ?
C13 C14 H14B 108.9 . . ?
H14A C14 H14B 107.7 . . ?
C16 C15 C14 114.62(12) . . ?
C16 C15 H15A 108.6 . . ?
C14 C15 H15A 108.6 . . ?
C16 C15 H15B 108.6 . . ?
C14 C15 H15B 108.6 . . ?
H15A C15 H15B 107.6 . . ?
C15 C16 C17 113.02(12) . . ?
C15 C16 H16A 109.0 . . ?
C17 C16 H16A 109.0 . . ?
C15 C16 H16B 109.0 . . ?
C17 C16 H16B 109.0 . . ?
H16A C16 H16B 107.8 . . ?
C16 C17 Si1 110.39(10) . . ?
C16 C17 H17A 109.6 . . ?
Si1 C17 H17A 109.6 . . ?
C16 C17 H17B 109.6 . . ?
Si1 C17 H17B 109.6 . . ?
H17A C17 H17B 108.1 . . ?
C19 C18 Si1 115.08(10) . . ?
C19 C18 H18A 108.5 . . ?
Si1 C18 H18A 108.5 . . ?
C19 C18 H18B 108.5 . . ?
Si1 C18 H18B 108.5 . . ?
H18A C18 H18B 107.5 . . ?
C18 C19 H19A 109.5 . . ?
C18 C19 H19B 109.5 . . ?
H19A C19 H19B 109.5 . . ?
C18 C19 H19C 109.5 . . ?
H19A C19 H19C 109.5 . . ?
H19B C19 H19C 109.5 . . ?
 
loop_
 _geom_torsion_atom_site_label_1
 _geom_torsion_atom_site_label_2
 _geom_torsion_atom_site_label_3
 _geom_torsion_atom_site_label_4
 _geom_torsion
 _geom_torsion_site_symmetry_1
 _geom_torsion_site_symmetry_2
 _geom_torsion_site_symmetry_3
 _geom_torsion_site_symmetry_4
 _geom_torsion_publ_flag
C10 C1 C2 C3 -177.17(12) 2_666 . . . ?
C11 C1 C2 C3 4.49(19) . . . . ?
C10 C1 C2 C10 1.8(2) 2_666 . . . ?
C11 C1 C2 C10 -176.53(11) . . . . ?
C1 C2 C3 C4 -178.44(12) . . . . ?
C10 C2 C3 C4 2.57(19) . . . . ?
C2 C3 C4 C8 0.5(2) . . . . ?
C2 C3 C4 S5 -179.85(11) . . . . ?
C3 C4 S5 C6 -177.5(2) . . . . ?
C8 C4 S5 C6 2.1(2) . . . . ?
C4 S5 C6 C7 -1.4(6) . . . . ?
C4 S5 C6 F1 178.4(4) . . . . ?
F1 C6 C7 C8 -179.5(5) . . . . ?
S5 C6 C7 C8 0.2(10) . . . . ?
C3 C4 C8 C9 -2.8(2) . . . . ?
S5 C4 C8 C9 177.56(11) . . . . ?
C3 C4 C8 C7 177.3(5) . . . . ?
S5 C4 C8 C7 -2.4(5) . . . . ?
C6 C7 C8 C9 -178.6(4) . . . . ?
C6 C7 C8 C4 1.4(9) . . . . ?
C4 C8 C9 C10 1.75(19) . . . . ?
C7 C8 C9 C10 -178.3(6) . . . . ?
C8 C9 C10 C1 -179.42(12) . . . 2_666 ?
C8 C9 C10 C2 1.34(19) . . . . ?
C1 C2 C10 C1 -1.8(2) . . . 2_666 ?
C3 C2 C10 C1 177.22(11) . . . 2_666 ?
C1 C2 C10 C9 177.48(11) . . . . ?
C3 C2 C10 C9 -3.52(18) . . . . ?
C12 Si1 C13 C14 67.85(11) . . . . ?
C17 Si1 C13 C14 -47.39(11) . . . . ?
C18 Si1 C13 C14 -171.03(9) . . . . ?
Si1 C13 C14 C15 56.22(14) . . . . ?
C13 C14 C15 C16 -64.14(17) . . . . ?
C14 C15 C16 C17 64.44(16) . . . . ?
C15 C16 C17 Si1 -57.25(14) . . . . ?
C12 Si1 C17 C16 -66.67(11) . . . . ?
C13 Si1 C17 C16 47.93(11) . . . . ?
C18 Si1 C17 C16 171.45(9) . . . . ?
C12 Si1 C18 C19 43.63(13) . . . . ?
C17 Si1 C18 C19 165.26(11) . . . . ?
C13 Si1 C18 C19 -76.73(13) . . . . ?
 
_refine_diff_density_max    0.320
_refine_diff_density_min   -0.345
_refine_diff_density_rms    0.053

_shelxl_version_number 2013-2

_iucr_refine_instructions_details 
;
TITL k13043f in P-1
CELL  0.71073   6.2389   8.4594  15.3638   78.969   86.039   82.599
ZERR     1.00   0.0001   0.0002   0.0004    0.001    0.001    0.001
LATT  1
SFAC C H F SI S
UNIT 36 36 2 2 2
TEMP -183
SIZE 0.25 0.22 0.04
REM Cell 3583, 1.00, 27.48
REM COLR red
REM FORM plate
REM MERG 0
REM Reflection (-1 -2 1) was an overload in the fast (and slow) sets.
OMIT -1 -2 1
L.S. 8
ACTA
BOND $H
CONF
HTAB
LIST 4
FMAP 2
PLAN 10
REM EXTI    0.000000 not necessary
WGHT    0.047000    0.352600
FVAR       0.93194   0.68031
SI1   4    0.903056    0.432487    0.842773    11.00000    0.01860    0.01893 =
         0.01517   -0.00468   -0.00467    0.00145
C1    1    0.604238    0.493544    0.579952    11.00000    0.01818    0.01641 =
         0.01494   -0.00228   -0.00336   -0.00292
C2    1    0.402242    0.589546    0.564970    11.00000    0.01763    0.01580 =
         0.01550   -0.00151   -0.00169   -0.00270
C3    1    0.305022    0.683709    0.627811    11.00000    0.02087    0.02036 =
         0.01458   -0.00404   -0.00306   -0.00198
AFIX  43
H3    2    0.376823    0.685223    0.680144    11.00000   -1.20000
AFIX   0
EXYZ C4 C4'
EXYZ C8 C8'
EADP C4 C4'
EADP C5' S5
EADP F1 F1'
EADP C8 C8'
SAME 0.020 C8' S7' C6' F1' C5' C4'
RIGU 0.010 C4 > C8'
PART 1
C4    1    0.107570    0.771967    0.612326    21.00000    0.02143    0.01741 =
         0.01817   -0.00366    0.00056   -0.00227
S5    5   -0.034549    0.893779    0.681364    21.00000    0.02344    0.02263 =
         0.02090   -0.00843   -0.00209    0.00257
C6    1   -0.244972    0.934841    0.607852    21.00000    0.01546    0.01857 =
         0.02426   -0.00198   -0.00453    0.00365
F1    3   -0.420532    1.030620    0.630519    21.00000    0.02344    0.02927 =
         0.03061   -0.01224   -0.00342    0.00917
C7    1   -0.214800    0.868690    0.536889    21.00000    0.02163    0.02240 =
         0.02186   -0.00012   -0.00797   -0.00543
AFIX  43
H7    2   -0.317488    0.882828    0.492350    21.00000   -1.20000
AFIX   0
C8    1   -0.005530    0.771011    0.534291    21.00000    0.01910    0.01531 =
         0.01953   -0.00065   -0.00208   -0.00255
PART 2
C4'   1    0.107570    0.771967    0.612326   -21.00000    0.02143    0.01741 =
         0.01817   -0.00366    0.00056   -0.00227
C5'   1   -0.021560    0.876303    0.667489   -21.00000    0.02344    0.02263 =
         0.02090   -0.00843   -0.00209    0.00257
AFIX  43
H5'   2    0.021595    0.896284    0.722110   -21.00000   -1.20000
AFIX   0
F1'   3   -0.365410    1.038813    0.663572   -21.00000    0.02344    0.02927 =
         0.03061   -0.01224   -0.00342    0.00917
C6'   1   -0.204604    0.938000    0.630872   -21.00000    0.02213    0.02167 =
         0.01850   -0.00568    0.00117    0.00481
S7'   5   -0.253893    0.888606    0.528074   -21.00000    0.01715    0.01785 =
         0.02516   -0.00375   -0.00220    0.00173
C8'   1   -0.005530    0.771011    0.534291   -21.00000    0.01910    0.01531 =
         0.01953   -0.00065   -0.00208   -0.00255
PART 0
C9    1    0.088061    0.685761    0.471417    11.00000    0.01813    0.01659 =
         0.01704   -0.00197   -0.00429   -0.00230
AFIX  43
H9    2    0.014673    0.687701    0.418996    11.00000   -1.20000
AFIX   0
C10   1    0.294501    0.594474    0.484366    11.00000    0.01765    0.01532 =
         0.01548   -0.00156   -0.00213   -0.00314
C11   1    0.704709    0.481962    0.662267    11.00000    0.01841    0.01681 =
         0.01939   -0.00436   -0.00058   -0.00021
C12   1    0.785574    0.468345    0.732828    11.00000    0.01937    0.02074 =
         0.01927   -0.00485   -0.00243    0.00110
C13   1    0.803766    0.245253    0.910229    11.00000    0.02262    0.02217 =
         0.01906   -0.00460   -0.00276    0.00072
AFIX  23
H13A  2    0.845889    0.232363    0.972377    11.00000   -1.20000
H13B  2    0.643893    0.255587    0.910196    11.00000   -1.20000
AFIX   0
C14   1    0.900574    0.094877    0.871581    11.00000    0.03162    0.02046 =
         0.03011   -0.00719   -0.00452    0.00105
AFIX  23
H14A  2    0.850884   -0.003007    0.909691    11.00000   -1.20000
H14B  2    0.844854    0.103724    0.811836    11.00000   -1.20000
AFIX   0
C15   1    1.148919    0.073461    0.864279    11.00000    0.03185    0.02687 =
         0.03252   -0.01118   -0.00875    0.01036
AFIX  23
H15A  2    1.203960    0.066784    0.923944    11.00000   -1.20000
H15B  2    1.198594   -0.030884    0.844980    11.00000   -1.20000
AFIX   0
C16   1    1.248241    0.208681    0.800111    11.00000    0.02069    0.03987 =
         0.02647   -0.01343   -0.00333    0.00736
AFIX  23
H16A  2    1.190784    0.217873    0.740646    11.00000   -1.20000
H16B  2    1.406827    0.179358    0.795003    11.00000   -1.20000
AFIX   0
C17   1    1.201009    0.374848    0.829512    11.00000    0.01933    0.03067 =
         0.02141   -0.00360   -0.00424   -0.00117
AFIX  23
H17A  2    1.264509    0.458404    0.784620    11.00000   -1.20000
H17B  2    1.268823    0.369422    0.886558    11.00000   -1.20000
AFIX   0
C18   1    0.829327    0.616953    0.894364    11.00000    0.03116    0.02148 =
         0.02083   -0.00624   -0.00838    0.00201
AFIX  23
H18A  2    0.858877    0.587347    0.958282    11.00000   -1.20000
H18B  2    0.924652    0.699643    0.866966    11.00000   -1.20000
AFIX   0
C19   1    0.593842    0.693101    0.885238    11.00000    0.03252    0.03287 =
         0.04072   -0.01862   -0.00428    0.00603
AFIX 137
H19A  2    0.566084    0.732831    0.822348    11.00000   -1.50000
H19B  2    0.567403    0.783754    0.917389    11.00000   -1.50000
H19C  2    0.497277    0.611470    0.910136    11.00000   -1.50000

AFIX   0
HKLF 4

REM  k13043f in P-1
REM R1 =  0.0351 for    3202 Fo > 4sig(Fo)  and  0.0403 for all    3607 data
REM    216 parameters refined using     91 restraints

END

WGHT      0.0471      0.3516

REM Instructions for potential hydrogen bonds
EQIV $1 -x-1, -y+2, -z+1
HTAB C7 F1_$1

REM Highest difference peak  0.320,  deepest hole -0.345,  1-sigma level  0.053
Q1    1   0.3352  0.5509  0.4606  11.00000  0.05    0.32
Q2    1   0.3463  0.6417  0.5954  11.00000  0.05    0.31
Q3    1   1.0997  0.4295  0.8408  11.00000  0.05    0.29
Q4    1   0.0438  0.7489  0.5060  11.00000  0.05    0.28
Q5    1   0.8236  0.3365  0.8821  11.00000  0.05    0.27
Q6    1   0.5125  0.5601  0.5646  11.00000  0.05    0.27
Q7    1   0.8493  0.4661  0.7770  11.00000  0.05    0.27
Q8    1   0.0575  0.7574  0.5739  11.00000  0.05    0.27
Q9    1   0.8683  0.5599  0.8617  11.00000  0.05    0.25
Q10   1   0.3339  0.5802  0.5201  11.00000  0.05    0.25
;
_shelx_res_checksum   67873

_shelx_hkl_file
;
  -1   0   0 2536.56  132.11
  -1   0   0 2637.94  133.76
   1   0   0 2564.92  151.22
   1   0   0 2392.29   95.75
  -2   0   0  511.10   16.26
  -2   0   0  508.27   27.24
  -2   0   0  525.51   22.07
  -2   0   0  518.55   34.12
  -2   0   0  539.55   34.72
   2   0   0  533.89   18.24
   2   0   0  531.38   19.77
   2   0   0  548.08   22.78
   2   0   0  523.00   34.42
   2   0   0  512.52   28.60
  -2   0   0  513.51   21.99
  -2   0   0  558.82   33.08
   2   0   0  543.97   33.91
   2   0   0  563.77   26.95
  -3   0   0  3.3102  0.8459
  -3   0   0  2.3953  0.4734
  -3   0   0  2.5650  0.4971
  -3   0   0  5.4783  1.2308
  -3   0   0  2.0443  0.6689
   3   0   0  2.1113  0.6079
   3   0   0  2.9047  0.6623
   3   0   0  3.0970  0.5714
   3   0   0  2.9671  0.8638
   3   0   0  1.6318  0.3254
   3   0   0  1.5439  0.5074
  -3   0   0  0.2424  2.1585
  -3   0   0  3.7577  3.0066
   3   0   0  4.0806  3.2306
   3   0   0 -0.2481  1.8310
  -4   0   0  16.419   1.568
  -4   0   0  20.038   1.335
  -4   0   0  17.851   1.238
  -4   0   0  18.652   1.755
   4   0   0  14.546   1.386
   4   0   0  17.044   1.037
   4   0   0  18.210   1.070
   4   0   0  14.393   1.664
   4   0   0  17.878   1.884
   4   0   0  17.632   0.984
  -4   0   0  9.0472  3.6273
   4   0   0  15.039   6.481
   4   0   0  11.807   4.140
  -5   0   0  18.937   1.829
  -5   0   0  19.182   1.486
  -5   0   0  19.409   1.721
  -5   0   0  18.866   1.600
   5   0   0  20.807   1.378
   5   0   0  20.272   1.372
   5   0   0  17.555   1.795
   5   0   0  19.644   1.767
   5   0   0  18.128   1.310
  -5   0   0  26.586   7.897
   5   0   0  6.5327  6.9648
   5   0   0  24.665  10.222
  -6   0   0  267.10   14.12
  -6   0   0  264.90    9.78
   6   0   0  269.66   13.54
   6   0   0  266.56   11.79
   6   0   0  208.98    9.00
   6   0   0  260.46   17.24
  -6   0   0  251.64   25.44
   6   0   0  240.98   17.13
  -7   0   0  4.7527  2.4460
  -7   0   0  0.4839  1.4980
   7   0   0 -0.4216  1.4946
   7   0   0  -2.828   6.996
  -8   0   0  0.3171  2.2654
  -8   0   0  3.3322  3.4392
   7  -1   0  46.964   3.253
   7  -1   0  45.594   3.529
  -7   1   0  52.003   3.789
  -7   1   0  43.560   3.476
   7  -1   0  62.397  14.525
   6  -1   0  265.15   18.30
   6  -1   0  257.62    9.88
  -6   1   0  258.72    9.73
  -6   1   0  242.24   10.44
   6  -1   0  254.18   18.70
   5  -1   0  531.89   17.11
   5  -1   0  521.93   31.84
   5  -1   0  516.68   21.58
  -5   1   0  526.39   40.02
  -5   1   0  507.41   17.01
   5  -1   0  592.63   42.25
   5  -1   0  609.22   29.56
  -5   1   0  553.94   28.19
   4  -1   0  5.8512  0.9127
   4  -1   0  5.0104  0.6060
   4  -1   0  5.3335  0.6301
   4  -1   0  5.0519  0.5177
  -4   1   0  4.0636  1.2103
  -4   1   0  4.8671  0.8719
  -4   1   0  4.9812  0.9076
  -4   1   0  2.8985  0.7631
   4  -1   0  3.8701  3.7289
   4  -1   0  14.756   5.069
  -4   1   0  2.4213  4.9876
  -4   1   0  7.9689  5.0997
   3  -1   0  270.85   19.90
   3  -1   0  263.23   15.23
   3  -1   0  284.14   12.42
   3  -1   0  286.06   14.54
   3  -1   0  274.93   11.15
  -3   1   0  291.62   11.55
  -3   1   0  265.81   10.78
  -3   1   0  286.83   11.23
  -3   1   0  277.54    7.90
  -3   1   0  268.43    9.44
   3  -1   0  265.06   11.91
   3  -1   0  260.80   12.53
  -3   1   0  277.58   15.24
  -3   1   0  299.32   13.26
   2  -1   0  63.855   3.598
   2  -1   0  60.974   3.961
   2  -1   0  50.038   2.334
   2  -1   0  58.405   2.304
   2  -1   0  59.016   3.147
  -2   1   0  62.409   4.098
  -2   1   0  64.343   2.523
  -2   1   0  58.644   2.157
  -2   1   0  57.055   4.474
  -2   1   0  64.064   3.074
  -2   1   0  63.303   2.534
   2  -1   0  62.276   5.522
   2  -1   0  57.726   5.080
  -2   1   0  58.024   5.146
  -2   1   0  54.071   4.996
   1  -1   0  250.54   11.05
   1  -1   0  240.91   15.36
   1  -1   0  251.60    6.91
  -1   1   0  251.53   15.35
  -1   1   0  264.60   13.40
  -1   1   0  253.50   14.85
  -1   1   0  243.95    9.99
  -1   1   0  253.41   10.03
   1  -1   0  258.32   17.32
   1  -1   0  254.11   14.60
  -1   1   0  261.05   13.74
  -1   1   0  245.72   14.24
   0  -1   0  336.46   18.44
   0  -1   0  323.31   22.24
   0  -1   0  325.46   21.70
   0  -1   0  334.27   17.91
   0  -1   0  338.56    9.97
   0   1   0  346.97   10.32
   0   1   0  338.74   14.22
   0   1   0  336.44   16.65
   0   1   0  330.20   14.56
   0   1   0  323.01   12.39
   0   1   0  324.79   13.88
   0   1   0  332.88   16.50
   0  -1   0  339.04   15.44
   0  -1   0  318.16   22.66
   0   1   0  316.98   18.43
   0   1   0  333.03   14.38
  -1  -1   0  277.41   10.61
  -1  -1   0  309.98   25.87
  -1  -1   0  321.79   15.89
  -1  -1   0  297.89   14.99
   1   1   0  298.23   14.61
   1   1   0  296.78   23.03
   1   1   0  285.30   13.12
   1   1   0  308.27   24.14
  -1  -1   0  279.18   12.99
  -1  -1   0  300.86   15.17
   1   1   0  299.50   14.56
   1   1   0  310.00   14.76
  -2  -1   0  387.81   18.27
  -2  -1   0  381.14   16.03
  -2  -1   0  373.85   18.38
  -2  -1   0  389.49   18.73
  -2  -1   0  355.83   14.97
   2   1   0  353.40   13.41
   2   1   0  398.67   17.34
   2   1   0  370.11   16.95
   2   1   0  361.32   16.94
   2   1   0  361.04   12.73
  -2  -1   0  414.36   17.37
  -2  -1   0  415.38   25.17
   2   1   0  404.74   15.34
   2   1   0  401.68   26.74
  -3  -1   0  441.63   15.96
  -3  -1   0  424.60   19.31
  -3  -1   0  427.37   14.93
  -3  -1   0  432.03   18.66
  -3  -1   0  442.22   18.30
   3   1   0  391.49   15.78
   3   1   0  459.08   24.64
   3   1   0  411.29   12.91
   3   1   0  397.45   10.96
   3   1   0  434.32   35.18
  -3  -1   0  421.49   24.70
  -3  -1   0  461.82   21.10
   3   1   0  418.68   16.35
   3   1   0  458.19   29.20
  -4  -1   0  839.07   69.52
  -4  -1   0  889.83   38.44
  -4  -1   0  771.19   34.67
  -4  -1   0  884.88   27.58
   4   1   0  873.11   68.03
   4   1   0  840.49   26.85
   4   1   0  772.49   19.78
  -4  -1   0  934.14   44.64
   4   1   0  940.60   69.58
   4   1   0  834.26   27.56
  -5  -1   0  5.1831  1.2844
  -5  -1   0  6.0988  1.5087
  -5  -1   0  5.5550  0.9639
  -5  -1   0  4.3984  1.0349
   5   1   0  5.2392  0.7322
   5   1   0  7.2919  1.1345
   5   1   0  6.4727  1.0184
   5   1   0  6.1677  1.0321
  -5  -1   0  -4.046   5.184
  -5  -1   0  6.6049  6.5428
   5   1   0  -2.843   6.503
   5   1   0  1.5915  6.2500
  -6  -1   0  46.730   3.479
  -6  -1   0  50.132   3.019
   6   1   0  52.312   2.569
   6   1   0  45.670   2.438
   6   1   0  47.627   2.763
   6   1   0  44.279   2.404
  -6  -1   0  23.297  10.217
   6   1   0   9.660  10.778
  -7  -1   0  5.1225  1.6646
  -7  -1   0  4.3322  2.6328
   7   1   0  9.8956  2.6505
   7   1   0  9.2118  1.6589
  -8  -1   0 -0.8849  2.7860
  -8  -1   0  2.3075  3.2556
   8   1   0  2.1219  2.4069
   7  -2   0  11.122   1.968
   7  -2   0  11.564   1.805
  -7   2   0  10.310   2.736
  -7   2   0  11.544   2.389
   7  -2   0  11.618  10.122
   6  -2   0  46.738   2.865
   6  -2   0  47.625   2.688
  -6   2   0  47.615   2.958
  -6   2   0  47.288   3.745
   6  -2   0  52.783   9.292
   5  -2   0  153.37    5.73
   5  -2   0  152.22    5.42
  -5   2   0  156.07    7.96
  -5   2   0  150.93    6.93
   5  -2   0  144.73   11.37
   5  -2   0  176.53   11.98
   4  -2   0  118.59    5.01
   4  -2   0  112.40    4.35
  -4   2   0  114.92    3.93
  -4   2   0  118.49    3.77
   4  -2   0  101.31    8.95
  -4   2   0  92.279   9.468
   3  -2   0  3.0973  0.9282
   3  -2   0  2.1460  0.7348
   3  -2   0  2.7453  0.5003
  -3   2   0  2.7511  0.9081
  -3   2   0  1.4943  0.6186
  -3   2   0  1.2350  0.6894
  -3   2   0  3.0643  0.7569
  -3   2   0  2.3201  0.7511
  -3   2   0  3.7050  0.9520
   3  -2   0  3.3707  2.8011
   3  -2   0  -1.078   2.108
  -3   2   0  0.8221  2.7944
  -3   2   0 -0.4610  2.7151
   2  -2   0  2.7862  0.5283
   2  -2   0  4.0752  0.5418
   2  -2   0  2.1550  0.5001
   2  -2   0  3.1691  0.5708
  -2   2   0  2.9042  0.4212
  -2   2   0  2.3388  0.5840
  -2   2   0  2.1324  0.8223
  -2   2   0  1.8194  0.6907
   2  -2   0  4.6281  2.3321
   2  -2   0  3.7981  2.0894
  -2   2   0  3.4253  2.3762
  -2   2   0  4.6934  2.0844
   1  -2   0  593.26   31.37
   1  -2   0  584.63   28.09
   1  -2   0  575.32   38.95
   1  -2   0  601.72   18.94
  -1   2   0  614.02   29.07
  -1   2   0  595.04   15.98
  -1   2   0  619.14   24.13
  -1   2   0  583.56   18.60
  -1   2   0  618.97   24.98
  -1   2   0  606.34   24.89
   1  -2   0  609.64   23.38
   1  -2   0  606.68   21.01
  -1   2   0  604.47   20.68
  -1   2   0  629.53   24.62
   0  -2   0  573.96   21.18
   0  -2   0  571.99   27.22
   0  -2   0  573.42   17.57
   0  -2   0  582.00   29.93
   0  -2   0  551.87   15.22
   0   2   0  587.36   31.78
   0   2   0  584.79   28.17
   0   2   0  571.71   25.21
   0   2   0  560.51   24.93
   0   2   0  575.77   27.55
   0   2   0  570.10   28.58
   0   2   0  578.58   27.83
   0  -2   0  572.87   32.20
   0  -2   0  546.75   37.60
   0   2   0  597.74   27.00
   0   2   0  582.39   30.79
  -1  -2   0 2302.89   77.61
  -1  -2   0 2548.96  150.42
   1   2   0 2636.68   99.00
   1   2   0 2580.95  167.27
  -2  -2   0  166.19   11.06
  -2  -2   0  143.69    7.78
  -2  -2   0  157.02   11.07
  -2  -2   0  167.11    6.57
   2   2   0  146.32    6.51
   2   2   0  139.43    5.90
   2   2   0  156.43   12.46
   2   2   0  147.29    7.33
   2   2   0  144.80    5.50
  -2  -2   0  137.10   10.64
   2   2   0  151.67   12.90
   2   2   0  153.91    7.16
  -3  -2   0  3.7865  0.3574
  -3  -2   0  3.9074  0.6474
  -3  -2   0  3.4673  0.7597
  -3  -2   0  3.5450  0.6764
   3   2   0  3.6407  0.7099
   3   2   0  3.1660  0.3634
   3   2   0  4.1709  1.0164
   3   2   0  3.5797  0.5967
   3   2   0  4.2255  0.4263
  -3  -2   0  3.6038  2.7496
   3   2   0  5.2733  4.2610
   3   2   0  3.2231  2.2672
  -4  -2   0  953.71   45.40
  -4  -2   0  961.48   50.04
  -4  -2   0  903.75   44.28
   4   2   0  895.44   36.39
   4   2   0  899.09   53.22
   4   2   0  901.84   24.66
   4   2   0  901.86   29.24
  -4  -2   0  986.05   62.50
  -4  -2   0  871.84   34.69
   4   2   0  957.35   47.17
   4   2   0  923.02   49.14
  -5  -2   0  301.62   19.96
  -5  -2   0  302.78   12.79
  -5  -2   0  330.65   18.60
   5   2   0  292.50   14.26
   5   2   0  314.74   10.63
  -5  -2   0  352.23   23.58
  -5  -2   0  299.90   16.59
   5   2   0  339.38   16.24
  -6  -2   0  60.727   3.286
  -6  -2   0  58.677   5.870
   6   2   0  55.953   2.746
   6   2   0  65.818   2.915
   6   2   0  62.126   3.319
  -6  -2   0  43.310  10.448
   6   2   0  57.528   9.916
  -7  -2   0  10.495   2.194
  -7  -2   0  9.3318  1.9974
  -7  -2   0  8.1680  2.4306
   7   2   0  10.541   1.817
   7   2   0  8.8996  1.9754
  -8  -2   0  2.3317  2.3582
  -8  -2   0  5.9348  3.2354
  -8  -2   0  3.6397  2.4569
   8   2   0  4.8392  3.0864
   8   2   0  5.2930  1.8491
   7  -3   0  174.14   11.89
  -7   3   0  155.66   10.05
  -7   3   0  159.94   10.89
   7  -3   0  151.65   21.34
   6  -3   0  167.10    7.67
   6  -3   0  156.86    9.48
   6  -3   0  161.69    9.99
  -6   3   0  159.13    9.79
  -6   3   0  175.59    7.59
   6  -3   0  143.20   14.80
   5  -3   0  11.224   1.271
   5  -3   0  15.468   1.598
   5  -3   0  9.9078  1.5126
  -5   3   0  12.776   2.110
  -5   3   0  9.6065  1.7249
   5  -3   0  7.6520  4.6976
   4  -3   0  267.09    8.28
   4  -3   0  274.27    9.23
   4  -3   0  274.01    8.27
  -4   3   0  275.56    7.47
  -4   3   0  276.91   10.86
  -4   3   0  266.85   10.87
   4  -3   0  316.15   18.31
   4  -3   0  287.87   18.39
  -4   3   0  285.37   22.94
   3  -3   0  632.30   33.82
   3  -3   0  615.14   26.22
   3  -3   0  613.81   19.14
  -3   3   0  590.80   15.42
  -3   3   0  642.36   20.14
   3  -3   0  656.79   35.40
   3  -3   0  669.30   44.05
  -3   3   0  662.49   38.56
   2  -3   0  576.53   32.60
   2  -3   0  566.09   32.80
   2  -3   0  570.63   27.13
   2  -3   0  567.17   31.87
  -2   3   0  587.85   22.27
  -2   3   0  558.11   13.95
  -2   3   0  602.68   13.72
  -2   3   0  549.53   26.45
  -2   3   0  594.55   13.47
   2  -3   0  591.81   24.27
   2  -3   0  610.45   32.26
  -2   3   0  564.21   27.32
  -2   3   0  634.24   25.28
   1  -3   0  92.428   5.455
   1  -3   0  85.663   3.480
   1  -3   0  94.753   3.973
   1  -3   0  87.356   2.160
  -1   3   0  94.700   5.686
  -1   3   0  99.929   3.602
  -1   3   0  95.676   4.315
  -1   3   0  91.888   4.666
  -1   3   0  94.343   5.282
  -1   3   0  89.737   3.028
   1  -3   0  90.465   4.287
   1  -3   0  99.756   4.492
  -1   3   0  85.722   3.900
  -1   3   0  95.872   6.303
   0  -3   0  23.005   1.262
   0  -3   0  24.124   0.961
   0  -3   0  23.328   0.997
   0   3   0  24.653   0.852
   0   3   0  22.759   1.213
   0   3   0  24.400   1.581
   0   3   0  23.669   1.189
   0   3   0  24.536   1.059
   0   3   0  22.641   1.010
   0   3   0  24.919   1.576
   0  -3   0  24.275   1.341
   0  -3   0  23.037   1.518
   0   3   0  20.961   1.782
   0   3   0  23.028   1.428
  -1  -3   0  448.98   17.48
  -1  -3   0  515.79   27.65
  -1  -3   0  486.80   18.26
  -1  -3   0  519.43   26.37
   1   3   0  520.74   17.70
   1   3   0  506.05   15.64
   1   3   0  493.62   22.43
   1   3   0  486.59   21.11
   1   3   0  520.50   22.21
  -1  -3   0  484.51   26.02
  -1  -3   0  507.42   26.07
   1   3   0  519.84   16.90
   1   3   0  523.23   29.18
  -2  -3   0  449.53   24.33
  -2  -3   0  445.03   22.84
  -2  -3   0  417.36   22.58
   2   3   0  432.23   18.72
   2   3   0  450.32   16.49
   2   3   0  426.91   39.61
   2   3   0  437.72   18.70
   2   3   0  452.22   15.09
  -2  -3   0  412.48   23.66
  -2  -3   0  436.78   25.01
   2   3   0  455.68   22.89
   2   3   0  453.16   36.41
  -3  -3   0  287.20   17.98
  -3  -3   0  303.05   14.09
  -3  -3   0  265.96   13.82
  -3  -3   0  295.91   22.44
   3   3   0  281.81   28.75
   3   3   0  264.85   21.10
   3   3   0  259.32   10.45
   3   3   0  262.52   10.73
   3   3   0  274.53    9.76
  -3  -3   0  279.73   15.42
  -3  -3   0  282.77   14.96
   3   3   0  271.34   16.73
   3   3   0  241.82   15.08
  -4  -3   0  6.1736  1.0925
  -4  -3   0  8.2318  0.8160
  -4  -3   0  4.9065  0.9601
   4   3   0  6.6715  0.6247
   4   3   0  4.7212  0.9727
   4   3   0  5.0856  0.6879
   4   3   0  6.5694  0.4953
  -4  -3   0  5.6778  5.1567
  -4  -3   0  7.8247  5.8108
   4   3   0  2.3329  3.9752
  -5  -3   0  4.7950  0.7485
  -5  -3   0  5.4037  1.4293
  -5  -3   0  4.5809  1.0573
  -5  -3   0  5.2502  1.7662
   5   3   0  4.0864  0.5968
   5   3   0  4.7080  1.4409
  -5  -3   0  1.9059  9.8961
  -5  -3   0  7.3127  7.8665
   5   3   0  -1.099   4.171
  -6  -3   0  54.468   4.008
  -6  -3   0  53.410   2.611
  -6  -3   0  60.424   4.050
   6   3   0  61.153   3.938
   6   3   0  52.696   3.299
  -6  -3   0  25.156  10.095
  -7  -3   0  104.53    5.58
  -7  -3   0  118.17    8.45
  -7  -3   0  111.67    5.57
   7   3   0  112.64    5.91
   7   3   0  121.59    5.51
   7   3   0  123.05    6.84
  -7  -3   0  75.663  17.261
  -7   4   0  8.5396  2.3687
  -7   4   0  6.6313  2.9398
   7  -4   0  11.443  13.468
   6  -4   0  1.3301  1.2399
   6  -4   0  1.4136  0.8571
   6  -4   0 -0.0755  1.0704
  -6   4   0  0.6509  1.8900
  -6   4   0  -2.982   2.455
   6  -4   0  6.6465  9.6893
   5  -4   0  20.655   2.009
   5  -4   0  18.681   1.710
   5  -4   0  23.092   2.481
  -5   4   0  21.348   2.322
  -5   4   0  22.270   2.242
   5  -4   0  16.974   6.606
   4  -4   0  13.376   1.077
   4  -4   0  13.998   1.289
   4  -4   0  15.501   1.337
  -4   4   0  17.225   1.767
  -4   4   0  12.968   1.598
   4  -4   0  20.671   6.447
   4  -4   0  4.4745  4.6060
   3  -4   0  62.169   2.472
   3  -4   0  67.006   3.217
   3  -4   0  64.365   2.318
  -3   4   0  63.806   3.492
  -3   4   0  67.466   3.646
   3  -4   0  64.140   6.057
   3  -4   0  60.383   5.976
  -3   4   0  59.141   6.839
   2  -4   0  208.67   10.30
   2  -4   0  213.04   10.21
   2  -4   0  215.45    9.07
   2  -4   0  218.80    9.11
  -2   4   0  224.50    8.76
  -2   4   0  218.83    7.59
  -2   4   0  208.21   12.33
  -2   4   0  219.31    6.26
   2  -4   0  227.39   12.80
   2  -4   0  225.28   14.29
  -2   4   0  237.42   12.31
   1  -4   0  2.5635  0.7023
   1  -4   0  3.3972  0.7444
   1  -4   0  3.9222  0.5807
   1  -4   0  2.1869  0.7916
  -1   4   0  3.0037  0.6678
  -1   4   0  1.7518  1.0303
  -1   4   0  2.4066  0.8147
  -1   4   0  2.2963  0.5034
  -1   4   0  3.2557  0.5835
  -1   4   0  2.9916  0.6442
   1  -4   0  4.2273  1.4579
   1  -4   0  3.3678  1.1499
  -1   4   0  0.1343  1.3323
  -1   4   0  2.6943  1.3472
   0  -4   0  54.053   1.819
   0  -4   0  49.535   2.442
   0   4   0  49.826   2.454
   0   4   0  48.181   2.551
   0   4   0  54.068   2.351
   0   4   0  49.564   2.060
   0   4   0  51.484   1.900
   0   4   0  48.978   1.839
   0   4   0  48.338   2.177
   0  -4   0  47.344   2.900
   0  -4   0  52.628   2.711
   0   4   0  48.473   2.448
   0   4   0  37.620   3.079
  -1  -4   0 1101.26   43.62
  -1  -4   0 1133.65   39.37
  -1  -4   0 1160.90   72.02
  -1  -4   0 1158.55   56.93
   1   4   0 1198.08   79.53
   1   4   0 1214.67   49.31
   1   4   0 1217.94   81.92
   1   4   0 1220.50   74.64
   1   4   0 1225.11   60.48
   1   4   0 1117.14   32.43
  -1  -4   0 1125.06   70.32
  -1  -4   0 1181.76   61.78
   1   4   0 1234.73   54.12
   1   4   0 1262.64   75.90
  -2  -4   0  157.30    6.73
  -2  -4   0  166.42   11.77
  -2  -4   0  171.79    7.85
   2   4   0  160.39    6.44
   2   4   0  156.89    5.03
   2   4   0  160.54    6.87
   2   4   0  164.97    6.96
   2   4   0  166.51    6.44
  -2  -4   0  160.65    8.81
  -2  -4   0  147.11    7.88
   2   4   0  147.37   10.17
   2   4   0  159.24    8.70
  -3  -4   0  56.969   2.801
  -3  -4   0  51.051   3.442
  -3  -4   0  49.863   3.316
   3   4   0  47.963   1.928
   3   4   0  48.269   2.169
   3   4   0  51.261   2.750
   3   4   0  45.951   3.705
  -3  -4   0  49.706   5.825
  -3  -4   0  45.231   5.362
   3   4   0  40.141   5.768
  -4  -4   0  94.823   4.631
  -4  -4   0  80.822   6.428
  -4  -4   0  80.256   7.855
   4   4   0  80.352   3.336
   4   4   0  82.255   3.530
   4   4   0  84.459   3.924
   4   4   0  69.950   7.415
  -4  -4   0  92.847   8.302
  -4  -4   0  71.063   7.746
   4   4   0  88.616   8.123
  -5  -4   0  3.5684  1.9136
  -5  -4   0  1.9707  0.8421
  -5  -4   0  4.6139  2.3263
   5   4   0  1.5423  1.3039
  -5  -4   0  7.2151  6.3931
  -5  -4   0  -2.521   4.738
  -6  -4   0 -0.4293  1.7798
  -6  -4   0  1.3451  1.2869
  -6  -4   0  -1.115   1.939
   6   4   0  0.9449  1.5405
   6   4   0  -2.339   1.375
  -6  -4   0  11.651  10.813
  -7  -4   0  44.506   4.180
  -7  -4   0  39.096   3.036
  -7  -4   0  39.393   2.646
   7   4   0  45.130   3.294
  -7  -4   0  29.973  14.155
   6  -5   0  3.9542  1.9318
  -6   5   0  4.1616  2.1343
  -6   5   0  1.0490  1.9690
   6  -5   0  9.7438  9.7665
   5  -5   0  16.991   1.834
   5  -5   0  14.018   1.876
   5  -5   0  15.190   1.825
  -5   5   0  13.879   2.590
  -5   5   0  16.492   1.756
   5  -5   0  17.124   5.362
   4  -5   0  39.285   2.828
   4  -5   0  37.365   2.471
   4  -5   0  39.353   2.228
  -4   5   0  39.196   2.745
  -4   5   0  37.716   2.573
   4  -5   0  38.070   8.959
   4  -5   0  26.643   5.519
   3  -5   0  501.62   21.57
   3  -5   0  521.16   26.67
   3  -5   0  496.49   12.67
  -3   5   0  501.35   31.79
  -3   5   0  489.51   19.11
  -3   5   0  494.80   33.07
  -3   5   0  489.19   32.75
   3  -5   0  584.04   36.88
   3  -5   0  550.53   38.39
  -3   5   0  544.76   28.88
   2  -5   0  96.024   4.536
   2  -5   0  96.404   5.622
   2  -5   0  89.681   5.064
  -2   5   0  93.788   4.275
  -2   5   0  96.789   3.540
  -2   5   0  95.838   4.723
  -2   5   0  88.173   5.100
  -2   5   0  95.094   4.466
   2  -5   0  108.57    7.92
   2  -5   0  101.13    6.94
  -2   5   0  92.603   6.759
   1  -5   0  789.75   53.72
   1  -5   0  781.10   29.16
   1  -5   0  806.15   30.68
  -1   5   0  815.57   35.24
  -1   5   0  782.42   25.08
  -1   5   0  822.27   29.70
  -1   5   0  848.46   41.58
  -1   5   0  774.48   20.50
  -1   5   0  828.26   41.27
   1  -5   0  866.20   53.11
   1  -5   0  861.48   40.33
  -1   5   0  865.55   43.05
   0  -5   0  127.36    3.64
   0  -5   0  124.85    3.96
   0   5   0  124.33    6.26
   0   5   0  125.24    5.61
   0   5   0  130.84    6.73
   0   5   0  123.35    4.23
   0   5   0  123.36    6.22
   0   5   0  121.70    4.99
   0   5   0  128.26    5.34
   0   5   0  119.68    5.18
  -1  -5   0  291.42   15.77
  -1  -5   0  260.72    9.93
  -1  -5   0  290.56   15.49
  -1  -5   0  286.09   12.26
   1   5   0  290.05   12.28
   1   5   0  295.10    8.17
   1   5   0  277.21   15.44
   1   5   0  298.26   21.94
   1   5   0  263.88   10.97
   1   5   0  279.56   23.32
   1   5   0  306.02    7.48
  -1  -5   0  299.37   19.33
  -1  -5   0  290.13   15.14
   1   5   0  290.16   22.42
   1   5   0  295.75   20.15
  -2  -5   0  43.220   2.881
  -2  -5   0  50.247   2.882
  -2  -5   0  46.541   2.917
   2   5   0  46.228   2.207
   2   5   0  46.244   3.240
   2   5   0  48.449   1.812
   2   5   0  49.235   2.599
  -2  -5   0  41.124   4.443
  -2  -5   0  35.691   4.384
   2   5   0  37.168   4.741
  -3  -5   0  -1.476   1.096
  -3  -5   0 -0.3493  0.7435
   3   5   0  0.7458  0.8006
   3   5   0  0.1318  0.4133
   3   5   0  0.4733  0.6473
   3   5   0  0.3460  0.2617
  -3  -5   0  -3.935   3.746
  -3  -5   0  1.7089  4.0200
   3   5   0  2.2475  4.4336
  -4  -5   0  86.307   3.929
  -4  -5   0  88.560   4.954
   4   5   0  85.184   3.701
   4   5   0  64.559   6.096
  -4  -5   0  98.150  10.368
  -4  -5   0  79.062   8.295
   4   5   0  70.665  10.020
  -5  -5   0  1.0490  1.6172
  -5  -5   0  0.6522  0.8495
  -5  -5   0  0.7118  1.4704
   5   5   0  1.4304  0.8330
  -5  -5   0  5.9043  7.5819
  -6  -5   0  14.168   2.075
  -6  -5   0  10.376   1.992
  -6  -5   0  11.652   2.406
   6   5   0  10.698   1.643
   6   5   0  12.420   2.512
  -6  -5   0  -17.70    9.76
  -7  -5   0  4.5262  2.4299
  -7  -5   0  9.9820  2.2522
   7   5   0  9.3100  2.8034
   7   5   0  5.7294  1.7984
  -7  -5   0 -0.6095  9.9318
  -6   6   0  2.4025  2.5871
   6  -6   0  -8.569   9.214
   5  -6   0  4.2047  1.6696
   5  -6   0  2.4204  1.4376
   5  -6   0  1.5490  0.9560
  -5   6   0  1.3843  2.4105
   5  -6   0  -3.521   5.665
   4  -6   0  -1.664   1.153
   4  -6   0  0.2144  1.1088
   4  -6   0  0.4560  1.1252
  -4   6   0  -1.186   1.466
   4  -6   0  -2.450   3.278
   3  -6   0  1.1212  1.2673
   3  -6   0  1.9783  1.1979
   3  -6   0  1.5704  1.0222
  -3   6   0  1.3614  1.1914
   3  -6   0  2.3905  4.2405
   3  -6   0 -0.4367  3.0459
   2  -6   0  89.190   3.788
   2  -6   0  89.657   3.784
   2  -6   0  92.340   3.577
  -2   6   0  85.927   2.737
  -2   6   0  84.573   5.871
  -2   6   0  86.923   3.159
  -2   6   0  87.383   5.061
   2  -6   0  107.33    8.21
   2  -6   0  106.04    7.12
   1  -6   0  219.59   11.58
  -1   6   0  211.26    5.65
  -1   6   0  220.03   13.41
  -1   6   0  220.44    8.54
  -1   6   0  212.26   12.58
  -1   6   0  213.77    8.62
   0  -6   0  623.78   49.69
   0  -6   0  597.14   21.97
   0   6   0  606.90   24.32
   0   6   0  610.16   18.46
   0   6   0  596.94   32.66
   0   6   0  610.44   35.90
  -1  -6   0 1067.89   52.03
  -1  -6   0 1046.60   34.75
  -1  -6   0 1052.66   37.34
   1   6   0 1102.29   86.74
   1   6   0 1026.62   51.64
   1   6   0 1085.94   68.39
   1   6   0 1021.76   31.64
  -1  -6   0 1131.72   44.14
  -1  -6   0 1104.05   87.82
   1   6   0 1119.09   66.09
  -2  -6   0  314.42   13.88
  -2  -6   0  308.99   14.22
   2   6   0  300.23    8.55
   2   6   0  324.85   16.18
   2   6   0  319.55   17.73
   2   6   0  325.29   11.43
  -2  -6   0  320.39   15.59
  -2  -6   0  313.40   15.40
   2   6   0  345.85   18.72
  -3  -6   0  81.052   3.967
  -3  -6   0  76.554   3.658
   3   6   0  76.321   3.894
   3   6   0  63.035   4.744
   3   6   0  71.772   5.300
   3   6   0  69.141   3.178
   3   6   0  70.636   4.313
  -3  -6   0  79.499   8.348
  -3  -6   0  76.668   7.700
   3   6   0  56.678   8.113
  -4  -6   0  1.3498  1.1500
  -4  -6   0  1.1635  1.0353
   4   6   0 -0.6996  0.9989
  -4  -6   0  -7.216   5.742
  -4  -6   0  5.9334  6.6233
  -5  -6   0  59.222   3.921
  -5  -6   0  60.520   4.688
   5   6   0  56.060   4.261
  -5  -6   0  49.169  10.646
  -6  -6   0  36.206   3.190
  -6  -6   0  31.978   4.234
   6   6   0  39.490   3.277
   6   6   0  38.935   3.516
  -6  -6   0  27.960   9.743
  -7  -6   0  1.2038  2.7050
  -7  -6   0 -0.8375  2.8190
   7   6   0  -1.431   1.681
   7   6   0  3.8607  1.8495
  -7  -6   0  15.414  16.911
  -5   7   0  187.38   12.87
   5  -7   0  223.65   21.52
   4  -7   0  124.45   10.96
   4  -7   0  121.97   10.89
  -4   7   0  117.89    6.59
   4  -7   0  138.82   13.73
   3  -7   0  0.4697  1.3569
   3  -7   0  1.5926  1.0924
  -3   7   0  1.5266  1.9865
   3  -7   0  1.9987  3.8431
   3  -7   0  0.3551  3.9144
   2  -7   0  16.120   1.558
   2  -7   0  14.981   1.797
  -2   7   0  17.545   1.495
  -2   7   0  14.060   1.351
  -2   7   0  17.187   1.593
   2  -7   0  14.314   2.007
   2  -7   0  16.279   2.435
   1  -7   0  109.51    5.49
  -1   7   0  115.22    5.11
  -1   7   0  116.95    4.55
  -1   7   0  102.08    6.64
   0  -7   0  3.3815  0.8369
   0  -7   0  3.2876  1.1116
   0   7   0  4.4121  1.3887
   0   7   0  5.1686  1.3632
   0   7   0  3.6638  1.1166
  -1  -7   0  124.74    6.36
  -1  -7   0  140.29    6.70
   1   7   0  132.39    7.25
   1   7   0  131.32    5.19
  -2  -7   0  102.96    4.34
  -2  -7   0  104.83    5.70
   2   7   0  94.734   6.814
   2   7   0  104.70    4.87
   2   7   0  92.095   6.971
   2   7   0  96.137   4.883
  -2  -7   0  95.040   6.341
  -2  -7   0  107.07    7.88
  -3  -7   0  0.6183  0.9524
  -3  -7   0  1.5779  0.8750
   3   7   0  0.1229  1.0842
   3   7   0 -0.7174  0.5208
  -3  -7   0  -1.574   3.999
  -3  -7   0  1.9930  3.8596
  -4  -7   0  2.5593  1.2743
  -4  -7   0  2.4751  1.2793
   4   7   0  3.4455  1.2481
  -4  -7   0  10.299   6.276
  -5  -7   0  0.9884  1.5957
  -5  -7   0  0.4200  2.0736
   5   7   0  1.1033  1.6857
   5   7   0  0.3292  0.8446
  -5  -7   0  -1.537   8.654
  -6  -7   0  1.4386  1.8676
  -6  -7   0  -2.077   2.252
   6   7   0  2.7588  2.0744
   6   7   0  0.9355  2.5506
  -6  -7   0   2.966  10.403
   4  -8   0  59.766   4.064
   4  -8   0  51.597   4.308
  -4   8   0  41.457   4.413
   4  -8   0  55.780   7.703
   3  -8   0 -0.8115  1.2072
   3  -8   0 -0.3506  1.7008
  -3   8   0  4.3084  2.3011
   3  -8   0  0.9538  2.8154
   3  -8   0  0.4303  3.1203
   2  -8   0  6.4259  1.8845
  -2   8   0  4.7470  1.5200
  -2   8   0  3.2387  1.6396
   1  -8   0  16.418   2.427
  -1   8   0  13.713   2.149
  -1   8   0  12.092   1.509
  -1   8   0  13.136   1.566
   0  -8   0  0.5217  1.5207
   0  -8   0 -0.5270  0.8720
   0   8   0  1.5034  1.3285
   0   8   0  0.0715  1.0116
   0   8   0  0.9403  1.1087
  -1  -8   0  3.3200  1.9471
  -1  -8   0  0.3389  0.8658
   1   8   0  1.2845  1.4485
   1   8   0  2.2692  1.5827
   1   8   0  1.8672  0.9075
  -2  -8   0  60.041   3.915
  -2  -8   0  64.697   4.017
   2   8   0  67.389   3.468
   2   8   0  64.421   3.210
  -2  -8   0  67.454   6.081
  -2  -8   0  62.548   6.048
  -3  -8   0  17.235   2.167
  -3  -8   0  17.718   1.677
   3   8   0  14.739   1.654
  -3  -8   0  27.587   5.146
  -3  -8   0  16.323   5.560
  -4  -8   0  168.09    8.32
  -4  -8   0  170.01    7.11
   4   8   0  166.85    8.40
   4   8   0  189.52   11.21
  -4  -8   0  188.10   14.46
  -5  -8   0  342.81   19.19
  -5  -8   0  354.57   17.74
   5   8   0  356.78   18.69
   5   8   0  375.77   21.20
  -5  -8   0  365.99   33.38
  -6  -8   0  61.742   5.565
  -6  -8   0  61.953   5.699
   6   8   0  76.429   6.821
   6   8   0  61.958   4.858
  -6  -8   0  58.420  16.509
   3  -9   0  66.385   5.839
  -3   9   0  64.864   5.229
  -3   9   0  60.539   5.999
   2  -9   0  179.67   13.49
  -2   9   0  179.76   10.26
  -2   9   0  179.45   12.16
   1  -9   0  254.07   19.11
  -1   9   0  247.27   14.01
  -1   9   0  259.83   13.69
  -1   9   0  242.78    8.76
   0  -9   0  148.12    9.15
   0   9   0  145.89    7.47
   0   9   0  147.47    7.17
   0   9   0  161.18    9.31
  -1  -9   0  237.82   15.48
   1   9   0  232.41   13.58
   1   9   0  240.64   16.17
   2   9   0  8.4823  2.0302
   2   9   0  8.9158  2.3643
  -3  -9   0  2.9511  1.4247
  -3  -9   0  2.0477  1.2104
   3   9   0  3.1297  1.8955
   3   9   0  0.5335  1.5123
  -3  -9   0 -0.1611  5.1545
  -3  -9   0 -0.4484  4.6096
  -4  -9   0  11.827   1.723
  -4  -9   0  10.004   2.084
   4   9   0  11.892   3.304
   4   9   0  14.350   2.312
  -4  -9   0  14.986   7.119
  -5  -9   0  22.380   2.707
  -5  -9   0  23.947   3.282
   5   9   0  23.341   3.417
   5   9   0  24.145   3.002
  -5  -9   0  32.536  11.570
   2 -10   0  18.170   3.595
  -2  10   0  22.772   3.678
  -2  10   0  24.619   2.641
   1 -10   0  40.517   3.627
  -1  10   0  42.236   3.956
   0 -10   0  82.565   6.301
   0  10   0  75.234   5.412
   0  10   0  68.529   5.615
  -1 -10   0  23.482   3.029
   1  10   0  17.285   2.334
   1  10   0  21.448   2.883
  -2 -10   0  64.177   5.348
   2  10   0  61.938   5.603
   2  10   0  72.304   5.803
  -3 -10   0  221.26   17.04
  -3 -10   0  240.18   19.46
   3  10   0  236.50   20.02
   3  10   0  241.07   13.50
  -3 -10   0  249.00   17.15
  -3 -10   0  252.47   17.94
   3  10  -1  2.2094  2.5064
   3  10  -1  -2.205   2.290
  -3 -10   1  -2.751   2.123
  -3 -10   1 -0.0965  2.1930
  -3 -10   1  3.2133  4.7295
   2  10  -1  9.4573  2.2130
   2  10  -1  8.9669  3.0599
  -2 -10   1  11.308   2.285
   1  10  -1  -3.129   2.345
   1  10  -1  -1.039   1.970
   0  10  -1  18.984   3.066
   0  10  -1  15.867   2.523
   0 -10   1  15.758   3.397
  -1  10  -1  3.1861  2.1551
   1 -10   1  -1.641   1.826
   5   9  -1  20.167   2.932
   5   9  -1  21.258   3.122
  -5  -9   1  20.509   3.343
  -5  -9   1  13.292   8.599
   4   9  -1  41.287   3.406
   4   9  -1  42.388   4.558
  -4  -9   1  39.993   3.467
  -4  -9   1  43.453   3.176
  -4  -9   1  43.479   9.295
   3   9  -1  -1.922   1.770
  -3  -9   1  0.7443  1.5702
  -3  -9   1  0.0885  1.7001
  -3  -9   1 -0.3455  5.8712
   2   9  -1  65.797   4.140
   2   9  -1  63.022   4.160
  -2  -9   1  63.671   5.291
  -2  -9   1  76.166   5.771
  -2  -9   1  69.991   4.694
   1   9  -1  21.446   2.895
   1   9  -1  22.591   2.264
  -1  -9   1  13.771   2.797
  -1  -9   1  20.214   2.015
   0   9  -1  31.272   2.345
   0   9  -1  25.365   2.668
   0  -9   1  28.811   3.725
  -1   9  -1  2.6873  1.6550
  -1   9  -1  2.7252  1.8000
  -1   9  -1  3.5123  1.0633
   1  -9   1  6.0122  1.5837
  -2   9  -1  7.8957  1.6414
  -2   9  -1  7.0711  2.2920
   2  -9   1  7.7865  2.4519
  -3   9  -1  57.107   4.880
  -3   9  -1  59.714   5.998
   3  -9   1  67.300   7.376
   5   8  -1  0.6551  1.7838
  -5  -8   1  1.5693  2.1192
  -5  -8   1 -0.1352  2.4868
  -5  -8   1   8.910  10.415
   4   8  -1  0.0377  1.6764
  -4  -8   1  0.0191  1.3385
  -4  -8   1  0.0409  1.7705
  -4  -8   1  -2.691   5.834
   3   8  -1  197.10    9.45
  -3  -8   1  178.59    6.69
  -3  -8   1  186.20    8.18
  -3  -8   1  194.12   12.92
  -3  -8   1  214.42   13.59
   2   8  -1  220.40   10.39
  -2  -8   1  231.01   14.47
  -2  -8   1  221.16   12.67
  -2  -8   1  246.81   13.37
  -2  -8   1  247.37   22.89
   1   8  -1  101.28    5.38
   1   8  -1  98.029   4.983
  -1  -8   1  105.11    8.74
  -1  -8   1  100.90    5.18
   0   8  -1  59.154   3.968
   0   8  -1  56.887   3.429
   0   8  -1  60.005   3.811
   0  -8   1  58.804   2.648
   0  -8   1  57.388   3.492
  -1   8  -1  5.1356  1.2815
  -1   8  -1  5.1876  1.5363
  -1   8  -1  5.9553  1.5699
   1  -8   1  7.0802  1.5656
  -2   8  -1  160.39   11.51
  -2   8  -1  165.64    7.48
   2  -8   1  166.71   10.97
  -3   8  -1  2.7099  1.6968
  -3   8  -1  2.2423  1.9974
   3  -8   1  4.1118  1.4381
   3  -8   1  2.2870  1.2816
   3  -8   1  1.1667  3.9954
   3  -8   1  4.5810  3.4307
  -4   8  -1  4.3154  1.7701
   4  -8   1  1.1357  2.0711
   4  -8   1  3.2853  2.0335
   4  -8   1  0.6825  5.8324
   6   7  -1  27.961   3.635
   6   7  -1  32.745   3.317
  -6  -7   1  26.501   3.753
  -6  -7   1  27.981   3.563
  -6  -7   1  21.081  13.847
   5   7  -1  100.27    5.74
  -5  -7   1  95.834   7.083
  -5  -7   1  99.916   6.918
  -5  -7   1  120.10   15.44
   4   7  -1  29.837   2.716
  -4  -7   1  38.022   2.333
  -4  -7   1  35.335   2.279
  -4  -7   1  25.282   7.451
   3   7  -1  14.664   1.148
   3   7  -1  19.496   1.632
  -3  -7   1  17.907   1.646
  -3  -7   1  19.056   1.759
  -3  -7   1  18.088   6.457
  -3  -7   1  17.862   5.768
   2   7  -1  123.89    8.27
   2   7  -1  128.24    5.52
   2   7  -1  123.59    8.30
  -2  -7   1  131.53    5.65
  -2  -7   1  135.65    7.17
  -2  -7   1  157.54   12.11
  -2  -7   1  149.27    9.66
   1   7  -1  14.963   1.639
   1   7  -1  13.703   1.372
  -1  -7   1  15.846   1.487
  -1  -7   1  17.293   2.112
  -1  -7   1  16.540   2.332
  -1  -7   1  16.202   2.610
   0   7  -1  96.264   3.379
   0   7  -1  97.443   4.475
   0   7  -1  77.576   5.664
   0  -7   1  95.651   4.838
   0  -7   1  98.115   7.768
  -1   7  -1  -1.009   1.085
  -1   7  -1  0.0844  0.9130
  -1   7  -1  0.8876  1.1846
   1  -7   1  1.1925  1.5990
  -2   7  -1  138.54    4.83
  -2   7  -1  131.63    6.62
  -2   7  -1  127.63    7.18
   2  -7   1  143.04    7.55
   2  -7   1  135.08    7.74
   2  -7   1  145.62   10.86
   2  -7   1  152.87   10.78
  -3   7  -1  45.919   3.261
   3  -7   1  48.183   3.560
   3  -7   1  41.920   3.235
   3  -7   1  40.428   5.120
   3  -7   1  57.016   8.478
  -4   7  -1  15.768   2.731
   4  -7   1  16.291   2.104
   4  -7   1  16.465   1.788
   4  -7   1  17.493   6.080
  -5   7  -1  0.8592  2.1959
   5  -7   1 -0.5958  1.5771
   5  -7   1 -0.8354  1.9717
   5  -7   1  -4.976   6.369
   7   6  -1  7.2827  3.1863
   7   6  -1  5.6519  2.4862
  -7  -6   1  7.7158  2.8265
  -7  -6   1  3.7759  3.1322
  -7  -6   1  10.984  13.658
   6   6  -1  4.3397  1.7056
  -6  -6   1  5.9658  2.3566
  -6  -6   1  5.4377  1.5834
  -6  -6   1   6.585  11.637
   5   6  -1  84.910   4.424
  -5  -6   1  77.100   4.638
  -5  -6   1  76.984   5.568
  -5  -6   1  72.936  12.130
   4   6  -1  12.011   1.117
  -4  -6   1  10.177   1.310
  -4  -6   1  11.948   1.530
  -4  -6   1  -2.654   5.955
  -4  -6   1  9.0303  5.9807
   3   6  -1  17.161   1.673
   3   6  -1  19.318   1.224
   3   6  -1  20.650   1.411
  -3  -6   1  21.127   2.032
  -3  -6   1  20.012   1.948
  -3  -6   1  17.349   5.143
  -3  -6   1  21.611   4.997
   2   6  -1  441.45   23.20
   2   6  -1  441.95   27.37
   2   6  -1  464.63   16.16
   2   6  -1  435.54   25.95
  -2  -6   1  425.55   20.27
  -2  -6   1  439.02   21.35
   2   6  -1  483.52   28.17
  -2  -6   1  463.84   25.01
  -2  -6   1  486.12   29.61
   1   6  -1  191.45    9.10
   1   6  -1  193.80    7.84
   1   6  -1  179.55    8.28
   1   6  -1  184.90    9.58
   1   6  -1  188.88    9.60
  -1  -6   1  200.06    7.49
  -1  -6   1  195.49    8.34
  -1  -6   1  194.05   13.57
   1   6  -1  181.86   15.81
  -1  -6   1  204.12   10.17
  -1  -6   1  197.57   11.07
   0   6  -1  79.399   2.939
   0   6  -1  78.407   4.540
   0   6  -1  73.437   3.917
   0   6  -1  75.304   5.337
   0  -6   1  79.695   4.177
   0  -6   1  79.529   3.010
   0  -6   1  80.844   4.191
   0  -6   1  74.361   4.097
  -1   6  -1  227.72   12.72
  -1   6  -1  220.44    9.04
  -1   6  -1  240.61   10.69
  -1   6  -1  218.92   12.06
   1  -6   1  227.08   14.55
   1  -6   1  227.56    7.31
  -1   6  -1  230.63   19.01
   1  -6   1  240.17   13.76
   1  -6   1  236.03   14.51
  -2   6  -1  235.26   17.17
  -2   6  -1  244.06    9.06
  -2   6  -1  232.22   10.46
  -2   6  -1  228.61   17.99
  -2   6  -1  223.01   16.22
   2  -6   1  245.25   13.37
   2  -6   1  237.89   11.17
  -2   6  -1  229.23   21.12
   2  -6   1  273.77   14.33
   2  -6   1  267.92   18.91
  -3   6  -1  37.598   2.591
   3  -6   1  41.623   2.367
   3  -6   1  36.121   2.267
   3  -6   1  41.754   5.253
   3  -6   1  39.882   5.923
  -4   6  -1  131.99    6.71
  -4   6  -1  129.05    5.33
   4  -6   1  135.24    7.18
   4  -6   1  139.99    5.09
   4  -6   1  146.21   11.65
  -5   6  -1  10.065   2.223
   5  -6   1  8.8315  1.3766
   5  -6   1  10.339   1.795
   5  -6   1  0.1398  4.8335
  -6   6  -1 -0.2627  1.9656
   6  -6   1  -13.39    9.48
   7   5  -1  11.114   2.180
   7   5  -1  11.718   2.713
  -7  -5   1  13.860   3.254
  -7  -5   1  4.5756  2.7919
  -7  -5   1  18.832  15.063
   6   5  -1  53.781   4.362
  -6  -5   1  48.511   3.576
  -6  -5   1  45.030   2.933
  -6  -5   1  19.383  11.716
   5   5  -1  51.925   2.358
  -5  -5   1  47.952   4.364
  -5  -5   1  51.560   3.105
  -5  -5   1  52.450   9.432
   4   5  -1  123.97    5.71
   4   5  -1  123.79    5.02
   4   5  -1  123.13    4.47
  -4  -5   1  118.97    6.69
  -4  -5   1  130.67    7.90
  -4  -5   1  122.62   10.09
  -4  -5   1  143.71   13.44
   3   5  -1  0.6704  0.4650
   3   5  -1  0.8655  0.3530
   3   5  -1  0.5441  0.6096
   3   5  -1  1.2727  0.5788
  -3  -5   1 -0.1344  1.1411
  -3  -5   1  0.5259  0.6739
   3   5  -1  1.5310  3.0015
  -3  -5   1  1.4484  4.0142
  -3  -5   1  3.4836  4.1499
   2   5  -1  9.0811  0.7809
   2   5  -1  6.7194  1.0788
   2   5  -1  7.4137  1.3663
   2   5  -1  7.2414  0.8244
  -2  -5   1  7.8125  0.8917
  -2  -5   1  7.0162  0.8620
   2   5  -1  3.0584  3.6931
  -2  -5   1  4.6450  2.1773
  -2  -5   1  5.5618  3.3542
   1   5  -1  10.561   1.345
   1   5  -1  11.899   1.062
   1   5  -1  14.410   1.253
   1   5  -1  13.713   1.037
   1   5  -1  12.909   1.478
  -1  -5   1  11.072   1.152
  -1  -5   1  14.247   1.225
  -1  -5   1  13.127   0.898
  -1  -5   1  11.772   1.024
  -1  -5   1  14.442   2.405
  -1  -5   1  11.125   2.337
   0   5  -1  118.23    5.92
   0   5  -1  112.21    3.78
   0   5  -1  111.31    5.18
   0   5  -1  110.95    7.51
   0   5  -1  109.27    4.17
   0   5  -1  111.60    6.17
   0   5  -1  112.92    3.90
   0  -5   1  113.64    4.03
   0  -5   1  115.41    4.73
   0   5  -1  110.88    8.06
   0   5  -1  106.37    9.08
   0  -5   1  122.72    7.38
   0  -5   1  116.78    6.74
  -1   5  -1  133.86    5.94
  -1   5  -1  133.05    5.50
  -1   5  -1  135.34    6.01
  -1   5  -1  133.40    6.71
  -1   5  -1  124.86    3.02
  -1   5  -1  122.28    4.04
   1  -5   1  133.97    6.79
   1  -5   1  123.22    4.68
   1  -5   1  124.81    6.68
  -1   5  -1  134.57    8.25
   1  -5   1  139.61    7.42
   1  -5   1  132.63    9.13
  -2   5  -1  307.71   12.00
  -2   5  -1  329.59    9.71
  -2   5  -1  339.13   19.46
  -2   5  -1  334.86   11.29
   2  -5   1  332.99   12.67
   2  -5   1  328.85   10.83
  -2   5  -1  333.03   20.31
   2  -5   1  373.83   18.76
   2  -5   1  361.98   16.12
  -3   5  -1  6.2059  1.2466
  -3   5  -1  5.6287  0.5565
  -3   5  -1  4.3440  0.7458
   3  -5   1  6.2251  1.1286
   3  -5   1  4.5727  1.2135
   3  -5   1  5.7738  1.2570
  -3   5  -1  3.4522  4.4805
   3  -5   1  12.090   4.669
   3  -5   1  -3.604   2.988
  -4   5  -1  140.89    5.22
  -4   5  -1  141.96    8.58
   4  -5   1  129.02    7.40
   4  -5   1  135.93    6.83
   4  -5   1  156.25   13.95
   4  -5   1  140.63    9.89
  -5   5  -1  127.21    6.98
  -5   5  -1  123.16    6.82
   5  -5   1  129.46    7.49
   5  -5   1  125.68    7.25
   5  -5   1  123.80   11.91
  -6   5  -1  53.275   4.624
   6  -5   1  53.797   4.853
   6  -5   1  50.548   5.075
   6  -5   1  54.610  12.765
   7   4  -1  23.618   2.866
   7   4  -1  20.243   2.672
  -7  -4   1  16.764   2.327
  -7  -4   1  15.547   2.808
  -7  -4   1   8.816  10.226
   6   4  -1  26.142   2.265
  -6  -4   1  21.191   2.637
  -6  -4   1  25.258   2.602
  -6  -4   1  26.983   3.645
  -6  -4   1  17.379   8.660
   5   4  -1  41.149   2.381
  -5  -4   1  41.974   2.510
  -5  -4   1  35.454   3.301
  -5  -4   1  39.402   3.142
  -5  -4   1  37.292   9.084
   4   4  -1  2.3108  0.7733
   4   4  -1  2.7960  0.4308
   4   4  -1  1.3589  0.9844
   4   4  -1  2.9080  0.4206
  -4  -4   1  2.6876  0.9476
  -4  -4   1  2.4940  1.0653
  -4  -4   1  4.1224  0.8317
   4   4  -1  0.8182  5.6977
  -4  -4   1  3.2650  4.4609
  -4  -4   1  -4.604   4.970
   3   4  -1  181.79   12.43
   3   4  -1  167.88   11.05
   3   4  -1  184.05    7.37
  -3  -4   1  187.48    7.33
  -3  -4   1  190.79   10.34
   3   4  -1  177.85   10.21
  -3  -4   1  196.90   12.71
  -3  -4   1  202.39   13.41
   2   4  -1 1631.43   74.86
   2   4  -1 1824.87  127.25
  -2  -4   1 1765.11  140.91
  -2  -4   1 1777.73   82.84
   2   4  -1 1919.69  173.58
   2   4  -1 1882.12  107.53
  -2  -4   1 1926.17  121.69
  -2  -4   1 1791.83   75.84
   1   4  -1  158.14    4.93
   1   4  -1  142.39    9.23
   1   4  -1  156.13    7.48
   1   4  -1  162.22    8.73
   1   4  -1  147.81    6.06
   1   4  -1  151.25    7.44
   1   4  -1  163.90    9.02
  -1  -4   1  156.22   13.25
  -1  -4   1  156.38    8.26
  -1  -4   1  160.48    9.16
  -1  -4   1  156.64    7.39
   1   4  -1  149.94   12.38
   1   4  -1  155.66   13.07
  -1  -4   1  153.78    8.35
   0   4  -1  451.06   22.53
   0   4  -1  449.78   16.32
   0   4  -1  444.72   16.95
   0   4  -1  465.46   22.97
   0   4  -1  468.12   28.44
   0   4  -1  415.17   14.55
   0   4  -1  421.78   22.69
   0  -4   1  451.07   13.27
   0  -4   1  443.57   15.23
   0  -4   1  435.61   23.64
   0   4  -1  461.36   23.21
   0   4  -1  446.32   41.48
   0  -4   1  446.43   22.61
   0  -4   1  457.64   29.39
  -1   4  -1  1.2318  0.5052
  -1   4  -1  2.9541  0.7704
  -1   4  -1  2.1964  0.5247
  -1   4  -1  1.8450  0.6879
  -1   4  -1  1.3582  0.5235
  -1   4  -1  1.7980  0.5783
   1  -4   1  2.7358  0.8664
   1  -4   1  1.8577  0.7335
   1  -4   1  2.4244  0.7661
  -1   4  -1  2.4181  1.6491
  -1   4  -1  0.9987  1.2553
   1  -4   1  2.8289  1.7081
   1  -4   1  1.8711  1.0512
  -2   4  -1  25.554   1.609
  -2   4  -1  27.138   1.559
  -2   4  -1  25.704   1.130
  -2   4  -1  27.462   1.331
  -2   4  -1  29.037   1.920
   2  -4   1  28.131   1.467
   2  -4   1  28.625   1.593
   2  -4   1  26.042   1.354
   2  -4   1  25.669   2.119
  -2   4  -1  19.135   3.684
   2  -4   1  29.646   3.010
   2  -4   1  23.656   3.383
  -3   4  -1  677.66   15.97
  -3   4  -1  741.32   34.60
   3  -4   1  678.45   19.33
   3  -4   1  707.07   21.45
   3  -4   1  686.65   19.07
  -3   4  -1  811.50   32.42
   3  -4   1  803.96   46.06
   3  -4   1  750.71   30.07
  -4   4  -1  830.27   46.82
  -4   4  -1  841.60   23.24
   4  -4   1  840.70   30.01
   4  -4   1  866.83   37.77
   4  -4   1  843.35   19.34
   4  -4   1  951.14   54.05
   4  -4   1  959.74   47.80
  -5   4  -1  7.0743  1.6237
  -5   4  -1  7.7946  2.7903
   5  -4   1  9.5594  1.7272
   5  -4   1  7.9228  1.2052
   5  -4   1  10.593   1.487
   5  -4   1  7.6667  4.5957
  -6   4  -1  120.59    6.46
  -6   4  -1  114.79    6.86
   6  -4   1  120.66   10.20
   6  -4   1  119.64    6.80
   6  -4   1  121.62   14.18
  -7   4  -1  23.987   3.314
   7  -4   1  18.920  15.332
   7   3  -1  79.001   5.389
   7   3  -1  78.301   5.332
  -7  -3   1  74.065   5.725
  -7  -3   1  69.386   4.180
  -7  -3   1  73.025   4.302
  -7  -3   1  59.493  14.479
   6   3  -1  25.216   2.113
  -6  -3   1  18.374   1.728
  -6  -3   1  21.230   2.092
  -6  -3   1  20.277   2.345
  -6  -3   1  8.1600  9.4215
   5   3  -1 1015.99   52.22
   5   3  -1 1025.17   32.51
   5   3  -1 1037.88   45.90
  -5  -3   1  999.48   73.92
  -5  -3   1 1040.26   49.30
   5   3  -1 1137.44   51.05
  -5  -3   1 1157.02   87.80
  -5  -3   1 1079.13   69.03
   4   3  -1  909.73   37.62
   4   3  -1  883.73   56.92
   4   3  -1  901.81   35.80
   4   3  -1  906.41   27.40
  -4  -3   1  964.32   54.73
  -4  -3   1  968.40   42.46
   4   3  -1 1006.13   62.35
  -4  -3   1  950.80   39.07
  -4  -3   1 1009.61   52.11
   3   3  -1  369.60   18.89
   3   3  -1  392.82   33.97
   3   3  -1  370.95   17.82
   3   3  -1  349.02   30.16
   3   3  -1  365.54   17.56
   3   3  -1  359.87   12.09
  -3  -3   1  373.65   25.11
  -3  -3   1  400.87   20.65
  -3  -3   1  388.64   30.34
  -3  -3   1  348.49   24.07
   3   3  -1  392.65   39.71
   3   3  -1  385.64   17.03
  -3  -3   1  360.70   15.33
  -3  -3   1  390.33   18.76
   2   3  -1  34.317   1.542
   2   3  -1  34.774   1.563
   2   3  -1  32.679   1.607
   2   3  -1  31.283   1.870
   2   3  -1  32.000   1.886
  -2  -3   1  33.614   1.714
  -2  -3   1  36.226   2.330
  -2  -3   1  38.103   1.811
   2   3  -1  26.860   3.499
   2   3  -1  28.365   3.877
  -2  -3   1  38.935   4.637
  -2  -3   1  31.477   4.367
   1   3  -1  223.66   15.97
   1   3  -1  205.41    9.30
   1   3  -1  222.67   10.10
   1   3  -1  220.07    8.40
   1   3  -1  217.15   10.56
  -1  -3   1  217.27   15.25
  -1  -3   1  215.37   11.62
  -1  -3   1  209.71    8.16
  -1  -3   1  224.56   12.17
   1   3  -1  228.61   14.94
   1   3  -1  219.45   16.61
  -1  -3   1  195.03   14.53
  -1  -3   1  225.36   11.98
   0   3  -1  51.367   2.901
   0   3  -1  51.080   3.701
   0   3  -1  47.182   2.125
   0   3  -1  49.888   2.572
   0   3  -1  51.333   1.999
   0   3  -1  49.511   2.098
   0   3  -1  49.963   2.818
   0  -3   1  52.357   2.685
   0  -3   1  50.227   2.497
   0  -3   1  50.494   2.051
   0  -3   1  50.366   2.096
   0  -3   1  51.212   2.385
   0   3  -1  52.107   4.662
   0   3  -1  47.942   3.116
   0  -3   1  51.064   3.343
   0  -3   1  48.073   2.495
  -1   3  -1  87.881   3.995
  -1   3  -1  85.469   3.394
  -1   3  -1  83.651   5.410
  -1   3  -1  88.284   5.826
  -1   3  -1  84.650   4.114
   1  -3   1  75.930   4.272
   1  -3   1  94.584   3.146
   1  -3   1  88.891   5.854
   1  -3   1  86.862   4.446
  -1   3  -1  84.464   5.985
  -1   3  -1  88.639   5.658
   1  -3   1  87.418   5.016
   1  -3   1  81.753   4.900
  -2   3  -1  193.37    6.96
  -2   3  -1  182.87   13.55
  -2   3  -1  189.81    7.87
  -2   3  -1  191.54    9.34
  -2   3  -1  196.19    8.11
  -2   3  -1  199.95    6.41
   2  -3   1  187.54    8.43
   2  -3   1  189.54    5.01
   2  -3   1  189.99   10.86
   2  -3   1  190.70   10.40
  -2   3  -1  190.16    9.17
  -2   3  -1  172.87    7.99
   2  -3   1  194.61   10.82
   2  -3   1  199.22    9.85
  -3   3  -1  8.3104  0.8314
  -3   3  -1  7.8337  1.1091
  -3   3  -1  7.3410  0.8854
   3  -3   1  5.7528  1.2096
   3  -3   1  7.9728  0.7611
   3  -3   1  7.0936  0.8891
  -3   3  -1  4.7306  4.2034
   3  -3   1  5.8900  3.1939
   3  -3   1  3.8457  3.6717
  -4   3  -1  315.68   12.16
  -4   3  -1  317.86    6.43
   4  -3   1  309.55   11.43
   4  -3   1  312.19   11.70
   4  -3   1  313.45    7.31
  -4   3  -1  315.61   20.96
   4  -3   1  335.08   23.02
   4  -3   1  344.98   22.46
  -5   3  -1  156.62    7.77
  -5   3  -1  155.80    8.05
   5  -3   1  154.21    8.12
   5  -3   1  150.94    5.56
   5  -3   1  153.52    6.76
   5  -3   1  165.94   13.74
  -6   3  -1  145.04   12.46
  -6   3  -1  124.94    5.84
   6  -3   1  145.58    7.98
   6  -3   1  133.76    8.17
   6  -3   1  135.15    7.35
   6  -3   1  164.80   12.72
  -7   3  -1  186.82    9.59
  -7   3  -1  223.26   14.38
   7  -3   1  212.76   14.94
   7  -3   1  217.17   11.18
   7  -3   1  228.85   23.36
   8   2  -1  3.6269  1.9490
   8   2  -1  9.8112  3.2346
  -8  -2   1  6.0129  2.5201
  -8  -2   1  6.3311  2.4756
   7   2  -1  111.94    5.86
   7   2  -1  109.14    5.83
  -7  -2   1  93.195   8.916
  -7  -2   1  109.50    5.85
   6   2  -1  1.8892  0.8823
   6   2  -1  1.5809  0.9823
  -6  -2   1  1.3655  1.2755
  -6  -2   1 -0.1407  1.7231
   6   2  -1  1.7436  6.2750
  -6  -2   1  -3.476   6.621
   5   2  -1  0.6651  0.9977
   5   2  -1  0.9941  0.5375
   5   2  -1  0.7258  0.6308
  -5  -2   1 -0.3926  1.5079
  -5  -2   1 -0.8602  1.0480
  -5  -2   1 -0.3670  0.6092
   5   2  -1  -6.608   3.938
  -5  -2   1 -0.1026  6.5026
  -5  -2   1  -7.425   7.886
   4   2  -1  269.25   10.26
   4   2  -1  266.44    8.90
   4   2  -1  288.05   25.89
   4   2  -1  268.33    7.25
  -4  -2   1  285.27   20.65
  -4  -2   1  283.77   22.46
  -4  -2   1  295.03   14.20
   4   2  -1  298.82   22.92
   4   2  -1  301.82   15.61
  -4  -2   1  293.71   21.76
  -4  -2   1  301.12   13.50
   3   2  -1  7.8103  0.5597
   3   2  -1  8.2054  0.7601
   3   2  -1  7.5973  0.8288
   3   2  -1  8.2357  0.6042
   3   2  -1  9.9712  0.9465
  -3  -2   1  8.0942  0.9406
  -3  -2   1  9.0947  0.9034
  -3  -2   1  8.5099  0.8069
   3   2  -1  2.5484  3.4153
   3   2  -1  4.7433  2.9653
  -3  -2   1  3.3446  4.0261
  -3  -2   1  8.4583  2.5250
   2   2  -1  479.72   24.62
   2   2  -1  518.98   23.11
   2   2  -1  497.66   14.59
   2   2  -1  492.51   23.94
   2   2  -1  489.15   20.84
  -2  -2   1  468.82   25.69
  -2  -2   1  518.53   50.84
  -2  -2   1  531.04   27.06
   2   2  -1  505.92   22.13
   2   2  -1  451.63   23.90
  -2  -2   1  494.58   28.00
  -2  -2   1  474.87   25.26
   1   2  -1 3390.64  439.98
   0   2  -1  14.264   0.920
   0   2  -1  14.177   0.661
   0   2  -1  14.084   0.586
   0   2  -1  15.611   0.696
   0   2  -1  16.936   1.223
   0   2  -1  15.099   0.671
   0   2  -1  15.069   1.296
   0  -2   1  15.046   0.630
   0  -2   1  14.279   0.688
   0  -2   1  13.533   0.701
   0  -2   1  15.267   0.907
   0  -2   1  16.548   0.802
   0   2  -1  14.192   1.259
   0   2  -1  14.619   1.270
   0  -2   1  15.031   1.261
   0  -2   1  13.205   1.288
  -1   2  -1  5.1449  0.4818
  -1   2  -1  5.7668  0.6550
  -1   2  -1  5.2268  0.6025
  -1   2  -1  5.2161  0.6465
   1  -2   1  4.2125  0.5675
   1  -2   1  4.0480  0.6394
   1  -2   1  4.2097  0.6230
   1  -2   1  4.6740  0.8035
  -1   2  -1  3.0316  1.3748
  -1   2  -1  4.5920  1.3586
   1  -2   1  2.4980  1.2121
   1  -2   1  3.1210  1.2986
  -2   2  -1  452.13   18.45
  -2   2  -1  526.33   32.00
  -2   2  -1  511.18   19.53
  -2   2  -1  474.00   16.08
  -2   2  -1  450.59   17.36
  -2   2  -1  525.91   20.49
   2  -2   1  494.28   23.21
   2  -2   1  477.64   13.53
   2  -2   1  457.83   23.77
   2  -2   1  468.59   19.73
  -2   2  -1  475.13   28.08
  -2   2  -1  529.77   17.28
   2  -2   1  496.35   24.79
   2  -2   1  512.87   17.89
  -3   2  -1  54.612   3.363
  -3   2  -1  53.537   2.020
  -3   2  -1  54.273   1.937
  -3   2  -1  54.886   2.261
  -3   2  -1  50.039   1.926
  -3   2  -1  52.879   2.947
   3  -2   1  50.926   2.182
   3  -2   1  53.593   2.160
   3  -2   1  56.771   2.203
  -3   2  -1  47.665   5.536
  -3   2  -1  52.370   5.292
   3  -2   1  44.712   5.005
   3  -2   1  55.790   4.646
  -4   2  -1  4.9649  0.7635
  -4   2  -1  7.4610  1.5517
   4  -2   1  4.6426  0.9003
   4  -2   1  6.0440  1.1074
  -4   2  -1  0.2436  5.1439
   4  -2   1  -1.622   3.052
   4  -2   1  7.6147  6.1902
  -5   2  -1  866.04   41.87
  -5   2  -1  837.43   65.86
   5  -2   1  817.86   23.79
   5  -2   1  852.79   31.41
   5  -2   1  966.90   52.51
   5  -2   1  939.08   49.11
  -6   2  -1  8.6658  1.7748
  -6   2  -1  5.5453  1.8953
   6  -2   1  7.8905  1.5575
   6  -2   1  5.9642  1.2464
   6  -2   1 -0.3386  5.6058
  -7   2  -1  4.7108  2.4789
  -7   2  -1  2.0231  2.0335
   7  -2   1  4.2438  1.3761
   7  -2   1   7.651  12.323
   8   1  -1 -0.3971  1.4996
  -8  -1   1  0.7063  2.0938
  -8  -1   1  -1.198   3.383
   7   1  -1  287.83   10.16
   7   1  -1  280.86   13.53
  -7  -1   1  251.33   22.97
  -7  -1   1  276.26   10.61
   6   1  -1  498.29   27.75
   6   1  -1  509.81   31.70
   6   1  -1  511.50   22.58
   6   1  -1  526.07   18.05
  -6  -1   1  510.25   20.64
  -6  -1   1  530.04   24.58
   6   1  -1  629.05   34.57
  -6  -1   1  561.92   55.03
   5   1  -1  114.63    3.74
   5   1  -1  122.52   10.54
   5   1  -1  115.33    5.34
   5   1  -1  124.22    3.29
  -5  -1   1  127.57    5.08
  -5  -1   1  121.50    5.94
  -5  -1   1  118.84    9.84
   5   1  -1  117.75   11.03
   5   1  -1  110.62   17.31
  -5  -1   1  148.98   14.47
  -5  -1   1  131.88   13.68
   4   1  -1  44.588   1.690
   4   1  -1  45.389   2.416
   4   1  -1  45.538   2.191
   4   1  -1  45.214   2.357
  -4  -1   1  47.826   2.520
  -4  -1   1  45.524   3.810
  -4  -1   1  50.701   1.944
   4   1  -1  36.047   6.869
   4   1  -1  32.099   5.214
  -4  -1   1  28.678   4.986
  -4  -1   1  41.479   7.350
   3   1  -1  152.98    9.16
   3   1  -1  158.71    6.83
   3   1  -1  145.73    4.48
   3   1  -1  151.48    5.64
   3   1  -1  156.54    5.68
  -3  -1   1  156.81    6.27
  -3  -1   1  152.41    6.28
  -3  -1   1  163.09    5.30
  -3  -1   1  162.31    6.39
   3   1  -1  151.71   11.03
   3   1  -1  134.98    9.13
  -3  -1   1  148.03   11.03
  -3  -1   1  145.55   11.18
   2   1  -1  149.74    5.64
   2   1  -1  163.67    9.96
   2   1  -1  164.01   14.00
   2   1  -1  156.18    7.10
   2   1  -1  154.58    6.15
  -2  -1   1  159.73    9.48
  -2  -1   1  164.15   10.47
  -2  -1   1  165.77   11.81
  -2  -1   1  160.59    5.22
   2   1  -1  140.60    9.46
   2   1  -1  152.61    7.32
  -2  -1   1  146.12    7.11
  -2  -1   1  153.13    8.74
   1   1  -1 2080.63  134.66
   1   1  -1 2164.08  156.15
   1   1  -1 1873.71   93.51
  -1  -1   1 1933.51   82.70
  -1  -1   1 2045.20   89.79
   1   1  -1 2137.17  127.32
   1   1  -1 2146.84  114.37
  -1  -1   1 2114.38   71.21
  -1  -1   1 2106.33  125.85
   0   1  -1  109.45    5.21
   0   1  -1  106.63    5.79
   0   1  -1  106.61    6.30
   0   1  -1  97.447   3.757
   0   1  -1  104.37    5.79
   0   1  -1  109.28    8.29
   0  -1   1  104.82    6.76
   0  -1   1  100.51    6.46
   0  -1   1  104.69    6.39
   0  -1   1  105.56    4.78
   0  -1   1  102.32    4.84
   0  -1   1  104.69    8.81
   0   1  -1  86.161   4.176
   0   1  -1  96.887   4.567
   0  -1   1  96.746   4.537
   0  -1   1  86.921   5.063
  -1   1  -1  18.097   1.190
  -1   1  -1  19.440   1.026
  -1   1  -1  21.066   0.932
  -1   1  -1  20.475   1.417
   1  -1   1  18.222   0.995
   1  -1   1  19.835   0.764
   1  -1   1  21.323   1.363
   1  -1   1  20.260   1.375
  -1   1  -1  18.999   2.218
  -1   1  -1  15.783   2.114
   1  -1   1  17.596   1.925
  -2   1  -1  468.88   18.22
  -2   1  -1  466.84   15.33
  -2   1  -1  452.76   37.25
  -2   1  -1  448.23   17.17
  -2   1  -1  457.03   14.90
  -2   1  -1  472.63   18.49
   2  -1   1  418.34   22.52
   2  -1   1  459.46   23.22
   2  -1   1  432.61   21.43
   2  -1   1  463.70   30.96
  -2   1  -1  465.32   19.14
  -2   1  -1  462.63   24.03
   2  -1   1  465.13   29.73
   2  -1   1  432.44   22.40
  -3   1  -1 1080.63   79.99
  -3   1  -1 1111.29   50.79
  -3   1  -1 1097.83   35.23
  -3   1  -1 1156.80   33.27
   3  -1   1 1036.20   32.40
   3  -1   1 1030.65   39.45
   3  -1   1  957.96   55.92
   3  -1   1 1012.83   35.40
  -3   1  -1 1172.20   42.98
  -3   1  -1 1039.14   44.02
   3  -1   1 1134.89   42.04
   3  -1   1 1147.32   46.40
  -4   1  -1  4.3028  1.1172
  -4   1  -1  1.8363  1.1853
  -4   1  -1  3.9610  0.7048
  -4   1  -1  3.5213  1.0367
   4  -1   1  4.0227  0.8698
   4  -1   1  3.0083  0.3704
   4  -1   1  2.8194  0.3465
   4  -1   1  3.2731  0.7745
  -4   1  -1  -3.175   4.173
  -4   1  -1  5.5888  4.6528
   4  -1   1  2.3265  4.2879
   4  -1   1  3.9726  5.6418
  -5   1  -1  130.78    6.50
  -5   1  -1  131.23    8.42
   5  -1   1  120.87    8.21
   5  -1   1  126.65   12.68
   5  -1   1  119.49    4.82
   5  -1   1  122.23    4.01
  -5   1  -1  98.825  12.240
   5  -1   1  131.37   14.70
   5  -1   1  118.02   11.61
  -6   1  -1  31.856   2.855
  -6   1  -1  28.521   3.262
   6  -1   1  25.315   1.845
   6  -1   1  25.239   2.415
   6  -1   1  4.1102  8.0335
  -7   1  -1 -0.2947  2.1956
  -7   1  -1  3.0330  2.5406
   7  -1   1  1.0051  1.6786
   7  -1   1  9.3035  9.0657
   7   0  -1  55.498   3.095
   7   0  -1  47.370   4.624
  -7   0   1  47.873   4.311
  -7   0   1  51.666   3.258
   7   0  -1  19.921  12.221
   6   0  -1  97.499   5.148
   6   0  -1  83.902   4.888
   6   0  -1  105.69    6.11
   6   0  -1  94.146   4.287
  -6   0   1  104.76    4.10
  -6   0   1  84.138   6.218
   6   0  -1  75.689  11.165
   5   0  -1  25.416   1.921
   5   0  -1  24.009   1.884
   5   0  -1  24.600   2.163
   5   0  -1  22.871   1.541
  -5   0   1  22.243   1.891
  -5   0   1  23.136   2.269
   5   0  -1  24.657   9.413
   5   0  -1  20.907   6.720
  -5   0   1  21.879   7.973
   4   0  -1  51.858   2.349
   4   0  -1  55.912   2.196
   4   0  -1  55.903   2.724
   4   0  -1  56.497   2.695
   4   0  -1  55.203   3.269
   4   0  -1  60.958   2.881
  -4   0   1  59.752   2.557
  -4   0   1  54.236   2.180
  -4   0   1  58.421   2.600
  -4   0   1  58.659   3.419
   4   0  -1  49.731   7.389
   4   0  -1  50.781   5.554
  -4   0   1  50.915   7.067
  -4   0   1  51.228   7.260
   3   0  -1  99.954   2.576
   3   0  -1  104.33    3.92
   3   0  -1  95.569   3.549
   3   0  -1  102.49    4.36
   3   0  -1  90.875   3.563
  -3   0   1  96.650   4.124
  -3   0   1  101.79    6.88
  -3   0   1  102.30    2.82
  -3   0   1  99.279   2.982
  -3   0   1  99.079   3.816
   3   0  -1  100.51    7.00
   3   0  -1  95.031   7.371
  -3   0   1  96.142   7.003
  -3   0   1  98.206   7.813
   2   0  -1  65.072   1.995
   2   0  -1  66.490   3.127
   2   0  -1  69.966   1.930
   2   0  -1  66.007   1.920
   2   0  -1  67.466   3.666
  -2   0   1  68.901   3.464
  -2   0   1  69.740   3.427
  -2   0   1  73.551   3.111
  -2   0   1  66.866   3.089
  -2   0   1  62.787   3.496
   2   0  -1  59.459   5.785
   2   0  -1  65.187   4.187
  -2   0   1  68.300   4.906
  -2   0   1  69.942   5.497
   1   0  -1 2119.49   93.10
   1   0  -1 2117.63  111.98
  -1   0   1 1972.02   97.91
  -1   0   1 2184.38   81.05
  -1   0  -1  288.97   14.24
  -1   0  -1  263.40   10.51
  -1   0  -1  304.55   20.32
  -1   0  -1  287.76   14.17
  -1   0  -1  304.07   12.64
  -1   0  -1  280.12   11.30
   1   0   1  303.19    9.76
   1   0   1  284.97   19.56
   1   0   1  282.47   10.36
   1   0   1  259.42   13.73
   1   0   1  281.88   11.57
   1   0   1  293.25   17.53
  -1   0  -1  289.73   11.14
  -1   0  -1  304.82   14.56
   1   0   1  304.11   12.02
   1   0   1  291.33   16.94
  -2   0  -1  252.44   11.05
  -2   0  -1  248.41   12.75
  -2   0  -1  260.66   11.43
  -2   0  -1  261.14   12.78
  -2   0  -1  260.03    9.30
   2   0   1  244.29    8.21
   2   0   1  256.99    7.51
   2   0   1  248.10   12.81
   2   0   1  234.92    8.98
   2   0   1  252.92   17.89
   2   0   1  252.01   15.87
  -2   0  -1  243.35   14.03
  -2   0  -1  262.68   15.65
   2   0   1  269.56   14.24
   2   0   1  258.29   15.24
  -3   0  -1 4668.42  185.91
  -3   0  -1 4680.99  141.09
   3   0   1 4476.39  139.23
   3   0   1 4760.20  157.47
  -4   0  -1  608.60   24.12
  -4   0  -1  572.40   50.72
  -4   0  -1  592.28   33.96
  -4   0  -1  609.91   24.28
   4   0   1  526.33   61.54
   4   0   1  531.87   14.89
   4   0   1  562.60   28.64
   4   0   1  534.84   24.29
   4   0   1  549.68   17.11
  -4   0  -1  612.31   35.48
  -4   0  -1  598.84   28.70
   4   0   1  603.16   23.40
   4   0   1  614.95   33.89
  -5   0  -1  190.03    8.01
  -5   0  -1  197.80   17.11
  -5   0  -1  204.10   14.36
  -5   0  -1  186.92    8.01
   5   0   1  180.71    8.85
   5   0   1  189.73    7.11
   5   0   1  207.31    9.27
   5   0   1  194.58   19.89
   5   0   1  204.78    6.32
  -5   0  -1  177.14   13.63
   5   0   1  191.38   12.67
   5   0   1  196.89   17.63
  -6   0  -1  4.4874  1.5899
  -6   0  -1  2.7600  1.7785
   6   0   1  1.1414  0.8336
   6   0   1 -0.1115  0.8997
   6   0   1  1.0869  0.5434
   6   0   1  0.8262  8.2397
  -7   0  -1  14.855   2.783
  -7   0  -1  20.142   3.127
   7   0   1  21.014   2.366
   7   0   1  8.3553  8.0106
  -8   0  -1  -1.712   3.514
  -8   0  -1  3.5503  2.6179
   8   0   1  1.7526  2.3341
   7  -1  -1  20.803   2.687
   7  -1  -1  22.165   2.501
  -7   1   1  20.975   2.810
  -7   1   1  21.714   2.716
   7  -1  -1  21.715  12.632
   6  -1  -1  17.789   1.663
   6  -1  -1  11.246   1.306
  -6   1   1  17.133   2.313
  -6   1   1  11.936   2.819
   6  -1  -1  7.3397  8.5018
   5  -1  -1  17.610   0.918
   5  -1  -1  18.490   1.323
   5  -1  -1  14.432   1.242
   5  -1  -1  15.923   1.138
  -5   1   1  15.370   1.405
  -5   1   1  17.953   1.517
   5  -1  -1  9.1342  6.7582
   5  -1  -1  13.745   9.076
  -5   1   1  16.561   7.502
   4  -1  -1  116.66    4.12
   4  -1  -1  118.73    3.43
   4  -1  -1  118.33    4.46
   4  -1  -1  118.67    9.92
  -4   1   1  123.09    4.73
  -4   1   1  131.09    5.24
  -4   1   1  118.40    5.53
  -4   1   1  120.44    5.84
   4  -1  -1  121.61    8.92
   4  -1  -1  109.54    8.01
  -4   1   1  114.49   10.54
  -4   1   1  110.88   10.09
   3  -1  -1  26.723   1.215
   3  -1  -1  23.610   0.988
   3  -1  -1  26.816   1.275
   3  -1  -1  25.460   1.256
   3  -1  -1  25.713   1.699
   3  -1  -1  24.038   1.180
  -3   1   1  30.763   1.818
  -3   1   1  27.006   1.446
  -3   1   1  26.324   2.084
  -3   1   1  29.175   1.301
  -3   1   1  29.018   1.461
   3  -1  -1  24.977   4.179
   3  -1  -1  23.895   4.468
  -3   1   1  28.461   4.711
   2  -1  -1 2478.04  116.29
   2  -1  -1 2277.21   92.73
   2  -1  -1 2509.10  107.02
   2  -1  -1 2469.23   79.79
  -2   1   1 2633.77  107.24
  -2   1   1 2452.90  180.07
  -2   1   1 2581.82  113.60
  -2   1   1 2525.59  114.25
   2  -1  -1 2592.02  167.33
   2  -1  -1 2642.92  204.16
  -2   1   1 2718.18  159.02
   1  -1  -1  97.151   3.264
   1  -1  -1  98.984   2.496
   1  -1  -1  98.746   3.995
   1  -1  -1  99.185   4.479
   1  -1  -1  99.482   2.893
  -1   1   1  101.03    4.27
  -1   1   1  105.87    5.50
  -1   1   1  94.273   4.047
  -1   1   1  102.39    5.22
  -1   1   1  100.99    4.13
  -1   1   1  95.291   4.543
   1  -1  -1  94.388   6.662
   1  -1  -1  97.517   6.368
  -1   1   1  96.091   4.457
  -1   1   1  109.81    6.51
   0  -1  -1  84.352   2.116
   0  -1  -1  84.904   3.897
   0  -1  -1  80.267   3.103
   0  -1  -1  87.922   3.252
   0  -1  -1  85.193   2.339
   0   1   1  79.103   2.299
   0   1   1  86.496   4.764
   0   1   1  90.591   3.339
   0   1   1  88.100   3.477
   0   1   1  82.467   2.235
   0  -1  -1  87.438   3.845
   0  -1  -1  90.047   4.173
   0   1   1  88.760   5.139
   0   1   1  85.599   4.423
  -1  -1  -1  275.21   23.47
  -1  -1  -1  268.82   15.77
  -1  -1  -1  274.87   15.12
  -1  -1  -1  260.08   10.89
   1   1   1  269.98   17.76
   1   1   1  245.03    7.78
   1   1   1  269.61   15.18
   1   1   1  262.21   12.29
   1   1   1  269.20   12.69
  -1  -1  -1  276.44   11.92
  -1  -1  -1  290.20   13.45
   1   1   1  269.89   10.64
   1   1   1  260.01   11.12
  -2  -1  -1  21.785   1.260
  -2  -1  -1  21.764   1.358
  -2  -1  -1  20.526   1.098
  -2  -1  -1  20.265   1.111
  -2  -1  -1  18.914   0.884
   2   1   1  19.244   0.688
   2   1   1  21.629   1.063
   2   1   1  19.621   1.788
   2   1   1  21.685   1.263
  -2  -1  -1  17.544   2.634
  -2  -1  -1  11.785   3.040
   2   1   1  21.052   2.960
   2   1   1  23.258   3.613
  -3  -1  -1  422.32   18.22
  -3  -1  -1  383.60   14.97
  -3  -1  -1  396.49   22.77
  -3  -1  -1  420.78   13.64
  -3  -1  -1  426.80   20.97
   3   1   1  405.67   12.20
   3   1   1  402.24   16.88
   3   1   1  406.54   13.42
   3   1   1  380.52    9.15
   3   1   1  421.81   32.13
  -3  -1  -1  380.62   19.43
  -3  -1  -1  426.83   21.96
   3   1   1  404.03   25.74
   3   1   1  387.68   17.40
  -4  -1  -1  96.050   3.891
  -4  -1  -1  108.33    9.13
  -4  -1  -1  107.65    3.62
  -4  -1  -1  105.68    4.17
   4   1   1  106.26    3.89
   4   1   1  110.14    2.81
   4   1   1  98.846   5.162
   4   1   1  102.44    3.44
  -4  -1  -1  102.33    9.42
  -4  -1  -1  102.23    9.78
   4   1   1  81.354   8.751
   4   1   1  94.475  10.507
  -5  -1  -1  71.538   6.565
  -5  -1  -1  84.011   3.822
  -5  -1  -1  86.397   3.697
  -5  -1  -1  83.366   3.364
   5   1   1  76.024   2.881
   5   1   1  80.664   3.158
   5   1   1  73.578   3.144
   5   1   1  76.730   3.223
  -5  -1  -1  68.662   8.470
   5   1   1  62.622   7.732
   5   1   1  78.712  11.749
  -6  -1  -1  13.941   2.122
  -6  -1  -1  15.878   2.405
   6   1   1  16.670   1.531
   6   1   1  17.373   1.744
   6   1   1  14.544   1.217
   6   1   1  14.240   1.888
  -6  -1  -1  17.144  10.346
   6   1   1  -2.258  10.279
  -7  -1  -1  26.607   2.782
  -7  -1  -1  26.404   2.661
   7   1   1  33.248   2.728
  -8  -1  -1  64.595   5.253
  -8  -1  -1  61.889   6.284
  -8  -1  -1  71.268   7.218
   8   1   1  68.232   6.488
   7  -2  -1  4.6587  1.4144
  -7   2   1  5.3496  2.9790
  -7   2   1  4.8608  2.5538
   7  -2  -1  -3.706   8.027
   6  -2  -1  0.5648  0.8894
   6  -2  -1  1.1938  1.1773
  -6   2   1  1.2401  1.2768
  -6   2   1  2.2248  1.5339
   6  -2  -1  3.1291  5.8778
   5  -2  -1  187.51    8.00
   5  -2  -1  202.01    7.97
  -5   2   1  190.46    9.81
  -5   2   1  194.65    8.84
   5  -2  -1  204.07   15.35
   5  -2  -1  208.44   18.00
   4  -2  -1  48.419   2.470
   4  -2  -1  45.762   2.003
  -4   2   1  43.170   2.267
  -4   2   1  48.156   2.423
   4  -2  -1  32.895   5.189
  -4   2   1  34.784   7.048
   3  -2  -1  24.913   1.787
   3  -2  -1  24.455   1.447
   3  -2  -1  23.177   1.277
  -3   2   1  25.094   1.848
  -3   2   1  24.288   1.530
  -3   2   1  27.778   1.392
  -3   2   1  24.404   2.015
  -3   2   1  23.227   2.105
  -3   2   1  24.568   1.786
   3  -2  -1  21.570   3.978
   3  -2  -1  15.421   3.751
  -3   2   1  17.801   4.015
   2  -2  -1  139.64    5.23
   2  -2  -1  132.13    5.18
   2  -2  -1  140.84    8.63
   2  -2  -1  138.93    6.09
   2  -2  -1  132.80    9.11
   2  -2  -1  135.24    5.10
  -2   2   1  139.65    3.96
  -2   2   1  141.26    4.74
  -2   2   1  140.80    7.54
  -2   2   1  137.31    6.22
  -2   2   1  139.93    5.82
  -2   2   1  143.20    5.65
   2  -2  -1  158.91   10.58
   2  -2  -1  130.81    7.72
  -2   2   1  148.23    8.58
   1  -2  -1  19.003   0.668
   1  -2  -1  19.690   1.492
   1  -2  -1  20.411   0.967
   1  -2  -1  19.837   0.854
   1  -2  -1  16.831   0.821
  -1   2   1  18.903   0.974
  -1   2   1  20.931   0.962
  -1   2   1  18.317   0.935
  -1   2   1  18.957   1.042
  -1   2   1  20.327   1.246
  -1   2   1  17.734   1.096
   1  -2  -1  20.433   1.560
   1  -2  -1  17.422   1.994
  -1   2   1  18.715   1.930
  -1   2   1  15.472   1.783
   0  -2  -1  655.74   21.41
   0  -2  -1  670.13   33.37
   0  -2  -1  639.99   18.01
   0   2   1  673.42   24.84
   0   2   1  651.57   25.22
   0   2   1  661.84   23.36
   0   2   1  677.36   27.49
   0   2   1  670.00   32.48
   0   2   1  634.98   17.75
   0   2   1  690.66   35.53
   0   2   1  688.19   19.92
   0  -2  -1  175.22    6.68
  -1  -2  -1  390.24   21.59
  -1  -2  -1  360.73   18.42
  -1  -2  -1  384.07   15.70
   1   2   1  391.95   20.41
   1   2   1  420.00   29.52
   1   2   1  399.71   15.32
   1   2   1  394.07   14.10
   1   2   1  398.28   20.03
   1   2   1  388.14   14.70
  -1  -2  -1  411.55   22.08
  -1  -2  -1  379.99   16.58
   1   2   1  384.14   13.04
   1   2   1  411.14   22.50
  -2  -2  -1  5.1236  0.5748
  -2  -2  -1  7.1276  0.5196
  -2  -2  -1  6.0190  0.7574
  -2  -2  -1  6.1173  0.5621
   2   2   1  7.6355  0.8400
   2   2   1  5.7762  0.6457
   2   2   1  6.1113  0.4736
  -2  -2  -1  5.5361  2.4227
  -2  -2  -1 -0.8770  2.5965
   2   2   1  4.0962  2.4768
   2   2   1  4.4986  2.2709
  -3  -2  -1  545.82   42.82
  -3  -2  -1  510.36   28.08
  -3  -2  -1  511.78   28.99
  -3  -2  -1  508.26   20.85
  -3  -2  -1  532.45   20.17
   3   2   1  487.67   34.84
   3   2   1  475.87   17.88
   3   2   1  474.32   14.25
   3   2   1  462.73   16.43
  -3  -2  -1  491.39   32.28
  -3  -2  -1  541.65   23.74
   3   2   1  509.11   17.94
   3   2   1  533.81   40.81
  -4  -2  -1  406.27   15.00
  -4  -2  -1  433.44   17.90
  -4  -2  -1  414.14   17.04
   4   2   1  418.49   13.21
   4   2   1  418.41   27.50
   4   2   1  412.90   16.76
   4   2   1  392.39   13.18
  -4  -2  -1  433.91   17.71
  -4  -2  -1  378.48   17.00
   4   2   1  422.99   24.59
   4   2   1  426.95   21.46
  -5  -2  -1  107.09    4.93
  -5  -2  -1  101.60    5.62
  -5  -2  -1  100.27    7.69
   5   2   1  104.49    3.54
   5   2   1  97.740   5.043
   5   2   1  97.539   5.623
  -5  -2  -1  98.597  10.398
   5   2   1  86.529   9.820
  -6  -2  -1  188.10    9.06
  -6  -2  -1  176.78    8.76
  -6  -2  -1  183.35    6.79
   6   2   1  192.29    6.56
   6   2   1  199.99    6.10
   6   2   1  190.19    7.39
  -6  -2  -1  161.86   16.92
   6   2   1  165.92   15.91
  -7  -2  -1  128.60    7.01
  -7  -2  -1  125.07    6.82
  -7  -2  -1  123.88    7.81
   7   2   1  138.46    7.65
   7   2   1  135.26    7.92
  -8  -2  -1  79.747   5.273
  -8  -2  -1  77.686   6.373
  -8  -2  -1  75.366   6.055
   8   2   1  92.840   7.503
   8   2   1  84.063   6.223
   7  -3  -1  16.478   2.370
  -7   3   1  17.623   4.044
   7  -3  -1  6.2670  8.5492
   6  -3  -1  9.0109  1.7407
   6  -3  -1  6.3388  1.5364
   6  -3  -1  10.861   1.236
  -6   3   1  8.5784  2.4387
  -6   3   1  8.1148  1.8984
   6  -3  -1  4.2502  6.0844
   5  -3  -1  263.09   10.36
   5  -3  -1  266.04   10.00
   5  -3  -1  267.89    8.58
  -5   3   1  281.03    8.81
  -5   3   1  269.88   11.38
   5  -3  -1  299.82   17.89
   4  -3  -1 1291.91   54.90
   4  -3  -1 1276.22   44.60
   4  -3  -1 1316.62   49.88
  -4   3   1 1265.10   83.53
  -4   3   1 1285.90   27.25
   4  -3  -1 1536.98   69.41
   4  -3  -1 1495.43   76.38
  -4   3   1 1528.80   62.03
   3  -3  -1  131.95    4.71
   3  -3  -1  134.57    6.34
   3  -3  -1  129.67    3.48
  -3   3   1  129.62    9.80
  -3   3   1  139.47    5.87
   3  -3  -1  148.39   10.70
   3  -3  -1  137.07    9.75
  -3   3   1  134.38    9.38
   2  -3  -1  780.03   33.99
   2  -3  -1  806.42   27.70
   2  -3  -1  805.00   37.60
   2  -3  -1  800.92   18.48
  -2   3   1  770.50   19.74
  -2   3   1  846.63   29.11
  -2   3   1  856.02   33.89
  -2   3   1  808.92   41.07
  -2   3   1  824.32   29.63
   2  -3  -1  833.45   37.54
   2  -3  -1  893.28   36.77
  -2   3   1  893.68   33.40
   1  -3  -1  50.009   1.810
   1  -3  -1  52.549   2.045
   1  -3  -1  50.725   1.963
   1  -3  -1  51.600   2.904
  -1   3   1  52.478   1.796
  -1   3   1  48.820   3.136
  -1   3   1  53.262   1.741
  -1   3   1  53.038   2.670
  -1   3   1  46.812   1.532
  -1   3   1  45.562   1.707
  -1   3   1  50.157   2.225
   1  -3  -1  48.638   2.923
   1  -3  -1  46.428   2.627
  -1   3   1  51.509   2.782
  -1   3   1  42.024   3.999
   0  -3  -1  782.70   43.14
   0  -3  -1  797.83   26.76
   0  -3  -1  785.61   18.18
   0   3   1  789.21   28.04
   0   3   1  790.81   25.34
   0   3   1  794.92   38.23
   0   3   1  814.04   34.59
   0   3   1  791.45   30.65
   0   3   1  784.98   48.60
   0   3   1  796.88   25.05
   0   3   1  759.92   33.29
   0   3   1  798.73   48.12
  -1  -3  -1  208.43   12.19
  -1  -3  -1  197.34    9.64
  -1  -3  -1  211.35    9.56
   1   3   1  203.10    8.86
   1   3   1  204.62    9.09
   1   3   1  197.19    5.67
   1   3   1  210.95   12.53
   1   3   1  204.08    6.14
   1   3   1  211.25    6.83
  -1  -3  -1  212.74   11.11
  -1  -3  -1  204.79   10.55
   1   3   1  213.46    9.79
   1   3   1  204.87   14.00
  -2  -3  -1  490.00   24.00
  -2  -3  -1  509.86   34.90
  -2  -3  -1  509.88   25.49
   2   3   1  473.94   16.67
   2   3   1  470.79   21.64
   2   3   1  455.71   17.53
   2   3   1  505.78   15.81
   2   3   1  490.52   28.25
   2   3   1  477.30   21.35
  -2  -3  -1  426.28   17.05
   2   3   1  487.87   17.63
   2   3   1  511.35   41.56
  -3  -3  -1  72.650   4.964
  -3  -3  -1  76.496   4.980
  -3  -3  -1  69.556   4.314
  -3  -3  -1  78.766   5.274
   3   3   1  74.697   2.833
   3   3   1  67.689   5.584
   3   3   1  68.238   3.442
  -3  -3  -1  75.399   6.466
   3   3   1  74.265   6.811
   3   3   1  74.017   8.734
  -4  -3  -1  47.642   2.641
  -4  -3  -1  45.392   2.369
  -4  -3  -1  48.527   3.661
   4   3   1  46.425   1.916
   4   3   1  39.251   3.693
  -4  -3  -1  35.390   6.355
   4   3   1  31.001   5.471
  -5  -3  -1  59.527   4.714
  -5  -3  -1  62.810   3.423
  -5  -3  -1  63.811   3.144
  -5  -3  -1  56.086   3.543
   5   3   1  60.492   2.447
   5   3   1  64.347   2.930
  -5  -3  -1  43.503   8.010
   5   3   1  39.400   6.963
  -6  -3  -1  18.360   2.523
  -6  -3  -1  18.186   1.494
  -6  -3  -1  17.109   2.343
   6   3   1  20.867   2.158
   6   3   1  23.503   1.743
  -6  -3  -1  13.587   9.870
  -7  -3  -1  15.789   2.221
  -7  -3  -1  19.101   2.308
  -7  -3  -1  19.487   2.558
   7   3   1  21.846   2.242
   7   3   1  20.953   2.757
   7   3   1  23.171   2.496
  -7  -3  -1   6.037  10.902
  -8  -3  -1  21.212   3.166
   8   3   1  23.246   2.837
   7  -4  -1  -1.183   1.586
  -7   4   1  1.4163  2.8395
  -7   4   1  1.7362  3.0841
   7  -4  -1  5.5602  8.8035
   6  -4  -1  4.6674  1.6861
   6  -4  -1  2.7046  1.3618
   6  -4  -1  5.5423  1.9273
  -6   4   1  3.6984  1.7563
  -6   4   1  4.5529  1.4804
   6  -4  -1  -1.241   8.279
   5  -4  -1  4.4111  0.9469
   5  -4  -1  4.8609  1.0025
   5  -4  -1  2.3878  1.1668
  -5   4   1  4.8999  1.9116
  -5   4   1  5.8748  0.9477
   5  -4  -1  9.4216  6.4708
   4  -4  -1  22.525   1.711
   4  -4  -1  22.436   1.465
   4  -4  -1  19.129   1.887
  -4   4   1  19.586   1.762
  -4   4   1  23.118   1.815
  -4   4   1  21.988   1.854
   4  -4  -1  15.301   5.235
   4  -4  -1  24.551   5.036
   3  -4  -1  68.773   2.626
   3  -4  -1  67.151   2.384
   3  -4  -1  62.205   2.889
  -3   4   1  61.647   2.704
  -3   4   1  66.454   4.693
  -3   4   1  64.172   4.633
   3  -4  -1  75.189   6.104
   3  -4  -1  63.331   5.726
  -3   4   1  59.334   6.166
   2  -4  -1  197.27   11.62
   2  -4  -1  192.24    9.39
   2  -4  -1  197.22    8.26
   2  -4  -1  194.06    8.25
  -2   4   1  197.95    5.97
  -2   4   1  189.59    5.39
  -2   4   1  184.85    7.00
  -2   4   1  198.93    6.19
   2  -4  -1  199.96   11.81
   2  -4  -1  213.64   11.03
  -2   4   1  199.55   10.00
   1  -4  -1  19.889   1.212
   1  -4  -1  19.528   1.329
   1  -4  -1  17.808   1.130
  -1   4   1  17.014   1.045
  -1   4   1  19.854   1.174
  -1   4   1  17.574   1.397
  -1   4   1  19.803   1.185
  -1   4   1  17.161   1.034
  -1   4   1  19.138   1.098
  -1   4   1  19.045   1.191
   1  -4  -1  19.083   2.039
   1  -4  -1  18.663   1.673
  -1   4   1  15.121   1.539
  -1   4   1  14.377   1.936
   0  -4  -1  698.28   21.94
   0  -4  -1  683.13   48.31
   0  -4  -1  697.32   24.05
   0   4   1  675.91   19.73
   0   4   1  727.63   23.02
   0   4   1  694.27   55.96
   0   4   1  714.11   28.95
   0   4   1  733.02   16.03
   0   4   1  693.93   27.47
   0   4   1  729.86   29.49
   0   4   1  724.96   43.15
   0   4   1  714.14   39.85
  -1  -4  -1  349.23   10.95
  -1  -4  -1  351.24   13.93
  -1  -4  -1  343.34   16.05
   1   4   1  358.05   29.13
   1   4   1  374.12   21.60
   1   4   1  348.25    9.87
   1   4   1  342.21   17.88
   1   4   1  357.07    9.33
   1   4   1  345.62   10.93
  -1  -4  -1  327.03   24.73
  -1  -4  -1  333.66   17.71
   1   4   1  361.82   18.61
   1   4   1  370.60   21.18
  -2  -4  -1  38.184   2.202
  -2  -4  -1  35.779   1.859
  -2  -4  -1  34.541   2.333
   2   4   1  36.136   1.812
   2   4   1  35.332   2.345
   2   4   1  36.750   1.662
   2   4   1  35.793   1.885
   2   4   1  35.782   1.475
   2   4   1  30.981   1.794
   2   4   1  34.416   2.471
  -2  -4  -1  31.693   3.778
  -2  -4  -1  32.847   3.698
   2   4   1  25.610   3.230
   2   4   1  27.646   4.199
  -3  -4  -1  100.02    4.20
  -3  -4  -1  85.189   4.333
  -3  -4  -1  94.407   3.866
   3   4   1  87.197   5.225
   3   4   1  80.191   6.265
  -3  -4  -1  97.668   7.783
  -3  -4  -1  93.364   8.492
   3   4   1  90.800   7.143
  -4  -4  -1  199.96   17.66
  -4  -4  -1  206.06    9.67
  -4  -4  -1  189.55    7.24
   4   4   1  173.84    9.74
   4   4   1  192.85    6.85
  -4  -4  -1  230.63   13.71
  -4  -4  -1  196.59   13.52
   4   4   1  191.43   14.28
  -5  -4  -1  208.40    8.15
  -5  -4  -1  191.58   10.10
  -5  -4  -1  191.84    7.01
   5   4   1  195.09    8.09
   5   4   1  195.53    7.85
  -5  -4  -1  222.56   19.18
  -5  -4  -1  210.82   14.06
  -6  -4  -1  27.292   2.415
  -6  -4  -1  22.702   2.903
  -6  -4  -1  26.710   2.124
   6   4   1  31.057   2.890
   6   4   1  23.518   2.338
  -6  -4  -1  16.024  10.231
  -7  -4  -1  6.7867  2.1369
  -7  -4  -1  8.5321  2.1697
  -7  -4  -1  4.2978  1.9759
   7   4   1  4.4095  1.5544
   7   4   1  7.6205  2.4102
  -7  -4  -1  -10.28    7.41
   6  -5  -1  190.77   11.41
  -6   5   1  176.00   10.25
  -6   5   1  190.32   12.74
   6  -5  -1  190.46   21.36
   5  -5  -1  206.29   14.48
   5  -5  -1  208.68   19.54
   5  -5  -1  210.06    6.99
  -5   5   1  206.16   12.63
  -5   5   1  215.01    8.89
   5  -5  -1  227.98   19.73
   4  -5  -1  4.7949  1.5823
   4  -5  -1  6.6371  0.9925
   4  -5  -1  5.7706  0.9257
  -4   5   1  6.7629  1.1887
   4  -5  -1  6.6014  5.4721
   4  -5  -1  1.7960  5.0299
   3  -5  -1  3.9521  0.7805
   3  -5  -1  2.6545  0.8110
   3  -5  -1  1.8849  1.2378
  -3   5   1  4.6016  1.1199
  -3   5   1  1.0543  1.1386
  -3   5   1  2.4611  0.4492
   3  -5  -1  8.3389  4.9278
   3  -5  -1 -0.0225  2.9274
  -3   5   1  3.6083  4.7896
   2  -5  -1  342.04   15.42
   2  -5  -1  347.83    7.92
   2  -5  -1  345.90   15.48
  -2   5   1  361.08   14.49
  -2   5   1  360.31   20.50
  -2   5   1  335.57    8.39
  -2   5   1  323.62   16.48
  -2   5   1  356.31   11.50
   2  -5  -1  380.67   22.37
   2  -5  -1  369.98   19.37
  -2   5   1  391.18   20.01
   1  -5  -1  7.3168  1.0682
   1  -5  -1  5.4575  0.9862
   1  -5  -1  4.2304  0.8651
  -1   5   1  4.3150  1.1530
  -1   5   1  4.5990  0.7038
  -1   5   1  4.6929  0.8649
  -1   5   1  4.5514  0.9145
  -1   5   1  4.7808  0.9275
  -1   5   1  4.9498  1.0512
   1  -5  -1  4.8592  0.7446
  -1   5   1  2.9853  0.7456
  -1   5   1  3.3368  0.8803
   0  -5  -1 1382.93   66.28
   0  -5  -1 1346.36   39.14
   0  -5  -1 1408.44   41.03
   0   5   1 1303.69   40.22
   0   5   1 1411.32   28.37
   0   5   1 1503.81   51.01
   0   5   1 1481.72   55.44
   0   5   1 1393.94   29.25
   0   5   1 1508.92   59.89
   0   5   1 1470.76   47.93
  -1  -5  -1  772.95   18.32
  -1  -5  -1  740.71   24.58
  -1  -5  -1  720.16   30.08
  -1  -5  -1  730.97   28.23
   1   5   1  761.03   37.99
   1   5   1  718.48   31.86
   1   5   1  757.69   26.81
   1   5   1  718.40   16.50
   1   5   1  754.65   29.10
   1   5   1  749.22   26.37
   1   5   1  767.07   44.85
  -1  -5  -1  687.38   32.29
  -1  -5  -1  804.38   59.36
   1   5   1  743.23   37.04
   1   5   1  796.49   53.35
  -2  -5  -1  2.4956  0.8461
  -2  -5  -1  4.4285  0.7787
  -2  -5  -1  3.5452  0.8090
   2   5   1  3.2752  0.5423
   2   5   1  4.1370  0.7702
   2   5   1  1.8552  1.5081
   2   5   1  3.2669  1.2613
   2   5   1  3.5365  0.8162
   2   5   1  3.4561  0.4938
  -2  -5  -1  6.6182  2.4102
  -2  -5  -1  1.9149  2.4310
   2   5   1  0.0932  2.4761
  -3  -5  -1  4.9660  1.3294
  -3  -5  -1  4.3628  0.9930
   3   5   1  4.1387  0.3278
   3   5   1  3.2709  0.8497
   3   5   1  4.8261  0.9966
   3   5   1  4.4007  0.2997
   3   5   1  4.0051  0.3283
  -3  -5  -1  6.9464  3.8370
  -3  -5  -1  5.0891  3.6618
   3   5   1  3.0071  3.4583
  -4  -5  -1  27.807   2.149
  -4  -5  -1  24.082   1.974
   4   5   1  26.214   1.514
  -4  -5  -1  15.224   6.137
  -4  -5  -1  21.171   6.507
   4   5   1  20.614   7.142
  -5  -5  -1  10.691   1.522
  -5  -5  -1  10.492   1.498
  -5  -5  -1  11.837   1.864
   5   5   1  10.224   1.110
   5   5   1  14.100   2.052
  -5  -5  -1  3.9756  8.0486
  -6  -5  -1  5.4326  1.8031
  -6  -5  -1  7.8940  1.7269
  -6  -5  -1  5.1848  1.5322
   6   5   1  4.5157  1.9346
   6   5   1  3.1477  1.6028
  -6  -5  -1  -2.970   6.897
  -7  -5  -1  16.441   2.783
  -7  -5  -1  22.096   3.397
   7   5   1  23.613   3.281
   7   5   1  16.485   2.333
  -7  -5  -1   7.424  15.501
   6  -6  -1  4.4524  2.3090
  -6   6   1  6.4520  3.3136
   6  -6  -1  1.6933  9.3378
   5  -6  -1  126.39   12.98
   5  -6  -1  126.06   11.63
   5  -6  -1  131.13    7.15
  -5   6   1  135.92    7.27
  -5   6   1  126.64    9.20
   5  -6  -1  148.97   14.09
   4  -6  -1  53.458   2.674
   4  -6  -1  49.402   3.121
   4  -6  -1  46.081   2.799
  -4   6   1  51.895   3.237
   4  -6  -1  54.497   8.014
   4  -6  -1  46.850   6.012
   3  -6  -1  183.18   11.93
   3  -6  -1  188.25    7.08
   3  -6  -1  184.87   10.00
  -3   6   1  174.41    5.85
   3  -6  -1  204.05   10.19
   3  -6  -1  205.46   16.26
   2  -6  -1  2.2974  1.0888
   2  -6  -1  2.0323  0.9883
   2  -6  -1  2.4669  1.1370
  -2   6   1  1.2131  0.9264
  -2   6   1  1.6057  0.6550
   2  -6  -1  2.7679  2.4234
   2  -6  -1  3.0767  1.8237
  -2   6   1  -1.919   2.478
   1  -6  -1  6.8460  0.9969
   1  -6  -1  6.6306  1.0979
  -1   6   1  6.6132  0.8998
  -1   6   1  5.4132  0.8811
  -1   6   1  5.6801  0.9979
  -1   6   1  5.5285  0.8422
  -1   6   1  4.2639  1.0820
   0  -6  -1  7.5918  0.9966
   0  -6  -1  8.5343  1.3676
   0   6   1  7.5698  1.1183
   0   6   1  7.2010  1.0683
   0   6   1  5.7181  1.1805
   0   6   1  6.2983  1.1423
   0   6   1  8.2286  1.2302
   0   6   1  6.5000  1.1717
   0   6   1  7.1415  0.9804
  -1  -6  -1  289.93   12.86
  -1  -6  -1  284.64    8.40
  -1  -6  -1  300.61   10.66
   1   6   1  296.77   13.79
   1   6   1  282.31    8.96
   1   6   1  280.66    8.74
   1   6   1  289.72   18.52
   1   6   1  284.70    6.62
  -1  -6  -1  296.27   12.35
  -1  -6  -1  298.84   19.79
   1   6   1  292.81   14.63
  -2  -6  -1  79.177   3.907
  -2  -6  -1  84.348   3.793
   2   6   1  80.255   3.921
   2   6   1  77.762   2.485
   2   6   1  78.647   2.768
   2   6   1  77.758   3.916
  -2  -6  -1  82.601   6.967
  -2  -6  -1  79.936   5.666
   2   6   1  72.164   7.688
  -3  -6  -1  341.20   17.63
  -3  -6  -1  332.93   15.82
   3   6   1  325.40   14.60
   3   6   1  293.77   31.17
   3   6   1  332.48   10.61
   3   6   1  323.84   11.94
   3   6   1  326.61   11.92
  -3  -6  -1  327.88   17.58
  -3  -6  -1  378.56   20.10
   3   6   1  352.52   24.52
  -4  -6  -1  744.95   29.40
  -4  -6  -1  731.84   34.57
   4   6   1  750.06   27.11
   4   6   1  706.87   41.71
  -4  -6  -1  742.44   45.19
  -4  -6  -1  812.43   45.69
  -5  -6  -1  222.57   18.18
  -5  -6  -1  234.96   11.15
   5   6   1  219.34   11.15
   5   6   1  211.61    9.86
  -5  -6  -1  241.23   18.90
  -6  -6  -1  21.540   3.365
  -6  -6  -1  9.3579  2.6783
   6   6   1  16.708   2.024
   6   6   1  17.326   2.367
  -6  -6  -1  24.590  12.338
  -7  -6  -1  72.139   6.595
  -7  -6  -1  69.988   5.643
   7   6   1  71.556   5.539
   7   6   1  78.844   7.195
  -7  -6  -1  65.361  15.338
   5  -7  -1  31.054   3.582
   5  -7  -1  45.742   8.623
   4  -7  -1  26.015   2.207
   4  -7  -1  26.204   3.435
   4  -7  -1  25.402   2.854
  -4   7   1  26.829   2.872
   4  -7  -1  22.437   5.523
   3  -7  -1  323.22   12.25
   3  -7  -1  311.60   13.33
   3  -7  -1  308.01   11.33
  -3   7   1  300.93   15.25
   3  -7  -1  343.94   27.63
   3  -7  -1  354.35   46.80
   2  -7  -1  582.63   17.23
   2  -7  -1  576.45   26.92
  -2   7   1  540.79   19.01
  -2   7   1  509.67   35.57
   1  -7  -1  541.09   21.74
  -1   7   1  524.63   15.41
  -1   7   1  542.53   15.82
  -1   7   1  537.79   19.35
   0  -7  -1  277.43   18.58
   0  -7  -1  273.54   10.05
   0   7   1  271.24    6.71
   0   7   1  278.31    7.44
   0   7   1  269.59   10.62
  -1  -7  -1  5.9343  0.9443
   1   7   1  6.1357  1.3453
   1   7   1  5.4323  1.2121
   1   7   1  3.3548  1.4438
   1   7   1  4.2542  1.5578
   1   7   1  6.8854  1.0169
  -2  -7  -1  5.2340  1.0747
  -2  -7  -1  5.3724  1.2989
   2   7   1  6.6685  1.9393
   2   7   1  2.9032  1.3973
   2   7   1  3.9726  0.8044
   2   7   1  4.0590  1.2295
   2   7   1  3.3493  1.1694
   2   7   1  5.3893  1.1701
  -2  -7  -1  3.4548  2.1802
  -2  -7  -1  2.5864  2.5760
  -3  -7  -1  1.7267  0.8719
  -3  -7  -1  2.6242  0.9299
   3   7   1  0.7201  0.7475
   3   7   1  1.4252  1.7398
  -3  -7  -1  1.7532  2.8505
  -3  -7  -1  -2.717   3.388
  -4  -7  -1  30.681   2.434
  -4  -7  -1  36.383   2.573
   4   7   1  33.801   2.156
   4   7   1  37.478   2.558
  -4  -7  -1  27.140   6.582
  -5  -7  -1  32.283   2.295
  -5  -7  -1  32.631   2.968
   5   7   1  28.036   2.586
   5   7   1  31.851   2.998
  -5  -7  -1  21.149   6.760
  -6  -7  -1  15.276   2.487
  -6  -7  -1  16.721   2.265
   6   7   1  14.532   2.401
   6   7   1  14.229   2.427
  -6  -7  -1  4.0896  8.6715
  -4   8   1  2.7294  1.7980
   4  -8  -1  0.9605  5.1527
   3  -8  -1  3.5576  1.6533
  -3   8   1  1.6131  2.1647
   3  -8  -1  3.8386  2.3484
   3  -8  -1  4.7069  2.2804
   2  -8  -1  19.295   1.979
  -2   8   1  22.842   1.803
  -2   8   1  18.615   2.431
   1  -8  -1  38.868   3.143
  -1   8   1  38.979   2.270
  -1   8   1  33.099   2.671
  -1   8   1  41.134   2.787
   0  -8  -1  27.908   2.203
   0  -8  -1  29.929   1.876
   0   8   1  27.475   2.615
   0   8   1  30.648   2.348
   0   8   1  28.339   2.198
  -1  -8  -1  8.5440  1.4876
   1   8   1  9.6060  1.2747
   1   8   1  10.906   2.045
   1   8   1  12.025   1.427
  -2  -8  -1  218.57    9.05
  -2  -8  -1  205.92   10.31
   2   8   1  217.75    9.22
   2   8   1  220.41   11.04
   2   8   1  205.34   14.23
  -2  -8  -1  227.97   19.91
  -2  -8  -1  226.87   13.16
  -3  -8  -1  31.143   2.298
  -3  -8  -1  35.859   2.600
   3   8   1  34.359   2.462
   3   8   1  32.311   2.968
  -3  -8  -1  45.132   7.476
  -3  -8  -1  41.757   6.899
  -4  -8  -1  0.9669  1.4268
  -4  -8  -1  3.2508  1.5064
   4   8   1  1.8810  1.3251
   4   8   1  1.3964  1.5364
  -4  -8  -1  5.0824  5.8980
  -5  -8  -1  12.972   2.221
  -5  -8  -1  17.082   2.271
   5   8   1  11.229   2.701
   5   8   1  12.124   2.331
  -5  -8  -1  11.909   6.366
  -6  -8  -1  0.0722  2.7383
  -6  -8  -1  -3.762   2.778
   6   8   1  0.8194  2.0802
   6   8   1  1.1582  2.1606
  -6  -8  -1  13.071  14.120
   3  -9  -1  157.63    9.75
  -3   9   1  153.21    9.77
  -3   9   1  134.61    8.37
   2  -9  -1  45.119   4.486
  -2   9   1  35.934   2.697
  -2   9   1  34.798   3.451
   1  -9  -1  252.79   17.40
  -1   9   1  234.61   12.61
  -1   9   1  245.46   10.56
  -1   9   1  243.48   10.79
   0  -9  -1  0.3569  2.1972
   0   9   1 -0.8244  1.1310
   0   9   1  0.3711  1.7406
   0   9   1  1.3022  0.9781
  -1  -9  -1  128.81    9.37
   1   9   1  125.93    7.06
   1   9   1  134.71    8.59
   1   9   1  138.68    9.06
  -2  -9  -1  245.77   15.38
   2   9   1  264.93   10.10
   2   9   1  272.21   13.33
  -3  -9  -1  41.743   3.933
  -3  -9  -1  38.933   4.507
   3   9   1  47.287   4.505
   3   9   1  45.386   3.816
  -3  -9  -1  50.613   6.501
  -3  -9  -1  51.659   7.504
  -4  -9  -1  44.757   3.956
  -4  -9  -1  41.691   3.826
   4   9   1  40.420   2.937
   4   9   1  43.151   3.728
  -4  -9  -1  49.715   7.816
  -5  -9  -1  -3.668   2.795
  -5  -9  -1  2.8246  2.7775
   5   9   1  2.9429  3.0259
   5   9   1  0.6033  1.8143
  -5  -9  -1 -0.4999  9.1571
   2 -10  -1 -0.7634  2.5388
  -2  10   1  3.1863  2.5613
  -2  10   1  4.0962  2.9129
   1 -10  -1  18.857   3.358
  -1  10   1  15.504   2.107
  -1  10   1  15.602   2.815
   0  10   1  107.28    6.60
   0  10   1  99.013   6.078
  -1 -10  -1  6.2490  3.1079
   1  10   1  12.232   2.778
   1  10   1  16.395   3.217
  -2 -10  -1  59.371   3.872
   2  10   1  52.745   5.311
   2  10   1  62.753   4.866
  -3 -10  -1  117.38    7.53
  -3 -10  -1  126.92    6.72
   3  10   1  113.65    7.16
   3  10   1  113.82    7.99
   4  10   1  60.593   4.744
   4  10   1  41.191   3.596
   3  10  -2  13.979   3.160
   3  10  -2  9.6642  2.4915
  -3 -10   2  11.197   2.567
  -3 -10   2  7.5958  2.2352
  -3 -10   2  7.2282  6.0864
   2  10  -2  51.386   4.303
   2  10  -2  54.697   5.031
   1  10  -2  79.235   7.123
   1  10  -2  85.229   6.627
  -1 -10   2  95.847   7.655
   0  10  -2  37.986   3.673
   0  10  -2  31.028   3.328
   0 -10   2  34.615   4.777
  -1  10  -2  59.961   5.035
   1 -10   2  66.257   6.599
   4   9  -2 -0.3383  1.4729
  -4  -9   2  1.1342  2.1478
  -4  -9   2  0.8713  1.4582
  -4  -9   2  13.898   9.533
   3   9  -2  38.272   3.468
  -3  -9   2  38.242   3.193
  -3  -9   2  34.967   3.385
  -3  -9   2  28.147   7.641
   2   9  -2  0.0703  1.7628
  -2  -9   2  2.4144  1.2470
  -2  -9   2  3.1557  1.4589
  -2  -9   2  4.1270  3.8944
  -2  -9   2  1.9263  3.7545
   1   9  -2  3.6947  1.5149
  -1  -9   2  2.4976  2.3735
  -1  -9   2  3.3920  1.3995
   0   9  -2  58.377   3.794
   0   9  -2  56.406   4.177
   0  -9   2  53.491   5.081
  -1   9  -2  1.9158  1.6595
  -1   9  -2  1.7697  2.0259
  -1   9  -2  5.5887  1.9060
   1  -9   2  5.8380  1.7196
  -2   9  -2  37.902   3.246
  -2   9  -2  40.377   3.915
   2  -9   2  45.814   3.927
  -3   9  -2  28.907   3.535
  -3   9  -2  30.659   2.852
   3  -9   2  30.340   3.604
   5   8  -2  1.7528  1.3864
  -5  -8   2  2.2324  1.7701
  -5  -8   2  0.8644  2.1811
  -5  -8   2   1.160  11.003
   4   8  -2  43.411   2.874
  -4  -8   2  47.416   3.589
  -4  -8   2  40.384   2.965
  -4  -8   2  39.630   9.449
   3   8  -2  214.77    7.78
  -3  -8   2  217.94    9.49
  -3  -8   2  205.13    9.02
  -3  -8   2  226.71   17.60
   2   8  -2  12.932   1.911
  -2  -8   2  7.9407  1.2288
  -2  -8   2  7.7388  1.2967
  -2  -8   2  -2.106   3.960
  -2  -8   2  4.6625  4.0824
   1   8  -2  24.024   2.022
  -1  -8   2  21.496   2.906
  -1  -8   2  23.903   2.136
  -1  -8   2  27.282   3.219
  -1  -8   2  22.956   3.163
   0   8  -2  216.32    6.46
   0   8  -2  219.12   12.31
   0  -8   2  213.33   11.56
   0  -8   2  211.55   10.21
  -1   8  -2  37.542   2.219
  -1   8  -2  34.490   2.599
  -1   8  -2  34.825   2.940
   1  -8   2  33.106   2.602
  -2   8  -2 -0.4830  1.0338
  -2   8  -2  1.6474  1.3157
   2  -8   2  1.8906  1.8385
   2  -8   2  -1.683   1.050
   2  -8   2  1.1940  1.6380
   2  -8   2  2.8522  1.8457
  -3   8  -2  113.32    7.45
  -3   8  -2  124.83    5.29
   3  -8   2  117.03    6.42
   3  -8   2  113.92    6.13
   3  -8   2  121.96   14.08
   3  -8   2  133.55   14.63
  -4   8  -2  91.192   6.932
  -4   8  -2  74.091   5.955
   4  -8   2  90.550   5.712
   4  -8   2  91.937   5.939
   4  -8   2  83.419  10.233
   6   7  -2  39.673   3.582
  -6  -7   2  37.528   4.801
  -6  -7   2  40.301   4.042
  -6  -7   2  21.420  15.217
   5   7  -2  70.464   3.878
  -5  -7   2  62.403   6.116
  -5  -7   2  62.815   5.522
  -5  -7   2  59.673  13.678
   4   7  -2  17.577   1.462
  -4  -7   2  19.451   2.375
  -4  -7   2  19.349   2.019
  -4  -7   2  9.2209  6.6936
   3   7  -2  27.542   1.853
   3   7  -2  28.716   2.125
  -3  -7   2  30.664   2.251
  -3  -7   2  32.812   2.440
  -3  -7   2  15.154   6.631
  -3  -7   2  31.430   6.671
   2   7  -2  2.1948  1.0627
   2   7  -2  1.5852  0.8658
  -2  -7   2  1.1996  1.1231
  -2  -7   2  0.3020  0.9939
  -2  -7   2  2.1168  1.3249
  -2  -7   2  -3.444   3.302
  -2  -7   2 -0.6272  3.1743
   1   7  -2  48.100   2.906
   1   7  -2  49.103   2.930
  -1  -7   2  47.000   3.089
  -1  -7   2  51.191   3.421
  -1  -7   2  46.985   2.844
  -1  -7   2  47.440   4.805
  -1  -7   2  47.278   4.860
   0   7  -2  360.30    8.03
   0   7  -2  307.72   23.49
   0   7  -2  371.14   21.60
   0  -7   2  373.73   16.47
   0  -7   2  368.94   19.50
   0  -7   2  415.03   18.75
   0  -7   2  384.05   16.95
  -1   7  -2  85.249   3.098
  -1   7  -2  77.641   3.554
   1  -7   2  76.991   4.821
   1  -7   2  85.735   4.967
   1  -7   2  79.272   5.369
  -2   7  -2  13.712   1.410
  -2   7  -2  11.905   1.810
  -2   7  -2  12.982   1.292
   2  -7   2  13.358   1.893
   2  -7   2  19.020   2.127
   2  -7   2  17.016   2.860
   2  -7   2  15.580   3.753
  -3   7  -2  1.8837  1.8474
   3  -7   2  1.3545  1.1435
   3  -7   2  1.2770  0.9909
   3  -7   2  0.3340  3.0887
   3  -7   2  -1.547   4.008
  -4   7  -2  5.6044  2.5486
   4  -7   2  10.382   1.965
   4  -7   2  7.2265  1.8285
   4  -7   2  7.8782  5.9036
  -5   7  -2  37.535   4.553
   5  -7   2  37.746   4.119
   5  -7   2  40.454   4.675
   5  -7   2  31.919   8.954
   6   6  -2  1.7847  1.4296
  -6  -6   2  1.3471  1.8558
  -6  -6   2  2.7077  1.5596
  -6  -6   2   3.210  11.835
   5   6  -2  5.9231  1.4887
  -5  -6   2  1.4242  1.6475
  -5  -6   2  3.5375  1.9696
  -5  -6   2  -4.655   9.056
   4   6  -2  140.03    4.94
  -4  -6   2  141.64    6.78
  -4  -6   2  143.61    6.04
  -4  -6   2  136.34   11.77
   3   6  -2  495.86   34.30
   3   6  -2  535.98   13.16
   3   6  -2  531.96   20.90
  -3  -6   2  523.41   17.26
  -3  -6   2  512.54   29.55
  -3  -6   2  587.65   36.87
  -3  -6   2  594.32   42.97
   2   6  -2  130.76    6.34
   2   6  -2  136.19    9.99
   2   6  -2  132.07    8.84
   2   6  -2  127.69    6.02
  -2  -6   2  131.57    7.02
  -2  -6   2  126.19    7.70
  -2  -6   2  133.66    6.13
   2   6  -2  116.74   12.60
  -2  -6   2  133.35    8.04
  -2  -6   2  130.36    9.92
   1   6  -2  259.25   16.68
   1   6  -2  243.76   12.80
   1   6  -2  253.77    8.95
   1   6  -2  251.19   13.72
  -1  -6   2  244.58   10.61
  -1  -6   2  248.59    8.92
  -1  -6   2  255.56   13.86
  -1  -6   2  289.66   16.81
  -1  -6   2  279.80   16.79
   0   6  -2  23.213   1.742
   0   6  -2  24.407   1.792
   0   6  -2  19.835   1.720
   0   6  -2  23.821   1.633
   0  -6   2  23.854   1.624
   0  -6   2  24.238   2.376
   0   6  -2  18.099   3.321
   0  -6   2  20.091   2.326
   0  -6   2  24.810   3.052
  -1   6  -2  76.259   3.197
  -1   6  -2  76.067   4.029
  -1   6  -2  77.889   3.891
  -1   6  -2  75.022   3.265
   1  -6   2  78.983   4.255
   1  -6   2  85.062   4.234
  -1   6  -2  62.942   6.800
   1  -6   2  76.864   5.719
   1  -6   2  82.186   5.524
  -2   6  -2  505.41   33.67
  -2   6  -2  514.77   19.37
   2  -6   2  554.71   31.22
   2  -6   2  528.11   25.83
  -2   6  -2  535.10   57.93
   2  -6   2  587.39   32.93
   2  -6   2  574.47   25.65
  -3   6  -2  623.40   22.73
   3  -6   2  620.05   19.74
   3  -6   2  631.06   22.84
   3  -6   2  711.21   60.06
   3  -6   2  737.16   35.02
  -4   6  -2  11.546   2.422
   4  -6   2  13.549   1.980
   4  -6   2  12.924   1.608
   4  -6   2  8.0335  5.8448
  -5   6  -2  84.641   6.337
   5  -6   2  89.329   6.902
   5  -6   2  89.956   5.908
   5  -6   2  84.969  12.669
  -6   6  -2 -0.3991  3.7205
   6  -6   2  11.742  12.019
   7   5  -2  25.709   3.236
  -7  -5   2  30.846   4.137
  -7  -5   2  25.793   3.961
  -7  -5   2  21.064  13.550
   6   5  -2  231.13   13.24
  -6  -5   2  216.28   11.18
  -6  -5   2  227.38   11.24
  -6  -5   2  243.96   23.40
   5   5  -2  119.83    5.76
  -5  -5   2  107.16    8.17
  -5  -5   2  125.10    5.30
  -5  -5   2  132.00   15.34
   4   5  -2  109.42    4.43
   4   5  -2  120.55    5.06
   4   5  -2  109.87    6.15
  -4  -5   2  118.06    8.02
  -4  -5   2  121.66    5.71
  -4  -5   2  119.84   10.06
   3   5  -2  419.43   21.65
   3   5  -2  402.90   31.18
   3   5  -2  438.82   14.82
  -3  -5   2  445.68   32.04
  -3  -5   2  463.70   19.12
   3   5  -2  455.28   26.79
  -3  -5   2  456.72   27.44
  -3  -5   2  471.84   26.88
   2   5  -2  135.49    8.50
   2   5  -2  130.75   10.32
   2   5  -2  136.04    5.24
   2   5  -2  125.48    7.28
  -2  -5   2  145.50    9.90
  -2  -5   2  145.85    5.98
  -2  -5   2  140.19    7.57
   2   5  -2  141.87    9.40
  -2  -5   2  150.05   10.12
  -2  -5   2  159.63   11.13
   1   5  -2  52.084   3.027
   1   5  -2  49.070   3.163
   1   5  -2  49.970   2.650
   1   5  -2  59.694   2.287
  -1  -5   2  53.363   2.709
  -1  -5   2  55.792   2.604
  -1  -5   2  54.355   2.404
   1   5  -2  47.502   4.797
  -1  -5   2  48.924   4.532
  -1  -5   2  51.393   4.276
   0   5  -2  74.401   4.682
   0   5  -2  75.051   3.775
   0   5  -2  75.738   3.357
   0   5  -2  76.838   4.547
   0   5  -2  80.095   4.689
   0  -5   2  77.157   4.763
   0  -5   2  77.911   3.458
   0   5  -2  60.348   6.244
   0  -5   2  87.312   5.468
   0  -5   2  73.225   5.115
  -1   5  -2  530.05   12.92
  -1   5  -2  530.98   19.61
  -1   5  -2  514.90   13.75
  -1   5  -2  529.90   34.55
   1  -5   2  520.51   19.02
   1  -5   2  523.78   20.29
   1  -5   2  516.53   33.78
  -1   5  -2  550.24   38.36
   1  -5   2  532.02   37.20
   1  -5   2  563.64   28.26
  -2   5  -2  5.3316  0.9175
  -2   5  -2  5.1346  0.8223
  -2   5  -2  3.7633  0.7841
  -2   5  -2  4.7557  0.6930
   2  -5   2  5.2245  0.8989
   2  -5   2  5.5586  0.8664
  -2   5  -2  6.0563  3.3696
   2  -5   2  7.7617  3.4099
   2  -5   2  2.0604  2.8278
  -3   5  -2  252.72    7.69
  -3   5  -2  238.51   18.69
  -3   5  -2  250.23   19.65
   3  -5   2  251.50    9.60
   3  -5   2  257.20    7.95
   3  -5   2  289.17   17.51
   3  -5   2  279.19   15.73
  -4   5  -2  89.765   4.895
  -4   5  -2  78.305   4.131
   4  -5   2  85.725   4.574
   4  -5   2  91.072   4.363
   4  -5   2  91.071  10.436
   4  -5   2  108.73    9.00
  -5   5  -2  78.718   6.327
   5  -5   2  81.260   4.559
   5  -5   2  78.985   5.269
   5  -5   2  56.127   9.560
  -6   5  -2  103.62    8.69
   6  -5   2  106.72    8.79
   6  -5   2  113.99    8.20
   6  -5   2  126.85   15.53
   7   4  -2  8.0002  1.8556
  -7  -4   2  4.8409  2.2309
  -7  -4   2  6.0372  2.8266
  -7  -4   2  22.994  14.892
   6   4  -2  4.6834  1.6524
  -6  -4   2  2.8686  1.9274
  -6  -4   2  3.2838  1.0420
  -6  -4   2  0.3103  1.6524
  -6  -4   2   3.471  10.740
   5   4  -2  73.610   3.975
  -5  -4   2  74.323   3.827
  -5  -4   2  77.533   4.363
  -5  -4   2  71.544   3.900
  -5  -4   2  46.110  10.315
   4   4  -2  95.444   4.285
   4   4  -2  100.16    4.35
   4   4  -2  96.726   3.249
   4   4  -2  91.933   9.017
  -4  -4   2  103.53    3.81
  -4  -4   2  97.006  12.846
  -4  -4   2  100.29    7.46
   4   4  -2  100.80   11.00
  -4  -4   2  107.13   11.61
  -4  -4   2  81.987   8.087
   3   4  -2  20.824   1.606
   3   4  -2  25.267   1.372
   3   4  -2  24.919   1.819
  -3  -4   2  23.331   1.790
  -3  -4   2  26.779   1.723
   3   4  -2  14.108   4.689
  -3  -4   2  19.010   5.096
  -3  -4   2  19.970   5.078
   2   4  -2 5274.15  455.75
  -2  -4   2 4919.69  196.69
  -2  -4   2 5481.54  292.16
   1   4  -2  86.591   5.759
   1   4  -2  88.780   3.135
   1   4  -2  97.670   7.028
   1   4  -2  93.964   6.863
   1   4  -2  94.602   3.621
  -1  -4   2  93.386   5.100
  -1  -4   2  94.072   4.613
  -1  -4   2  89.115   3.895
  -1  -4   2  91.195   5.753
   1   4  -2  91.792   7.954
   1   4  -2  88.132   6.563
  -1  -4   2  88.731   6.058
  -1  -4   2  88.572   5.770
   0   4  -2  26.924   2.156
   0   4  -2  30.448   1.727
   0   4  -2  28.102   1.462
   0   4  -2  28.649   1.230
   0   4  -2  27.352   1.419
   0   4  -2  28.038   1.528
   0   4  -2  27.784   1.404
   0  -4   2  29.187   1.710
   0  -4   2  27.179   1.768
   0  -4   2  28.100   1.848
   0  -4   2  26.810   1.150
   0   4  -2  25.681   2.530
   0   4  -2  27.021   2.789
   0  -4   2  26.619   4.884
   0  -4   2  31.687   2.598
  -1   4  -2  258.29   16.83
  -1   4  -2  290.78   11.39
  -1   4  -2  283.68    8.97
  -1   4  -2  293.41   11.51
  -1   4  -2  272.15    8.34
  -1   4  -2  281.70   22.14
  -1   4  -2  281.86   15.00
  -1   4  -2  283.87   18.14
   1  -4   2  280.06   24.24
   1  -4   2  267.59   10.13
   1  -4   2  276.50    9.81
  -1   4  -2  300.11   15.91
  -1   4  -2  286.47   16.90
   1  -4   2  289.67   12.63
   1  -4   2  291.49   16.37
  -2   4  -2  28.788   1.652
  -2   4  -2  35.238   1.961
  -2   4  -2  32.514   1.947
  -2   4  -2  30.758   2.132
   2  -4   2  31.139   1.772
   2  -4   2  36.178   2.666
   2  -4   2  31.626   1.861
  -2   4  -2  29.157   4.306
   2  -4   2  29.278   3.719
   2  -4   2  41.027   4.273
  -3   4  -2  1.8272  0.2817
  -3   4  -2  2.0111  0.2846
  -3   4  -2  1.7212  0.6792
  -3   4  -2  1.5437  1.2916
   3  -4   2  2.1078  1.0240
   3  -4   2  2.8469  0.9870
  -3   4  -2  0.2692  3.4668
   3  -4   2  3.6041  3.0316
   3  -4   2  4.1886  4.1113
  -4   4  -2  494.93   36.38
  -4   4  -2  512.99   17.41
   4  -4   2  502.35   20.52
   4  -4   2  493.07   16.72
   4  -4   2  562.58   33.29
   4  -4   2  590.19   32.27
  -5   4  -2  4.9082  1.3386
  -5   4  -2  7.1309  1.5300
   5  -4   2  5.5547  1.1393
   5  -4   2  7.8281  1.4358
   5  -4   2  3.7993  6.1699
  -6   4  -2  138.12    8.35
  -6   4  -2  155.75    9.13
   6  -4   2  147.29   10.12
   6  -4   2  154.52    8.34
   6  -4   2  139.22   15.80
  -7   4  -2  81.566   6.533
   7  -4   2  87.514  15.443
   7   3  -2  196.49    7.13
   7   3  -2  205.49   14.93
  -7  -3   2  176.29   10.30
  -7  -3   2  182.21   10.61
  -7  -3   2  161.95    9.83
  -7  -3   2  144.17   20.66
   6   3  -2  131.61    5.84
  -6  -3   2  135.72    7.87
  -6  -3   2  124.03    6.52
  -6  -3   2  140.92   15.76
   5   3  -2  -1.255   0.949
   5   3  -2 -0.8814  0.5063
   5   3  -2  2.0362  1.2510
   5   3  -2 -0.5006  0.5368
  -5  -3   2 -0.5235  0.9232
  -5  -3   2  1.4536  0.7827
  -5  -3   2 -0.2801  1.3464
   5   3  -2 -0.4123  6.7765
  -5  -3   2  -5.957   7.159
  -5  -3   2  0.1676  6.1432
   4   3  -2  158.79    5.70
   4   3  -2  153.69    6.40
   4   3  -2  146.63   10.44
   4   3  -2  148.36    5.07
  -4  -3   2  162.39    7.38
  -4  -3   2  154.13    5.17
   4   3  -2  139.21   12.08
  -4  -3   2  142.20   13.13
   3   3  -2  2.3295  0.4406
   3   3  -2  1.3194  1.0308
   3   3  -2  2.0198  0.4999
   3   3  -2  1.2826  0.6445
   3   3  -2  1.9875  1.0482
  -3  -3   2  2.6464  1.0040
  -3  -3   2  1.0771  0.6597
  -3  -3   2  1.2772  0.5143
   3   3  -2  2.4069  3.3187
   3   3  -2  0.1784  2.3790
  -3  -3   2  0.3485  3.1829
  -3  -3   2  2.1294  3.2092
   2   3  -2 1715.62  124.54
   2   3  -2 1615.79   65.20
   2   3  -2 1567.99   69.81
   2   3  -2 1711.40   99.51
  -2  -3   2 1672.31   78.89
  -2  -3   2 1639.76   83.78
  -2  -3   2 1616.27   69.82
   2   3  -2 1710.86   92.72
   2   3  -2 1774.28   78.38
  -2  -3   2 1531.68   90.64
  -2  -3   2 1611.97   59.53
   1   3  -2  334.84   15.13
   1   3  -2  332.67   16.26
   1   3  -2  342.41   16.10
   1   3  -2  317.94   13.53
   1   3  -2  312.95   20.89
  -1  -3   2  318.16   12.34
  -1  -3   2  309.14   11.95
  -1  -3   2  332.34   19.21
  -1  -3   2  331.72   19.71
   1   3  -2  346.25   23.07
   1   3  -2  349.82   12.85
  -1  -3   2  334.14   22.01
  -1  -3   2  303.78   18.62
   0   3  -2  173.40    6.27
   0   3  -2  169.26    5.44
   0   3  -2  166.04   11.67
   0   3  -2  160.02    5.17
   0   3  -2  157.95    9.00
   0   3  -2  166.01    7.60
   0  -3   2  162.17    5.27
   0  -3   2  169.51    6.70
   0  -3   2  159.94    6.27
   0  -3   2  144.78    7.47
   0  -3   2  165.16    5.68
   0   3  -2  169.76    9.71
   0   3  -2  171.52   12.33
   0  -3   2  163.85    7.79
   0  -3   2  160.42    6.16
  -1   3  -2  39.070   2.016
  -1   3  -2  38.553   2.403
  -1   3  -2  37.657   1.882
  -1   3  -2  39.047   2.680
  -1   3  -2  39.059   1.743
  -1   3  -2  39.645   2.065
  -1   3  -2  39.396   2.476
   1  -3   2  36.664   1.899
   1  -3   2  41.924   2.485
   1  -3   2  40.715   2.666
  -1   3  -2  37.534   3.388
  -1   3  -2  33.327   3.569
   1  -3   2  39.403   3.014
   1  -3   2  40.315   3.560
  -2   3  -2  214.31    9.83
  -2   3  -2  228.26    7.07
  -2   3  -2  218.52    8.85
  -2   3  -2  212.58    7.82
   2  -3   2  222.07    9.01
   2  -3   2  208.43    7.06
   2  -3   2  220.66    7.32
  -2   3  -2  209.07    9.87
  -2   3  -2  216.33   15.14
   2  -3   2  209.00   10.30
   2  -3   2  214.98   10.25
  -3   3  -2  7.5258  1.1645
  -3   3  -2  7.4113  0.7972
  -3   3  -2  6.8579  1.3273
   3  -3   2  6.6683  0.8079
   3  -3   2  6.4469  0.9099
  -3   3  -2  6.1090  3.2180
   3  -3   2  1.7105  2.5157
   3  -3   2  7.4085  3.2969
  -4   3  -2  3.6307  0.8141
  -4   3  -2  6.2249  1.3387
   4  -3   2  6.2676  0.9282
   4  -3   2  5.6274  0.8457
  -4   3  -2  -1.265   5.369
   4  -3   2  0.4379  5.6521
   4  -3   2  0.7419  4.8602
  -5   3  -2  2.5148  1.4236
  -5   3  -2  1.3571  1.2268
   5  -3   2  1.3798  0.8698
   5  -3   2  0.1375  0.9204
   5  -3   2  -2.722   4.838
  -6   3  -2  5.7028  1.8892
  -6   3  -2  6.3873  2.3624
   6  -3   2  6.7824  1.2371
   6  -3   2  4.8611  1.3693
   6  -3   2  4.6564  6.0129
  -7   3  -2  63.941   5.640
  -7   3  -2  79.855   6.254
   7  -3   2  82.892   5.856
   7  -3   2  77.931   5.152
   7  -3   2  71.675  15.432
   7   2  -2  -2.059   1.796
   7   2  -2  0.2542  1.3359
  -7  -2   2  -1.839   1.889
  -7  -2   2  -4.774   2.137
   6   2  -2  39.436   2.677
   6   2  -2  37.528   2.802
   6   2  -2  39.805   1.837
  -6  -2   2  39.461   2.236
  -6  -2   2  38.780   2.652
   6   2  -2  25.210  11.393
  -6  -2   2  36.281  11.455
   5   2  -2  33.765   1.919
   5   2  -2  35.689   1.830
   5   2  -2  29.221   4.196
   5   2  -2  33.221   2.649
  -5  -2   2  38.127   3.338
  -5  -2   2  33.930   2.864
  -5  -2   2  34.460   2.659
   5   2  -2  23.504   6.117
  -5  -2   2  43.911  10.372
  -5  -2   2  25.787   8.410
   4   2  -2  0.6822  0.8782
   4   2  -2  0.8365  0.4011
   4   2  -2  0.2937  0.8836
   4   2  -2  1.8453  0.5015
   4   2  -2  0.7882  0.7210
   4   2  -2  1.8645  0.8727
  -4  -2   2  2.5041  0.6504
  -4  -2   2  1.1175  0.7577
  -4  -2   2  1.4606  0.6860
   4   2  -2  1.2927  4.7365
   4   2  -2 -0.0712  3.6670
  -4  -2   2  4.6436  4.0436
  -4  -2   2  -3.213   5.089
   3   2  -2  175.76   13.66
   3   2  -2  176.37   10.84
   3   2  -2  175.08    8.67
   3   2  -2  170.56    7.06
   3   2  -2  170.14    7.88
   3   2  -2  165.82    7.43
  -3  -2   2  175.82    9.49
  -3  -2   2  163.68   10.88
  -3  -2   2  179.86   12.37
  -3  -2   2  164.58    5.92
   3   2  -2  171.52   11.42
   3   2  -2  167.77   10.13
  -3  -2   2  160.10    8.72
  -3  -2   2  176.83   13.68
   2   2  -2  481.92   27.96
   2   2  -2  519.15   21.04
   2   2  -2  503.32   18.48
   2   2  -2  512.78   19.71
   2   2  -2  549.50   31.13
  -2  -2   2  543.05   33.43
  -2  -2   2  507.95   27.46
  -2  -2   2  520.49   29.97
   2   2  -2  552.80   26.60
   2   2  -2  517.52   21.74
  -2  -2   2  548.23   33.85
  -2  -2   2  517.69   23.28
   1   2  -2 9999.00  316.04
  -1  -2   2 9724.76  654.21
   0   2  -2 2321.54  129.61
   0   2  -2 2322.95  112.19
   0   2  -2 2170.73  100.18
   0  -2   2 2317.07  114.01
   0  -2   2 2320.77   77.56
   0  -2   2 2106.07  116.74
   0   2  -2 2487.66  154.18
   0   2  -2 2640.97  110.13
   0  -2   2 2508.85   97.61
   0  -2   2 2525.03  140.33
  -1   2  -2  1.5685  0.5032
  -1   2  -2  0.6597  0.3281
  -1   2  -2  1.0711  0.5428
  -1   2  -2  1.1989  0.1980
  -1   2  -2  0.6736  0.3273
  -1   2  -2  1.1999  0.4267
   1  -2   2  1.5699  0.4642
   1  -2   2  1.2515  0.5854
   1  -2   2  0.4275  0.3879
  -1   2  -2  1.3462  1.4938
  -1   2  -2  1.3152  1.1429
   1  -2   2  0.3672  0.7731
   1  -2   2 -0.3482  1.5652
  -2   2  -2 1642.76   54.40
  -2   2  -2 1650.14   69.22
  -2   2  -2 1803.84   85.34
   2  -2   2 1628.02   66.65
   2  -2   2 1705.08   69.49
   2  -2   2 1670.16   81.87
  -2   2  -2 1797.94  119.84
  -2   2  -2 1890.17  101.69
   2  -2   2 1784.51   84.97
   2  -2   2 1808.54  115.76
  -3   2  -2  98.199   4.731
  -3   2  -2  94.099   5.620
  -3   2  -2  95.210   2.938
  -3   2  -2  94.793   4.457
  -3   2  -2  91.753   7.371
  -3   2  -2  104.51    5.31
   3  -2   2  91.069   4.329
   3  -2   2  95.272   2.878
   3  -2   2  87.989   2.800
  -3   2  -2  88.691   7.513
  -3   2  -2  72.323   6.730
   3  -2   2  88.120   6.635
   3  -2   2  84.379   7.538
  -4   2  -2  559.28   13.16
  -4   2  -2  573.51   43.24
   4  -2   2  554.53   20.14
   4  -2   2  537.23   11.38
  -4   2  -2  642.45   44.95
   4  -2   2  656.81   26.51
   4  -2   2  615.27   35.21
  -5   2  -2  46.523   3.013
  -5   2  -2  54.926   3.615
   5  -2   2  50.899   2.940
   5  -2   2  37.968   2.651
   5  -2   2  52.178  10.427
   5  -2   2  32.257   7.885
  -6   2  -2  26.931   2.760
  -6   2  -2  31.776   2.911
   6  -2   2  35.703   3.399
   6  -2   2  26.432   9.774
  -7   2  -2  3.0450  1.7735
  -7   2  -2  4.8273  2.0873
   7  -2   2  0.2735  1.9326
   7  -2   2  12.688   9.548
   7   1  -2  5.2599  1.6132
   7   1  -2  4.7593  2.2332
  -7  -1   2  5.2518  1.8470
  -7  -1   2  0.9512  2.2451
   6   1  -2  2.7261  1.1441
   6   1  -2  2.4188  1.2541
   6   1  -2  1.7113  1.0992
  -6  -1   2  2.0821  1.2107
  -6  -1   2  1.8094  1.1963
   6   1  -2 -0.5783  4.8266
  -6  -1   2  0.8844  9.0798
   5   1  -2  9.8748  1.2544
   5   1  -2  11.270   1.057
   5   1  -2  11.197   1.561
   5   1  -2  9.1668  1.0557
  -5  -1   2  11.578   1.395
  -5  -1   2  9.1616  1.2847
  -5  -1   2  10.308   1.321
   5   1  -2  13.792   7.218
   5   1  -2  5.6199  5.4838
  -5  -1   2  21.346   7.131
  -5  -1   2  11.238   7.951
   4   1  -2  35.877   1.730
   4   1  -2  37.620   1.760
   4   1  -2  36.177   2.277
   4   1  -2  36.213   1.880
   4   1  -2  39.717   2.410
  -4  -1   2  35.939   2.975
  -4  -1   2  37.803   2.283
  -4  -1   2  37.180   2.262
   4   1  -2  31.829   8.121
   4   1  -2  38.971   6.623
  -4  -1   2  42.479   8.401
  -4  -1   2  30.999   6.633
   3   1  -2  663.70   18.67
   3   1  -2  641.93   21.28
   3   1  -2  722.40   50.89
   3   1  -2  652.30   25.67
   3   1  -2  704.46   33.20
   3   1  -2  709.89   41.14
  -3  -1   2  664.71   21.83
  -3  -1   2  669.98   20.25
  -3  -1   2  724.63   26.12
  -3  -1   2  675.04   25.93
   3   1  -2  667.42   27.10
   3   1  -2  732.83   26.83
  -3  -1   2  684.60   28.33
  -3  -1   2  733.55   39.02
   2   1  -2  254.29    9.63
   2   1  -2  255.89   13.30
   2   1  -2  262.52   14.78
   2   1  -2  243.53   10.58
   2   1  -2  275.17   17.59
   2   1  -2  256.15   12.72
   2   1  -2  264.91   12.47
  -2  -1   2  273.53   13.50
  -2  -1   2  268.17   14.81
  -2  -1   2  253.27    9.50
  -2  -1   2  253.94   15.86
   2   1  -2  265.45   20.88
   2   1  -2  236.39   12.10
  -2  -1   2  281.36   12.59
  -2  -1   2  275.36   13.82
   1   1  -2 1596.49   79.46
   1   1  -2 1674.74  139.57
   1   1  -2 1669.59  102.72
   1   1  -2 1632.91   73.32
   1   1  -2 1560.97   82.71
  -1  -1   2 1685.63   94.15
  -1  -1   2 1510.75   54.25
  -1  -1   2 1685.25   62.32
  -1  -1   2 1586.18   73.10
   1   1  -2 1794.51   75.61
   1   1  -2 1587.88   72.80
  -1  -1   2 1639.15   82.62
  -1  -1   2 1745.48   99.42
   0   1  -2 3380.97  206.80
   0   1  -2 3606.44  180.57
   0  -1   2 3615.06  213.05
  -1   1  -2  173.75    6.56
  -1   1  -2  173.32    7.93
  -1   1  -2  168.99    7.45
  -1   1  -2  168.20   12.60
   1  -1   2  170.69   13.36
   1  -1   2  172.96    9.12
   1  -1   2  162.19   10.69
  -1   1  -2  170.20   11.26
  -1   1  -2  172.85   11.48
   1  -1   2  184.13   11.52
  -2   1  -2  14.327   1.129
  -2   1  -2  14.688   1.039
  -2   1  -2  14.353   0.934
  -2   1  -2  13.475   0.722
  -2   1  -2  15.004   1.012
   2  -1   2  13.433   0.717
   2  -1   2  12.579   1.163
   2  -1   2  15.379   0.930
  -2   1  -2  12.092   2.166
  -2   1  -2  12.453   2.074
   2  -1   2  16.882   3.227
   2  -1   2  14.260   2.011
  -3   1  -2  1.2346  0.5700
  -3   1  -2  0.1245  0.8046
  -3   1  -2  2.0633  0.5820
  -3   1  -2  1.6581  0.5435
  -3   1  -2  0.6159  0.8184
  -3   1  -2  1.9366  0.7842
   3  -1   2  1.2648  0.8841
   3  -1   2  0.9685  0.6861
   3  -1   2  1.7011  0.6226
   3  -1   2  1.5893  0.2576
  -3   1  -2  13.273   4.299
  -3   1  -2  2.2547  2.4648
   3  -1   2  0.6565  3.7423
   3  -1   2  1.9273  2.6934
  -4   1  -2  7.6977  1.2869
  -4   1  -2  10.253   1.411
  -4   1  -2  7.6752  1.3042
  -4   1  -2  9.9563  1.6711
   4  -1   2  8.9326  1.0262
   4  -1   2  7.4869  0.6605
   4  -1   2  7.0612  0.8042
  -4   1  -2  9.2352  4.6758
  -4   1  -2  3.3362  4.5212
   4  -1   2  4.9726  4.9784
   4  -1   2  7.6898  6.2483
  -5   1  -2  4.7523  1.4527
  -5   1  -2  5.9471  1.2913
   5  -1   2  6.5624  1.1918
   5  -1   2  6.3336  0.5155
   5  -1   2  5.5551  0.9393
   5  -1   2  6.3197  0.6606
  -5   1  -2  2.6503  5.1280
   5  -1   2  13.434   9.400
   5  -1   2  2.3013  3.9743
  -6   1  -2  6.4568  1.7520
  -6   1  -2  5.8692  1.9024
   6  -1   2  6.0402  1.5393
   6  -1   2  5.4210  7.5300
  -7   1  -2  46.600   3.022
  -7   1  -2  48.758   5.032
   7  -1   2  55.633   4.384
   7  -1   2  38.450  10.137
   7   0  -2  4.7131  1.6270
   7   0  -2  7.9137  1.9216
   7   0  -2  11.741   2.035
  -7   0   2  5.7891  2.6033
  -7   0   2  8.8097  2.5939
   7   0  -2  -3.592   7.305
   6   0  -2  191.19   10.58
   6   0  -2  189.64    7.25
   6   0  -2  188.59    9.63
  -6   0   2  170.88   15.69
  -6   0   2  182.15    7.43
   6   0  -2  181.66   14.51
   5   0  -2  145.69    5.87
   5   0  -2  138.69    8.22
   5   0  -2  144.68    7.82
   5   0  -2  144.28    6.27
   5   0  -2  141.40    5.06
  -5   0   2  149.11    5.77
  -5   0   2  145.25    5.77
   5   0  -2  129.05   10.33
   5   0  -2  125.45   14.33
  -5   0   2  134.79   11.81
   4   0  -2  24.290   1.423
   4   0  -2  21.982   1.240
   4   0  -2  25.075   2.264
   4   0  -2  23.630   1.816
   4   0  -2  26.483   1.435
   4   0  -2  25.909   1.996
  -4   0   2  24.135   1.641
  -4   0   2  24.510   1.619
  -4   0   2  26.337   1.646
  -4   0   2  24.009   1.915
   4   0  -2  22.754   6.515
   4   0  -2  20.690   4.896
  -4   0   2  28.890   6.631
  -4   0   2  19.201   5.948
   3   0  -2  824.14   65.66
   3   0  -2  741.26   30.41
   3   0  -2  751.69   26.17
   3   0  -2  788.56   22.22
   3   0  -2  800.33   17.36
  -3   0   2  832.99   26.68
  -3   0   2  865.69   31.04
  -3   0   2  807.51   52.08
  -3   0   2  803.81   22.88
  -3   0   2  875.60   21.60
   3   0  -2  868.65   30.85
   3   0  -2  814.13   44.25
  -3   0   2  872.53   43.10
  -3   0   2  888.91   45.72
   2   0  -2  493.33   13.30
   2   0  -2  476.70   16.72
   2   0  -2  480.54   19.42
   2   0  -2  465.14   22.47
   2   0  -2  465.35   19.29
  -2   0   2  498.43   22.05
  -2   0   2  473.74   23.50
  -2   0   2  504.29   29.00
  -2   0   2  499.42   28.88
  -2   0   2  491.88   20.65
   2   0  -2  533.38   40.22
  -2   0   2  513.24   27.80
  -2   0   2  543.13   27.01
   1   0  -2  289.29   16.37
   1   0  -2  311.34   15.23
   1   0  -2  317.21   16.42
   1   0  -2  316.92   11.20
   1   0  -2  312.29   18.55
   1   0  -2  308.05   10.45
  -1   0   2  318.68   16.16
  -1   0   2  305.41   14.63
  -1   0   2  310.85   14.71
  -1   0   2  317.97   12.58
   1   0  -2  337.22   21.03
   1   0  -2  304.79   16.17
  -1   0   2  344.35   18.96
  -1   0   2  307.53   15.80
   0   0  -2  95.411   5.967
   0   0  -2  98.595   5.248
   0   0  -2  86.360   4.991
   0   0  -2  98.764   5.102
   0   0   2  100.15    4.82
   0   0   2  92.477   4.470
   0   0   2  96.174   6.834
   0   0   2  88.501   5.381
   0   0   2  107.62    8.01
   0   0   2  94.376   5.080
   0   0  -2  74.524   4.352
   0   0  -2  85.717   4.442
   0   0   2  77.956   3.905
   0   0   2  85.889   4.485
  -1   0  -2  26.320   1.473
  -1   0  -2  25.634   1.195
  -1   0  -2  25.119   1.056
  -1   0  -2  24.038   1.201
  -1   0  -2  24.922   1.087
   1   0   2  24.815   1.267
   1   0   2  25.791   1.056
   1   0   2  24.893   1.828
   1   0   2  25.265   1.192
  -1   0  -2  25.391   2.442
  -1   0  -2  25.146   2.323
   1   0   2  23.506   2.099
   1   0   2  26.075   2.308
  -2   0  -2  580.42   26.81
  -2   0  -2  598.28   18.09
  -2   0  -2  591.84   23.01
  -2   0  -2  632.99   34.74
  -2   0  -2  562.10   30.53
   2   0   2  572.12   14.75
   2   0   2  587.35   19.31
   2   0   2  567.30   35.86
   2   0   2  602.59   37.83
  -2   0  -2  610.08   22.83
  -2   0  -2  634.49   24.29
   2   0   2  578.76   30.49
   2   0   2  626.02   24.27
  -3   0  -2  509.80   14.36
  -3   0  -2  529.65   23.31
  -3   0  -2  500.73   23.81
  -3   0  -2  538.59   39.59
  -3   0  -2  543.71   23.45
   3   0   2  484.13   15.27
   3   0   2  478.66   17.64
   3   0   2  513.67   30.47
   3   0   2  514.31   14.15
   3   0   2  504.84   39.30
  -3   0  -2  509.19   22.34
  -3   0  -2  526.43   17.30
   3   0   2  525.03   18.63
   3   0   2  516.25   22.62
  -4   0  -2  55.110   2.831
  -4   0  -2  67.849   3.455
  -4   0  -2  66.639   2.858
  -4   0  -2  60.934   5.609
   4   0   2  56.752   3.724
   4   0   2  61.550   2.080
   4   0   2  60.805   2.282
   4   0   2  60.710   2.205
  -4   0  -2  58.161   8.377
  -4   0  -2  46.751   5.605
   4   0   2  52.697   5.868
   4   0   2  64.569   8.730
  -5   0  -2  198.01   14.94
  -5   0  -2  187.91    7.46
  -5   0  -2  216.77   12.77
  -5   0  -2  207.17   17.53
   5   0   2  205.99    9.27
   5   0   2  202.54    8.23
   5   0   2  208.54    8.25
  -5   0  -2  194.77   16.76
   5   0   2  209.86   13.68
   5   0   2  202.57   16.62
  -6   0  -2  117.35    7.50
  -6   0  -2  122.48    6.10
   6   0   2  123.55    6.95
   6   0   2  118.95    7.71
   6   0   2  102.38   12.10
  -7   0  -2  142.13   11.77
  -7   0  -2  148.32   10.44
   7   0   2  155.25    8.30
   7   0   2  129.80   18.87
  -8   0  -2  109.53    7.07
  -8   0  -2  102.93    8.10
   8   0   2  114.61    9.35
   7  -1  -2  34.639   2.689
   7  -1  -2  27.060   2.529
  -7   1   2  34.792   3.125
  -7   1   2  28.319   2.952
   7  -1  -2  16.921   9.188
   6  -1  -2  98.418   5.014
   6  -1  -2  99.674   4.283
  -6   1   2  98.602   8.884
  -6   1   2  95.077   5.750
   6  -1  -2  71.886   9.852
   5  -1  -2  201.84   12.09
   5  -1  -2  222.05    9.19
   5  -1  -2  218.79    5.93
   5  -1  -2  211.41    5.95
   5  -1  -2  208.92    9.57
  -5   1   2  213.76   14.49
  -5   1   2  213.70   14.25
   5  -1  -2  247.80   18.77
   5  -1  -2  196.44   15.68
  -5   1   2  204.63   15.77
   4  -1  -2  49.841   2.404
   4  -1  -2  50.821   2.974
   4  -1  -2  55.128   3.005
   4  -1  -2  54.889   2.302
   4  -1  -2  50.445   4.090
  -4   1   2  53.669   3.023
  -4   1   2  55.871   3.218
  -4   1   2  54.347   2.757
  -4   1   2  49.183   3.824
   4  -1  -2  47.747   6.907
   4  -1  -2  45.497   6.635
  -4   1   2  47.796   6.464
  -4   1   2  37.893   6.825
   3  -1  -2 1363.09   56.12
   3  -1  -2 1464.19   71.54
   3  -1  -2 1382.64   34.74
   3  -1  -2 1349.67   73.32
   3  -1  -2 1449.04   43.69
  -3   1   2 1441.46   64.86
  -3   1   2 1380.11   32.65
  -3   1   2 1505.39   38.88
  -3   1   2 1436.68   49.06
  -3   1   2 1369.44   72.49
   3  -1  -2 1331.26   47.80
   3  -1  -2 1530.07   79.22
  -3   1   2 1471.59   60.53
  -3   1   2 1572.21   79.27
   2  -1  -2 2305.58  123.50
   2  -1  -2 2359.77  184.67
  -2   1   2 2409.07  111.13
  -2   1   2 2452.16  150.87
   1  -1  -2  7.8448  0.7831
   1  -1  -2  7.7213  0.6031
   1  -1  -2  9.0257  0.5872
   1  -1  -2  7.9487  0.7284
   1  -1  -2  8.7603  0.8108
   1  -1  -2  8.2893  0.4407
  -1   1   2  8.9030  0.5642
  -1   1   2  8.4403  0.6053
  -1   1   2  7.5317  0.4646
  -1   1   2  9.0722  0.5664
  -1   1   2  7.5526  0.7140
   1  -1  -2  10.791   1.852
  -1   1   2  7.5029  1.5560
  -1   1   2  7.4787  1.2985
   0  -1  -2 2879.82  140.21
   0  -1  -2 2956.67  135.17
   0   1   2 2936.79  144.76
   0   1   2 2952.89  136.00
  -1  -1  -2 6127.47  279.10
   1   1   2 6760.21  186.45
   1   1   2 6170.27  249.10
  -2  -1  -2  383.56   22.89
  -2  -1  -2  352.95   14.44
  -2  -1  -2  371.18   16.79
  -2  -1  -2  378.25   15.58
  -2  -1  -2  373.13   17.09
   2   1   2  342.71    9.48
   2   1   2  374.45   23.77
   2   1   2  352.58   25.08
   2   1   2  346.02   10.45
  -2  -1  -2  366.36   15.96
  -2  -1  -2  335.02   12.24
   2   1   2  372.14   16.59
   2   1   2  326.66   12.77
  -3  -1  -2  120.92    3.74
  -3  -1  -2  118.98    6.09
  -3  -1  -2  118.35    4.72
  -3  -1  -2  120.81    4.94
  -3  -1  -2  115.61    3.88
   3   1   2  121.84    4.57
   3   1   2  110.73    4.30
   3   1   2  113.09    4.79
   3   1   2  113.38    5.60
  -3  -1  -2  122.58    8.29
  -3  -1  -2  107.29    8.38
   3   1   2  126.02    7.78
   3   1   2  110.90   11.13
  -4  -1  -2  167.33    5.08
  -4  -1  -2  167.13    5.82
  -4  -1  -2  160.14    5.10
  -4  -1  -2  163.20   12.84
   4   1   2  158.43    5.56
   4   1   2  141.88   11.60
   4   1   2  159.04    6.25
   4   1   2  154.74    3.33
   4   1   2  159.36    6.24
  -4  -1  -2  178.42   12.55
  -4  -1  -2  159.12   12.54
   4   1   2  142.88    8.95
   4   1   2  151.80   12.37
  -5  -1  -2  3.9616  1.1163
  -5  -1  -2 -0.7894  1.3912
  -5  -1  -2  3.1428  0.8822
  -5  -1  -2  2.5566  0.8923
   5   1   2  3.4535  0.8800
   5   1   2  1.0762  1.0615
   5   1   2  2.9353  0.8516
  -5  -1  -2  -2.631   5.271
  -5  -1  -2  1.8104  7.0082
   5   1   2  5.2510  6.0492
   5   1   2  -7.146   8.763
  -6  -1  -2  4.5965  1.7414
  -6  -1  -2  2.7125  1.3822
   6   1   2  3.2619  0.9322
   6   1   2  4.8269  1.3723
   6   1   2  4.1143  1.3789
  -6  -1  -2  1.6550  8.3605
   6   1   2  -5.311  10.399
  -7  -1  -2  44.733   4.501
  -7  -1  -2  50.442   4.147
  -7  -1  -2  42.811   4.370
   7   1   2  50.931   3.679
  -8  -1  -2  17.295   3.807
  -8  -1  -2  15.545   3.742
  -8  -1  -2  16.772   3.089
   8   1   2  21.605   3.444
   7  -2  -2  5.2559  1.9011
  -7   2   2  7.8163  2.6963
  -7   2   2  3.1079  2.6661
   7  -2  -2  17.683  13.440
   6  -2  -2  8.0841  1.8112
   6  -2  -2  8.7395  1.6186
  -6   2   2  9.0881  1.9829
  -6   2   2  13.724   1.984
   6  -2  -2  17.869   9.288
   5  -2  -2  63.223   2.677
   5  -2  -2  61.873   2.913
  -5   2   2  65.957   3.321
  -5   2   2  62.125   3.621
   5  -2  -2  63.456   8.306
   5  -2  -2  64.657   8.014
   4  -2  -2  267.26    6.82
   4  -2  -2  269.95   12.41
   4  -2  -2  290.37   10.98
   4  -2  -2  275.73   16.11
  -4   2   2  274.06   18.46
  -4   2   2  282.28   19.78
   4  -2  -2  296.91   20.69
   4  -2  -2  276.42   14.64
  -4   2   2  291.40   17.11
   3  -2  -2  143.92    6.72
   3  -2  -2  143.55    6.28
   3  -2  -2  135.25    8.23
   3  -2  -2  141.47    5.34
   3  -2  -2  140.67    8.46
  -3   2   2  143.95    4.98
  -3   2   2  150.67    5.41
  -3   2   2  156.11    6.35
  -3   2   2  141.71    7.39
   3  -2  -2  152.24    7.97
   3  -2  -2  141.88    6.12
  -3   2   2  145.32   11.07
  -3   2   2  130.21    7.46
   2  -2  -2  25.307   1.282
   2  -2  -2  24.889   1.552
   2  -2  -2  27.385   1.162
   2  -2  -2  23.793   1.425
   2  -2  -2  24.745   1.107
   2  -2  -2  23.336   1.394
  -2   2   2  22.951   0.929
  -2   2   2  25.918   1.697
  -2   2   2  24.684   1.295
  -2   2   2  24.884   1.486
  -2   2   2  26.034   1.232
  -2   2   2  25.802   1.366
   2  -2  -2  31.682   3.586
   2  -2  -2  28.893   3.547
  -2   2   2  24.549   3.376
  -2   2   2  19.846   3.056
   1  -2  -2  404.71   19.69
   1  -2  -2  431.77   11.49
   1  -2  -2  439.58   16.50
   1  -2  -2  434.16   10.52
   1  -2  -2  441.21   18.51
  -1   2   2  435.98   18.00
  -1   2   2  452.07   19.97
  -1   2   2  427.27   12.55
  -1   2   2  452.48   10.62
  -1   2   2  449.91   11.93
  -1   2   2  454.88   17.45
   1  -2  -2  455.61   16.64
  -1   2   2  456.00   17.60
  -1   2   2  510.44   22.16
   0  -2  -2  62.257   3.244
   0  -2  -2  55.455   2.712
   0  -2  -2  59.395   3.280
   0  -2  -2  59.667   1.825
   0   2   2  56.518   1.826
   0   2   2  63.091   2.604
   0   2   2  57.672   2.350
   0   2   2  58.322   2.794
   0   2   2  59.526   1.694
   0  -2  -2  64.190   3.273
   0  -2  -2  58.859   2.369
   0   2   2  61.466   3.941
   0   2   2  67.170   3.043
  -1  -2  -2  474.76   26.04
  -1  -2  -2  445.06   24.26
  -1  -2  -2  445.56   18.55
  -1  -2  -2  447.17   20.01
  -1  -2  -2  466.93   25.06
   1   2   2  486.89   18.50
   1   2   2  448.01   24.41
   1   2   2  482.19   23.69
   1   2   2  457.68   13.62
   1   2   2  481.56   28.77
   1   2   2  459.91   23.72
  -1  -2  -2  492.65   22.58
  -1  -2  -2  495.75   31.83
   1   2   2  483.12   27.03
   1   2   2  474.90   29.91
  -2  -2  -2  307.25   14.72
  -2  -2  -2  319.26   21.97
  -2  -2  -2  299.12   19.65
  -2  -2  -2  315.89   11.39
   2   2   2  293.73    7.91
   2   2   2  303.72   14.76
   2   2   2  295.82   26.89
   2   2   2  297.54   12.47
  -2  -2  -2  278.58   12.70
  -2  -2  -2  305.87   16.61
   2   2   2  313.61   12.14
   2   2   2  286.81   12.10
  -3  -2  -2  78.282   4.096
  -3  -2  -2  83.298   2.870
  -3  -2  -2  75.771   3.655
  -3  -2  -2  73.365   3.916
  -3  -2  -2  83.634   3.546
  -3  -2  -2  82.390   4.369
   3   2   2  74.605   3.002
   3   2   2  74.081   2.258
   3   2   2  68.767   4.786
   3   2   2  77.640   4.398
  -3  -2  -2  76.541   6.777
  -3  -2  -2  68.160   5.795
   3   2   2  69.693   5.070
   3   2   2  73.710   9.681
  -4  -2  -2  29.685   1.495
  -4  -2  -2  32.230   2.018
  -4  -2  -2  23.811   1.916
  -4  -2  -2  29.244   2.582
  -4  -2  -2  29.227   1.307
  -4  -2  -2  28.944   1.947
   4   2   2  21.768   1.885
   4   2   2  29.488   1.571
   4   2   2  25.271   1.484
  -4  -2  -2  24.892   5.719
  -4  -2  -2  19.162   4.905
   4   2   2  19.894   4.285
   4   2   2  16.656   5.479
  -5  -2  -2  52.969   3.983
  -5  -2  -2  48.840   2.977
  -5  -2  -2  54.445   3.173
  -5  -2  -2  44.955   3.200
  -5  -2  -2  49.512   3.532
   5   2   2  47.101   2.494
   5   2   2  47.215   3.100
  -5  -2  -2  51.939   8.122
  -5  -2  -2  44.121   8.091
   5   2   2  33.743   6.404
  -6  -2  -2  60.936   5.152
  -6  -2  -2  59.609   3.789
  -6  -2  -2  55.921   3.535
   6   2   2  64.561   2.849
   6   2   2  64.306   3.218
   6   2   2  63.425   3.344
  -6  -2  -2  32.315   8.958
   6   2   2  40.218   8.764
  -7  -2  -2  172.26    9.15
  -7  -2  -2  174.07    9.20
  -7  -2  -2  171.83    9.50
   7   2   2  178.30    8.98
   7   2   2  192.32    8.89
  -8  -2  -2  79.500   6.934
  -8  -2  -2  95.892   5.257
  -8  -2  -2  87.871   6.951
   8   2   2  112.95    8.19
   7  -3  -2  62.445   4.462
  -7   3   2  57.458   4.809
  -7   3   2  69.667   8.457
   7  -3  -2  71.075  14.216
   6  -3  -2  143.45    6.24
   6  -3  -2  135.42    8.73
   6  -3  -2  140.69    7.15
  -6   3   2  135.42    8.06
  -6   3   2  137.49    9.66
   6  -3  -2  155.56   15.08
   5  -3  -2  44.122   2.203
   5  -3  -2  48.561   3.183
   5  -3  -2  51.326   2.430
  -5   3   2  45.912   3.864
  -5   3   2  45.121   2.844
   5  -3  -2  46.140   9.076
   4  -3  -2  11.014   0.935
   4  -3  -2  10.313   1.247
   4  -3  -2  10.235   1.035
  -4   3   2  9.9625  1.1521
  -4   3   2  11.545   1.843
   4  -3  -2  14.242   6.034
   4  -3  -2  11.369   5.354
  -4   3   2  2.2990  6.1248
   3  -3  -2  227.26   13.00
   3  -3  -2  237.92   10.68
   3  -3  -2  245.14    4.87
   3  -3  -2  231.49    6.88
  -3   3   2  230.88   13.22
  -3   3   2  242.68   11.47
  -3   3   2  241.54    5.86
   3  -3  -2  250.31   15.25
   3  -3  -2  225.27   16.45
  -3   3   2  242.61   11.85
   2  -3  -2  162.83    9.03
   2  -3  -2  158.76    3.93
   2  -3  -2  162.42    7.15
   2  -3  -2  160.26    7.50
   2  -3  -2  155.01   11.41
   2  -3  -2  154.62    3.80
  -2   3   2  157.37   10.09
  -2   3   2  162.96    7.87
  -2   3   2  154.92    8.15
  -2   3   2  159.77    4.59
  -2   3   2  166.12    6.85
  -2   3   2  157.98    5.48
   2  -3  -2  168.11    8.41
   2  -3  -2  164.29    7.47
  -2   3   2  156.52    7.88
  -2   3   2  164.18    7.23
   1  -3  -2 3979.92  175.30
   1  -3  -2 3843.64  206.93
  -1   3   2 4049.64  206.99
   0  -3  -2 1582.92   45.15
   0  -3  -2 1493.23   47.56
   0  -3  -2 1552.05   83.09
   0  -3  -2 1544.78   47.29
   0   3   2 1494.62   62.73
   0   3   2 1639.99   39.80
   0   3   2 1628.47   29.09
   0   3   2 1627.98   89.57
   0   3   2 1595.63   58.96
   0   3   2 1655.92   85.86
   0   3   2 1662.22   51.48
   0   3   2 1544.73   78.80
   0  -3  -2 1508.97   79.97
   0  -3  -2 1618.01   97.84
   0   3   2 1711.64   79.15
   0   3   2 1603.02   97.31
  -1  -3  -2  87.745   3.960
  -1  -3  -2  86.216   3.799
  -1  -3  -2  79.731   4.649
  -1  -3  -2  79.694   2.459
   1   3   2  83.897   2.186
   1   3   2  86.756   4.035
   1   3   2  86.720   4.861
   1   3   2  80.731   2.199
   1   3   2  86.161   4.334
   1   3   2  87.341   4.576
   1   3   2  86.798   2.084
  -1  -3  -2  86.142   5.564
  -1  -3  -2  80.204   4.775
   1   3   2  85.776   5.460
   1   3   2  84.536   4.863
  -2  -3  -2  194.67    9.55
  -2  -3  -2  188.82    8.34
  -2  -3  -2  199.06    9.14
   2   3   2  180.97    6.70
   2   3   2  203.54    8.10
   2   3   2  197.27   10.25
   2   3   2  190.13    7.51
   2   3   2  198.51   10.09
  -2  -3  -2  205.56   12.02
  -2  -3  -2  190.84   10.64
   2   3   2  178.30   13.79
   2   3   2  192.29    9.80
  -3  -3  -2  194.86   12.74
  -3  -3  -2  213.92   23.92
  -3  -3  -2  206.53   15.20
  -3  -3  -2  190.98    7.57
   3   3   2  199.48    8.17
   3   3   2  199.57   14.12
   3   3   2  203.69   10.69
   3   3   2  207.76    8.91
  -3  -3  -2  206.92   13.38
  -3  -3  -2  209.98   14.91
   3   3   2  220.45   13.03
   3   3   2  189.18   14.78
  -4  -3  -2  12.390   1.772
  -4  -3  -2  8.4183  1.6125
  -4  -3  -2  8.6845  1.0010
   4   3   2  5.9598  0.8477
   4   3   2  8.7202  1.1483
   4   3   2  8.2783  1.2750
  -4  -3  -2  5.8846  5.1348
  -4  -3  -2  3.7192  5.2766
   4   3   2  5.4424  4.9451
  -5  -3  -2  149.02    8.04
  -5  -3  -2  169.54   10.99
  -5  -3  -2  163.98   12.25
  -5  -3  -2  166.79    7.45
   5   3   2  170.83    6.51
   5   3   2  168.56    7.87
  -5  -3  -2  163.97   13.97
   5   3   2  145.06   12.77
  -6  -3  -2  127.14    9.19
  -6  -3  -2  134.71    5.25
  -6  -3  -2  127.17   11.21
   6   3   2  149.62    5.68
   6   3   2  125.81    4.65
  -6  -3  -2  96.738  13.508
  -7  -3  -2  0.9842  1.3036
  -7  -3  -2  1.7455  1.6434
  -7  -3  -2 -0.6392  1.5965
   7   3   2  0.9741  1.3313
   7   3   2  1.7673  1.7285
   7   3   2  2.4968  1.4623
  -7  -3  -2  -3.921   8.329
  -8  -3  -2  0.6930  2.3152
   8   3   2  3.0636  2.5900
   8   3   2  -1.335   2.451
   7  -4  -2  35.268   4.411
  -7   4   2  43.969   4.763
  -7   4   2  32.414   3.955
   7  -4  -2  33.516  11.224
   6  -4  -2  501.63   20.03
  -6   4   2  485.09   23.65
  -6   4   2  467.85   27.78
   6  -4  -2  538.29   35.71
   5  -4  -2  115.41    6.43
   5  -4  -2  123.08   10.12
   5  -4  -2  126.34    9.43
  -5   4   2  128.88    4.18
  -5   4   2  118.61    5.90
   5  -4  -2  133.93    9.94
   4  -4  -2  79.495   4.121
   4  -4  -2  78.738   3.050
   4  -4  -2  80.614   3.591
  -4   4   2  76.702   4.128
  -4   4   2  74.383   4.396
   4  -4  -2  83.434   8.204
   4  -4  -2  68.922   7.133
   3  -4  -2  94.837   3.798
   3  -4  -2  88.203   2.662
   3  -4  -2  92.513   4.222
  -3   4   2  93.232   3.785
  -3   4   2  94.997   3.706
  -3   4   2  90.925   6.613
   3  -4  -2  78.111   7.386
   3  -4  -2  93.816   6.930
  -3   4   2  72.651   7.595
   2  -4  -2  15.869   1.269
   2  -4  -2  19.883   1.224
   2  -4  -2  18.313   1.355
  -2   4   2  16.751   1.142
  -2   4   2  17.756   1.058
  -2   4   2  20.021   0.950
  -2   4   2  16.865   1.382
   2  -4  -2  16.994   2.974
   2  -4  -2  20.666   3.091
  -2   4   2  13.792   2.889
   1  -4  -2  312.33   13.17
   1  -4  -2  311.91   10.22
  -1   4   2  330.97    8.50
  -1   4   2  329.89   16.34
  -1   4   2  324.17   19.29
  -1   4   2  298.36   11.60
  -1   4   2  291.49    8.12
  -1   4   2  324.85   11.07
  -1   4   2  332.14   15.10
   1  -4  -2  316.16   15.52
   1  -4  -2  340.56   19.89
  -1   4   2  332.46   13.47
  -1   4   2  338.99   18.10
   0  -4  -2  153.99    3.39
   0  -4  -2  157.37    5.72
   0  -4  -2  161.66    4.42
   0   4   2  154.84    4.14
   0   4   2  158.10    3.91
   0   4   2  153.51    5.89
   0   4   2  163.07    6.13
   0   4   2  164.29    8.76
   0   4   2  161.58    5.21
   0   4   2  150.82    6.35
   0   4   2  153.58    4.16
   0   4   2  156.78    5.05
  -1  -4  -2  256.88   11.14
  -1  -4  -2  248.96    9.51
  -1  -4  -2  240.49   12.93
  -1  -4  -2  248.17    6.89
   1   4   2  245.35    7.05
   1   4   2  256.00    6.10
   1   4   2  239.94    6.49
   1   4   2  255.31   12.87
   1   4   2  263.84   12.12
   1   4   2  254.93   11.81
   1   4   2  257.03   12.55
  -1  -4  -2  247.27   13.43
   1   4   2  255.18   11.82
   1   4   2  259.11   21.92
  -2  -4  -2  63.868   3.043
  -2  -4  -2  64.431   4.088
  -2  -4  -2  63.301   3.322
   2   4   2  63.248   2.100
   2   4   2  65.116   4.250
   2   4   2  64.850   3.920
   2   4   2  66.580   2.669
   2   4   2  65.368   3.112
   2   4   2  62.390   3.067
   2   4   2  64.195   2.675
   2   4   2  66.336   3.221
  -2  -4  -2  58.064   5.529
  -2  -4  -2  60.339   5.413
   2   4   2  59.264   5.366
   2   4   2  51.167   6.888
  -3  -4  -2  547.10   20.20
  -3  -4  -2  601.18   26.31
  -3  -4  -2  614.01   28.65
   3   4   2  572.93   14.85
   3   4   2  541.39   39.12
   3   4   2  551.76   20.24
  -3  -4  -2  626.15   30.84
  -3  -4  -2  585.57   41.57
   3   4   2  573.73   29.12
  -4  -4  -2  205.91   12.03
  -4  -4  -2  209.30   14.54
  -4  -4  -2  222.27   18.08
   4   4   2  208.02    8.36
   4   4   2  182.82   11.72
   4   4   2  205.51    6.22
  -4  -4  -2  233.61   14.55
   4   4   2  198.72   14.02
  -5  -4  -2  19.446   2.045
  -5  -4  -2  14.849   2.010
  -5  -4  -2  22.530   2.019
   5   4   2  18.425   1.655
   5   4   2  21.515   1.998
  -5  -4  -2  16.232   7.525
  -5  -4  -2  14.378   7.411
  -6  -4  -2  172.38    7.50
  -6  -4  -2  184.83    8.35
  -6  -4  -2  164.31    6.86
   6   4   2  184.50   10.62
   6   4   2  198.91    9.38
  -6  -4  -2  161.89   18.14
  -7  -4  -2  1.7326  1.6494
  -7  -4  -2  1.2595  1.5279
  -7  -4  -2 -0.1154  1.6034
   7   4   2  1.2357  1.7342
   7   4   2 -0.1030  1.7486
  -7  -4  -2  -19.87    9.29
   6  -5  -2  58.217   4.557
  -6   5   2  51.857   5.065
  -6   5   2  60.123   5.925
   6  -5  -2  70.142  14.151
   5  -5  -2  1.3136  0.9769
   5  -5  -2 -0.7317  1.7978
   5  -5  -2 -0.4790  0.9787
  -5   5   2  -1.551   1.842
  -5   5   2  2.5774  1.6395
   5  -5  -2  -2.517   4.702
   4  -5  -2  19.005   1.762
   4  -5  -2  17.188   1.656
   4  -5  -2  17.193   1.480
  -4   5   2  15.275   2.221
   4  -5  -2  23.291   6.514
   4  -5  -2  10.992   5.160
   3  -5  -2  91.590   4.001
   3  -5  -2  94.957   4.139
   3  -5  -2  95.843   4.573
  -3   5   2  94.944   7.979
  -3   5   2  89.789   5.600
  -3   5   2  93.436   3.999
   3  -5  -2  109.29    8.45
   3  -5  -2  91.938   7.263
  -3   5   2  93.086   9.085
   2  -5  -2  870.92   39.94
   2  -5  -2  856.25   18.18
   2  -5  -2  858.68   26.44
  -2   5   2  851.46   27.19
  -2   5   2  863.58   41.28
  -2   5   2  872.32   61.16
  -2   5   2  905.17   30.34
  -2   5   2  864.12   22.28
   2  -5  -2  913.32   33.51
   2  -5  -2  970.23   53.74
  -2   5   2  991.02   85.11
   1  -5  -2 1153.51   42.70
   1  -5  -2 1184.14   35.16
  -1   5   2 1118.95   29.47
  -1   5   2 1198.92   55.39
  -1   5   2 1209.92   70.07
  -1   5   2 1119.31   38.77
  -1   5   2 1217.37   86.21
  -1   5   2 1175.61   60.82
  -1   5   2 1237.05   66.59
  -1   5   2 1188.47   56.93
   1  -5  -2 1041.31   38.12
   1  -5  -2 1094.88   41.21
  -1   5   2  833.19   27.57
   0  -5  -2  267.46    8.75
   0  -5  -2  255.45   11.09
   0  -5  -2  249.32    6.43
   0   5   2  247.97    6.77
   0   5   2  263.10    9.33
   0   5   2  270.55   12.33
   0   5   2  253.08   14.81
   0   5   2  245.01    7.54
   0   5   2  241.86    7.82
   0   5   2  273.54   10.03
   0   5   2  268.54    8.91
   0   5   2  255.74    8.50
  -1  -5  -2  159.48    8.49
  -1  -5  -2  151.20    4.26
  -1  -5  -2  165.05    6.19
   1   5   2  157.74    4.12
   1   5   2  159.48    8.06
   1   5   2  163.17    7.64
   1   5   2  152.44    3.92
   1   5   2  152.25    3.85
   1   5   2  149.00    6.40
   1   5   2  147.17    8.93
  -1  -5  -2  157.32   11.47
  -1  -5  -2  151.72    7.46
   1   5   2  152.77    8.88
   1   5   2  153.61   10.40
  -2  -5  -2  120.43    5.88
  -2  -5  -2  115.79    3.86
  -2  -5  -2  119.01    5.10
   2   5   2  118.11    5.65
   2   5   2  116.90    4.58
   2   5   2  116.45    3.76
   2   5   2  122.94    8.02
   2   5   2  123.23    3.92
  -2  -5  -2  113.74    8.13
  -2  -5  -2  107.34    5.94
   2   5   2  106.74    7.17
  -3  -5  -2  259.17   12.77
  -3  -5  -2  294.47   18.71
  -3  -5  -2  297.00   15.10
   3   5   2  280.46   15.80
   3   5   2  297.20    8.90
   3   5   2  281.05   12.77
  -3  -5  -2  307.45   18.26
  -3  -5  -2  288.79   18.51
   3   5   2  296.05   18.94
  -4  -5  -2  168.32   11.44
  -4  -5  -2  168.38   10.46
   4   5   2  165.65    6.88
   4   5   2  129.14   12.08
   4   5   2  175.02    5.57
  -4  -5  -2  181.46   14.64
  -4  -5  -2  148.20   13.56
   4   5   2  168.52   13.71
  -5  -5  -2  49.392   4.901
  -5  -5  -2  58.051   2.982
  -5  -5  -2  55.093   2.994
   5   5   2  54.671   2.408
   5   5   2  51.504   2.834
  -5  -5  -2  37.694   8.387
  -6  -5  -2  0.0705  1.8154
  -6  -5  -2 -0.7651  1.7273
  -6  -5  -2  0.6084  1.6705
   6   5   2  0.3528  1.3372
   6   5   2  2.7069  1.9185
  -6  -5  -2  -3.246   7.113
  -7  -5  -2  16.692   2.896
  -7  -5  -2  22.356   4.276
   7   5   2  16.131   2.242
   7   5   2  13.491   2.194
  -7  -5  -2  -1.885   9.481
   6  -6  -2  0.4677  2.3310
  -6   6   2  1.3128  2.8757
   6  -6  -2  -2.522  10.187
   5  -6  -2  1.2842  1.6242
  -5   6   2  2.5519  2.5884
  -5   6   2  2.2484  1.8741
   5  -6  -2  -3.745   5.059
   4  -6  -2  1.3008  1.0946
   4  -6  -2  1.4950  1.0091
   4  -6  -2 -0.7345  1.1270
  -4   6   2  2.4954  1.6472
   4  -6  -2  3.6052  5.6305
   4  -6  -2  3.8676  3.5932
   3  -6  -2  52.475   3.305
   3  -6  -2  48.507   2.552
   3  -6  -2  54.110   3.193
  -3   6   2  49.711   3.376
   3  -6  -2  56.376   5.395
   3  -6  -2  48.502   5.224
   2  -6  -2  39.201   2.674
   2  -6  -2  34.869   2.650
  -2   6   2  32.903   1.825
  -2   6   2  38.555   2.485
  -2   6   2  30.984   2.429
  -2   6   2  31.153   2.675
   2  -6  -2  42.890   3.850
   2  -6  -2  43.648   4.359
   1  -6  -2  327.63    6.43
   1  -6  -2  335.71   13.75
  -1   6   2  356.65   12.25
  -1   6   2  334.23   13.57
  -1   6   2  322.13   10.93
  -1   6   2  318.34    9.60
  -1   6   2  333.01   10.57
   0  -6  -2  112.19    4.89
   0  -6  -2  105.51    3.48
   0  -6  -2  103.25    6.34
   0   6   2  103.81    3.73
   0   6   2  102.04    5.01
   0   6   2  100.31    3.55
   0   6   2  98.733   3.494
   0   6   2  94.466   6.558
   0   6   2  103.57    5.81
   0   6   2  95.221   5.611
  -1  -6  -2  618.33   31.64
   1   6   2  650.54   44.61
   1   6   2  647.74   25.27
   1   6   2  598.33   21.35
   1   6   2  597.20   17.58
   1   6   2  590.86   15.25
  -2  -6  -2  84.722   3.720
  -2  -6  -2  85.691   4.762
   2   6   2  86.816   4.776
   2   6   2  84.252   4.413
   2   6   2  90.559   3.995
   2   6   2  94.290   3.869
   2   6   2  88.868   4.951
  -2  -6  -2  90.860   7.335
  -2  -6  -2  92.645   5.308
   2   6   2  69.041   7.015
  -3  -6  -2  2.7904  0.9414
  -3  -6  -2  3.6879  1.2301
   3   6   2  3.0709  0.3186
   3   6   2  6.8196  1.7292
   3   6   2  2.7941  1.2904
   3   6   2  2.8526  0.3328
   3   6   2  4.0462  0.3717
   3   6   2  4.2785  0.7393
  -3  -6  -2  5.0101  3.8935
  -3  -6  -2  2.0956  3.3246
   3   6   2  -1.170   4.537
  -4  -6  -2  80.757   4.416
  -4  -6  -2  82.721   5.415
   4   6   2  77.226   3.424
   4   6   2  78.533   4.369
  -4  -6  -2  107.38   11.68
  -4  -6  -2  74.491   9.538
  -5  -6  -2  2.5201  1.7076
  -5  -6  -2  0.9884  1.9240
   5   6   2  2.8921  1.4021
   5   6   2  0.4203  0.8572
  -5  -6  -2  -1.705   4.272
  -6  -6  -2  38.688   3.615
  -6  -6  -2  41.816   4.811
   6   6   2  48.260   4.385
   6   6   2  47.901   2.926
  -6  -6  -2  36.774  13.150
  -7  -6  -2  284.98   16.76
  -7  -6  -2  286.56   14.65
   7   6   2  323.90   17.39
   7   6   2  285.20   18.30
  -7  -6  -2  260.19   26.85
   5  -7  -2  20.972   2.862
  -5   7   2  21.611   2.887
   5  -7  -2  19.651   8.247
   4  -7  -2  31.459   3.513
   4  -7  -2  30.299   2.830
   4  -7  -2  26.844   2.431
  -4   7   2  27.045   3.074
   4  -7  -2  47.338   6.721
   3  -7  -2  5.5988  1.1086
   3  -7  -2  4.5241  1.4066
   3  -7  -2  4.8500  1.3819
  -3   7   2  4.9424  1.3852
   3  -7  -2  9.4166  3.2674
   3  -7  -2  7.9635  3.5295
   2  -7  -2  231.42   11.08
   2  -7  -2  218.52    7.97
  -2   7   2  226.26    8.33
  -2   7   2  210.48    9.79
   1  -7  -2  63.642   2.827
   1  -7  -2  61.635   3.193
  -1   7   2  62.559   2.805
  -1   7   2  57.119   2.367
  -1   7   2  58.420   2.593
   0  -7  -2  385.59   29.01
   0  -7  -2  366.76   18.93
   0   7   2  374.48   12.02
   0   7   2  352.54   16.41
   0   7   2  372.80   12.51
  -1  -7  -2  696.74   34.84
   1   7   2  675.57   31.06
   1   7   2  688.70   29.31
   1   7   2  701.14   35.84
  -2  -7  -2  265.52   10.31
  -2  -7  -2  268.46   14.10
   2   7   2  247.95   13.61
   2   7   2  259.08   13.90
   2   7   2  271.82   15.29
   2   7   2  258.42    8.14
  -2  -7  -2  296.16   14.87
  -2  -7  -2  294.60   19.58
  -3  -7  -2  122.63    6.27
  -3  -7  -2  126.78    5.42
   3   7   2  128.51    5.92
   3   7   2  121.87    6.09
  -3  -7  -2  116.28    7.26
  -3  -7  -2  140.41   12.37
  -4  -7  -2  1.5339  1.1775
  -4  -7  -2  1.8035  1.3228
   4   7   2  3.5395  2.0090
   4   7   2  1.3468  0.8085
  -4  -7  -2  -1.096   4.749
  -5  -7  -2  68.793   4.985
  -5  -7  -2  68.924   3.930
   5   7   2  76.543   6.366
   5   7   2  66.465   3.875
  -5  -7  -2  71.655   9.554
  -6  -7  -2  1.9260  1.6878
  -6  -7  -2  0.1161  1.8312
   6   7   2  0.0071  1.7850
   6   7   2 -0.5129  1.7151
  -6  -7  -2  -15.43   12.02
   4  -8  -2  56.710   3.970
  -4   8   2  56.499   4.924
   4  -8  -2  67.113   8.916
   3  -8  -2  43.767   3.348
   3  -8  -2  40.763   2.906
  -3   8   2  40.517   3.136
   3  -8  -2  46.869   3.881
   3  -8  -2  43.722   4.077
   2  -8  -2  2.8178  1.4602
   2  -8  -2  0.5154  1.1329
  -2   8   2 -0.1723  1.0735
  -2   8   2  0.1735  0.8300
   1  -8  -2  251.40   13.22
  -1   8   2  222.86    9.68
  -1   8   2  233.31    9.97
  -1   8   2  244.27    8.40
   0  -8  -2  46.400   2.629
   0  -8  -2  46.229   4.172
   0   8   2  42.575   2.630
   0   8   2  38.145   3.509
   0   8   2  39.077   1.815
  -1  -8  -2  1.1931  0.9445
   1   8   2  2.1671  1.0876
   1   8   2 -0.0073  0.8204
   1   8   2  0.0969  1.5596
  -2  -8  -2  234.89    8.88
  -2  -8  -2  251.58   12.32
   2   8   2  242.40   16.19
   2   8   2  239.94   10.90
   2   8   2  230.33   17.40
  -2  -8  -2  263.27   17.25
  -2  -8  -2  261.88   19.95
  -3  -8  -2  0.6637  1.5640
  -3  -8  -2  0.1623  1.0457
   3   8   2 -0.2656  1.5312
   3   8   2  0.4226  1.1594
  -3  -8  -2 -0.0710  4.5311
  -3  -8  -2  -1.035   4.316
  -4  -8  -2  42.243   3.726
  -4  -8  -2  38.750   2.306
   4   8   2  42.060   3.703
   4   8   2  34.292   2.554
  -4  -8  -2  29.624   6.739
  -5  -8  -2  14.683   2.123
  -5  -8  -2  17.020   3.493
   5   8   2  16.313   2.512
   5   8   2  18.685   2.440
  -5  -8  -2  5.6093  7.6953
  -6  -8  -2  22.207   3.801
  -6  -8  -2  26.077   3.473
   6   8   2  24.985   3.101
   6   8   2  24.294   2.312
  -6  -8  -2  12.652  14.992
  -3   9   2  -1.071   1.512
  -3   9   2  0.6028  1.4891
   2  -9  -2  3.5431  2.1869
  -2   9   2  5.3191  1.9732
  -2   9   2  4.5547  1.9025
   1  -9  -2  109.08    6.85
  -1   9   2  103.87    5.01
  -1   9   2  94.534   5.077
  -1   9   2  91.968   4.786
   0   9   2  205.17   10.13
   0   9   2  196.76    7.87
   0   9   2  192.65    8.70
  -1  -9  -2  230.19   14.37
   1   9   2  229.50   12.75
   1   9   2  216.42   13.83
   1   9   2  232.82   12.21
  -2  -9  -2  26.931   2.185
   2   9   2  28.556   2.724
   2   9   2  28.325   2.854
  -3  -9  -2  32.808   3.625
  -3  -9  -2  35.749   2.990
   3   9   2  39.519   2.930
   3   9   2  30.810   3.110
  -3  -9  -2  38.737   6.286
  -3  -9  -2  27.805   5.500
  -4  -9  -2  12.674   3.450
  -4  -9  -2  15.172   2.514
   4   9   2  18.734   3.384
   4   9   2  12.655   2.031
  -4  -9  -2  7.4813  6.2836
  -5  -9  -2  34.781   4.066
  -5  -9  -2  35.192   3.861
   5   9   2  28.421   3.751
   5   9   2  26.271   3.096
  -5  -9  -2  31.024   9.600
   2 -10  -2  22.456   2.993
  -2  10   2  18.759   2.354
  -2  10   2  23.215   2.618
   1 -10  -2  2.9215  2.3955
  -1  10   2 -0.2633  2.1660
  -1  10   2  6.5450  2.3480
   0  10   2  161.98    8.25
   0  10   2  158.58    8.89
   0  10   2  156.64   10.29
  -1 -10  -2  15.316   2.451
   1  10   2  10.993   2.074
   1  10   2  14.056   1.849
  -2 -10  -2 -0.1760  1.4065
   2  10   2  1.0873  2.0771
   2  10   2 -0.4526  1.3867
  -3 -10  -2  10.097   2.090
   3  10   2  9.7162  1.9971
   3  10   2  16.563   3.704
  -4 -10  -2  1.0846  1.8052
  -4 -10  -2  1.5012  2.0579
   4  10   2  1.2726  3.4282
   4  10   2 -0.3849  1.8165
  -4 -10  -2  -5.204   5.290
   2  10  -3  -1.939   1.552
   1  10  -3  4.9608  2.1410
  -1 -10   3  1.9804  2.1912
   0  10  -3 -0.0209  1.6359
   0  10  -3 -0.9817  2.6742
   0 -10   3  2.1368  2.8878
  -1  10  -3  34.804   3.604
   1 -10   3  36.635   3.728
   4   9  -3  31.710   2.862
  -4  -9   3  27.308   3.886
  -4  -9   3  33.431   3.677
  -4  -9   3  22.551  10.201
   3   9  -3  7.6731  1.8575
  -3  -9   3  1.4527  2.8011
  -3  -9   3  6.5797  2.0029
  -3  -9   3  18.149   8.664
   2   9  -3  63.755   5.281
  -2  -9   3  64.814   5.300
  -2  -9   3  65.757   6.021
  -2  -9   3  67.414   8.603
  -2  -9   3  82.062   9.218
   1   9  -3  157.99    9.21
  -1  -9   3  152.53   10.44
   0   9  -3  13.375   1.961
   0  -9   3  14.643   2.282
  -1   9  -3  0.1725  1.5512
  -1   9  -3  1.4154  1.8894
   1  -9   3  -2.182   2.159
  -2   9  -3  2.5073  1.7250
  -2   9  -3  3.5202  1.9341
   2  -9   3  5.4334  2.1054
  -3   9  -3  11.230   3.057
  -3   9  -3  12.926   2.703
   3  -9   3  19.207   2.717
   3  -9   3  17.592   3.633
   3  -9   3  14.294   3.100
   3  -9   3  16.014   3.600
   5   8  -3  59.161   5.356
  -5  -8   3  47.707   3.292
  -5  -8   3  52.933   4.614
  -5  -8   3  48.643  13.197
   4   8  -3  345.84   12.71
  -4  -8   3  317.25   14.30
  -4  -8   3  326.97   15.29
  -4  -8   3  368.02   27.68
   3   8  -3  16.666   2.445
  -3  -8   3  17.426   1.780
  -3  -8   3  19.033   1.785
  -3  -8   3  13.990   7.241
   2   8  -3  145.35    6.07
  -2  -8   3  152.06   10.11
  -2  -8   3  152.34    6.71
  -2  -8   3  157.67    8.69
  -2  -8   3  146.42   11.65
  -2  -8   3  175.13   14.96
   1   8  -3  50.504   3.488
  -1  -8   3  45.552   3.340
  -1  -8   3  42.878   4.426
  -1  -8   3  42.473   4.880
  -1  -8   3  43.480   5.143
   0   8  -3  44.358   2.592
   0   8  -3  42.264   3.554
   0  -8   3  42.939   3.390
   0  -8   3  45.612   2.370
   0  -8   3  44.362   3.544
   0  -8   3  41.997   3.623
  -1   8  -3  119.29    6.97
  -1   8  -3  117.40    7.40
   1  -8   3  117.63    7.82
   1  -8   3  120.98    6.61
   1  -8   3  121.62    6.23
  -2   8  -3  234.76    9.56
  -2   8  -3  222.52   10.35
   2  -8   3  241.47    9.72
   2  -8   3  244.51   12.99
   2  -8   3  252.15   16.28
   2  -8   3  255.85   20.62
  -3   8  -3  7.1934  2.2226
  -3   8  -3  3.4764  1.9562
   3  -8   3  7.4076  2.4843
   3  -8   3  6.7323  2.1870
   3  -8   3  8.0064  5.2017
  -4   8  -3  23.108   3.473
  -4   8  -3  30.616   3.233
   4  -8   3  28.571   3.265
   4  -8   3  30.515   3.507
   4  -8   3  26.116   6.211
   6   7  -3  43.131   3.442
  -6  -7   3  37.434   4.724
  -6  -7   3  36.097   4.131
  -6  -7   3  19.358  15.623
   5   7  -3  89.721   5.734
  -5  -7   3  93.960   6.545
  -5  -7   3  91.100   7.898
  -5  -7   3  93.328  14.137
   4   7  -3  328.21   13.09
  -4  -7   3  298.50   21.64
  -4  -7   3  317.24   11.50
  -4  -7   3  356.35   27.60
   3   7  -3  31.859   2.409
   3   7  -3  29.393   2.023
  -3  -7   3  35.119   2.502
  -3  -7   3  32.323   2.254
  -3  -7   3  47.614   8.300
  -3  -7   3  25.845   6.763
   2   7  -3  26.874   2.103
  -2  -7   3  30.989   2.418
  -2  -7   3  29.009   2.481
  -2  -7   3  34.439   2.230
  -2  -7   3  34.342   5.733
  -2  -7   3  36.032   6.488
   1   7  -3  0.6692  0.6779
   1   7  -3 -0.2938  0.8915
  -1  -7   3  1.1656  0.8668
  -1  -7   3  0.4691  1.2053
  -1  -7   3  0.9693  0.9472
  -1  -7   3  2.4121  3.8344
  -1  -7   3  3.6527  3.1237
   0   7  -3  87.854   5.368
   0   7  -3  90.353   5.945
   0  -7   3  94.719   5.888
   0  -7   3  91.776   5.330
   0  -7   3  108.58    6.64
   0  -7   3  102.04    6.77
  -1   7  -3  10.941   1.598
  -1   7  -3  11.039   1.582
   1  -7   3  9.7247  1.5613
   1  -7   3  10.254   1.917
   1  -7   3  11.884   3.005
   1  -7   3  12.554   3.111
  -2   7  -3  1.2101  1.0146
  -2   7  -3  1.2064  1.0530
   2  -7   3  4.1005  1.6463
   2  -7   3  2.4917  1.2242
   2  -7   3  2.8368  4.0438
   2  -7   3  2.3540  2.8772
  -3   7  -3  40.385   2.790
  -3   7  -3  40.515   2.680
   3  -7   3  36.224   3.506
   3  -7   3  48.265   3.440
   3  -7   3  43.183   7.319
   3  -7   3  47.573   8.396
  -4   7  -3 -0.2801  1.5713
   4  -7   3  2.6836  2.0242
   4  -7   3  0.0799  1.7987
   4  -7   3  2.3892  6.8510
  -5   7  -3  54.226   4.792
   5  -7   3  59.316   5.190
   5  -7   3  66.737   4.910
   5  -7   3  62.224  11.989
   6   6  -3  3.3236  1.5158
  -6  -6   3  0.6586  2.3472
  -6  -6   3  6.1081  1.9923
  -6  -6   3   2.278  10.292
   5   6  -3  115.86    6.59
  -5  -6   3  107.69    5.14
  -5  -6   3  99.785   7.374
  -5  -6   3  113.49   13.55
   4   6  -3  24.821   1.597
  -4  -6   3  23.399   1.958
  -4  -6   3  25.845   1.844
  -4  -6   3  11.711   8.001
   3   6  -3  882.19   44.98
  -3  -6   3  906.61   29.15
  -3  -6   3  939.55   51.18
  -3  -6   3 1052.91   64.82
  -3  -6   3  944.67   73.15
   2   6  -3  50.952   4.150
   2   6  -3  49.190   2.291
   2   6  -3  49.037   1.785
   2   6  -3  39.583   3.359
  -2  -6   3  55.553   2.928
  -2  -6   3  47.161   4.122
  -2  -6   3  52.754   2.923
  -2  -6   3  46.470   6.480
  -2  -6   3  55.674   6.361
   1   6  -3  89.164   5.840
   1   6  -3  82.439   5.469
   1   6  -3  94.122   7.181
  -1  -6   3  90.974   5.629
  -1  -6   3  90.327   4.582
  -1  -6   3  90.695   4.357
   1   6  -3  71.839   7.417
  -1  -6   3  102.88    8.22
  -1  -6   3  90.404   8.189
   0   6  -3  352.04   28.34
   0   6  -3  381.74   21.43
   0   6  -3  345.67   25.94
   0   6  -3  382.22   23.05
   0  -6   3  347.78   18.71
   0  -6   3  393.20   19.70
   0   6  -3  364.20   25.29
   0  -6   3  438.77   22.03
   0  -6   3  404.53   39.80
  -1   6  -3  83.714   2.601
  -1   6  -3  83.870   3.154
  -1   6  -3  77.835   5.150
  -1   6  -3  75.422   5.446
   1  -6   3  83.461   4.355
   1  -6   3  82.850   3.481
  -1   6  -3  64.999   7.434
   1  -6   3  76.788   6.892
   1  -6   3  89.317   5.566
  -2   6  -3  51.936   2.394
  -2   6  -3  49.101   2.744
   2  -6   3  51.747   3.827
   2  -6   3  48.198   2.453
   2  -6   3  53.159   5.959
   2  -6   3  51.667   5.675
  -3   6  -3  818.16   36.85
   3  -6   3  809.67   27.36
   3  -6   3  800.34   28.27
   3  -6   3  946.35   54.73
   3  -6   3  936.67   66.92
  -4   6  -3  72.563   4.560
   4  -6   3  77.971   4.587
   4  -6   3  72.750   4.565
   4  -6   3  86.645   9.648
  -5   6  -3  127.43    8.34
   5  -6   3  126.18   10.12
   5  -6   3  135.64   11.56
   5  -6   3  129.05   12.39
   7   5  -3  76.778   6.705
  -7  -5   3  66.461   4.913
  -7  -5   3  76.842   5.943
  -7  -5   3  60.044  18.469
   6   5  -3  29.937   2.617
  -6  -5   3  33.582   3.844
  -6  -5   3  30.581   3.120
  -6  -5   3  45.221  14.329
   5   5  -3  1.1547  1.5369
  -5  -5   3  4.5910  1.6960
  -5  -5   3  2.2677  1.6137
  -5  -5   3  2.0291  8.9427
   4   5  -3  19.043   1.181
   4   5  -3  20.643   1.570
  -4  -5   3  21.230   2.164
  -4  -5   3  22.911   2.007
  -4  -5   3  11.471   7.242
  -4  -5   3  0.0000  5.8646
   3   5  -3  262.49    7.86
   3   5  -3  256.22    9.97
  -3  -5   3  271.22    9.44
  -3  -5   3  269.15   15.61
   3   5  -3  280.19   21.41
  -3  -5   3  253.00   14.25
  -3  -5   3  297.91   16.71
   2   5  -3  0.5673  1.0180
   2   5  -3  1.5095  0.9803
  -2  -5   3  1.1813  0.5621
  -2  -5   3  1.5186  0.5530
  -2  -5   3  2.0823  1.1872
   2   5  -3  2.1726  3.6199
  -2  -5   3  0.0000  2.9005
  -2  -5   3  -1.008   3.375
   1   5  -3  148.63   12.54
   1   5  -3  150.56    5.73
   1   5  -3  139.03    8.60
   1   5  -3  142.73    9.31
  -1  -5   3  158.91    9.35
  -1  -5   3  154.20    7.81
  -1  -5   3  154.30    7.37
   1   5  -3  140.18   12.02
  -1  -5   3  138.01   10.03
  -1  -5   3  174.17   11.21
   0   5  -3  399.65   23.24
   0   5  -3  307.37   24.97
   0   5  -3  397.02   22.81
   0   5  -3  384.41   24.46
   0   5  -3  406.97   26.47
   0  -5   3  396.02   11.15
   0  -5   3  406.05   18.78
   0  -5   3  382.67   18.31
   0   5  -3  395.52   19.53
   0  -5   3  432.77   32.55
   0  -5   3  421.15   22.20
  -1   5  -3  0.6708  0.6038
  -1   5  -3  1.0650  1.0266
  -1   5  -3  0.5173  0.5130
  -1   5  -3  1.2991  1.0288
  -1   5  -3  0.3195  0.4664
   1  -5   3  1.3546  1.0673
   1  -5   3  0.8210  0.6394
   1  -5   3  1.0213  0.9222
  -1   5  -3  -1.059   2.264
   1  -5   3  2.9924  2.4185
   1  -5   3 -0.0233  1.9350
  -2   5  -3  15.862   1.477
  -2   5  -3  19.424   1.362
  -2   5  -3  17.599   1.605
  -2   5  -3  18.928   1.350
   2  -5   3  20.732   1.761
   2  -5   3  18.072   2.039
  -2   5  -3  12.141   3.831
   2  -5   3  15.304   3.310
  -3   5  -3  0.1796  0.5901
  -3   5  -3  0.1924  0.5143
  -3   5  -3  0.7646  1.3485
   3  -5   3 -0.2058  1.0833
   3  -5   3 -0.2884  1.0889
   3  -5   3 -0.0690  3.6833
   3  -5   3  -1.048   4.194
  -4   5  -3  4.8739  1.4587
  -4   5  -3  4.5919  0.9741
   4  -5   3  4.5473  1.2578
   4  -5   3  6.1226  1.4246
   4  -5   3  7.1060  5.5909
  -5   5  -3  2.5313  1.9163
   5  -5   3  7.3944  1.3724
   5  -5   3  5.3372  1.5673
   5  -5   3  8.9973  5.4347
  -6   5  -3  28.348   3.385
   6  -5   3  35.428   3.197
   6  -5   3  33.662   3.332
   6  -5   3  44.616  11.657
   7   4  -3  13.043   2.747
  -7  -4   3  16.634   3.061
  -7  -4   3  11.619   2.988
  -7  -4   3   0.987  13.309
   6   4  -3  55.046   3.644
  -6  -4   3  52.836   3.582
  -6  -4   3  45.489   4.229
  -6  -4   3  29.573  13.224
   5   4  -3  198.51   14.88
   5   4  -3  201.53    7.24
  -5  -4   3  217.84   11.67
  -5  -4   3  216.05   10.10
  -5  -4   3  191.57   12.66
  -5  -4   3  196.74   14.11
   4   4  -3  16.037   1.313
   4   4  -3  18.463   1.167
   4   4  -3  18.253   1.257
   4   4  -3  20.449   1.611
  -4  -4   3  19.620   1.865
  -4  -4   3  18.060   1.930
  -4  -4   3  19.383   1.966
   4   4  -3  9.4041  4.6161
  -4  -4   3  21.407   6.795
  -4  -4   3  22.058   6.137
   3   4  -3  130.96    5.16
   3   4  -3  117.62    4.22
   3   4  -3  128.46    9.49
  -3  -4   3  137.79    5.55
  -3  -4   3  132.27    7.40
   3   4  -3  143.64   10.45
  -3  -4   3  124.56    9.25
   2   4  -3 2173.31   72.43
  -2  -4   3 2248.07   64.80
   2   4  -3 2175.20  119.34
  -2  -4   3 2459.48  157.21
  -2  -4   3 2275.37   84.11
   1   4  -3  81.339   5.605
   1   4  -3  76.762   6.663
   1   4  -3  83.554   3.060
   1   4  -3  85.376   4.468
   1   4  -3  80.981   4.806
  -1  -4   3  77.824   4.719
  -1  -4   3  83.912   4.250
  -1  -4   3  83.389   4.529
  -1  -4   3  74.079   4.224
   1   4  -3  85.429   6.908
   1   4  -3  81.849   5.684
  -1  -4   3  90.730   7.454
  -1  -4   3  74.799   5.182
   0   4  -3  45.173   1.991
   0   4  -3  42.927   2.600
   0   4  -3  43.526   3.593
   0   4  -3  37.666   1.947
   0   4  -3  39.843   1.742
   0   4  -3  40.721   1.927
   0   4  -3  43.996   3.124
   0   4  -3  42.466   1.583
   0  -4   3  44.356   2.472
   0  -4   3  39.728   1.734
   0  -4   3  43.499   3.330
   0  -4   3  41.339   2.010
   0  -4   3  41.177   1.792
   0   4  -3  40.958   3.575
   0   4  -3  34.068   4.299
   0  -4   3  44.849   3.660
   0  -4   3  38.845   3.836
  -1   4  -3  733.75   64.57
  -1   4  -3  701.46   53.29
  -1   4  -3  682.22   28.97
  -1   4  -3  665.54   18.68
  -1   4  -3  679.09   38.40
  -1   4  -3  736.33   31.32
  -1   4  -3  699.27   29.09
  -1   4  -3  663.41   23.75
   1  -4   3  665.14   23.57
   1  -4   3  659.05   24.05
   1  -4   3  679.98   38.23
  -1   4  -3  744.00   30.21
   1  -4   3  749.31   32.41
   1  -4   3  700.34   35.56
  -2   4  -3  109.76    6.86
  -2   4  -3  108.87    4.11
  -2   4  -3  108.60    8.31
   2  -4   3  110.59    8.63
   2  -4   3  111.16    5.23
   2  -4   3  114.22    5.94
  -2   4  -3  119.42    8.06
   2  -4   3  127.90    8.34
   2  -4   3  108.14    7.43
  -3   4  -3  649.74   45.11
  -3   4  -3  687.00   22.56
  -3   4  -3  666.39   37.28
   3  -4   3  675.95   19.04
   3  -4   3  673.08   19.32
  -3   4  -3  760.96   37.80
   3  -4   3  762.99   34.35
   3  -4   3  784.28   39.90
  -4   4  -3  8.8327  1.4405
  -4   4  -3  10.907   1.280
   4  -4   3  14.260   1.459
   4  -4   3  12.657   1.389
   4  -4   3  10.158   4.183
   4  -4   3  5.1601  6.0619
  -5   4  -3  19.852   2.712
  -5   4  -3  21.030   1.959
   5  -4   3  20.852   2.281
   5  -4   3  20.942   1.859
   5  -4   3  22.029   6.646
  -6   4  -3  7.7146  2.5185
   6  -4   3  5.3770  1.9506
   6  -4   3  2.7113  1.7928
   6  -4   3  25.081  10.917
   7   3  -3 -0.9650  2.1581
  -7  -3   3  -1.591   1.752
  -7  -3   3   2.356  11.256
   6   3  -3  0.4357  1.3275
  -6  -3   3  -1.854   1.505
  -6  -3   3  -1.003   1.240
  -6  -3   3  -3.776  11.549
   5   3  -3  6.9444  1.4069
   5   3  -3  7.7465  0.9083
   5   3  -3  6.4093  0.8867
  -5  -3   3  8.1064  1.1050
  -5  -3   3  6.1016  1.1096
  -5  -3   3  5.6187  1.3307
   5   3  -3  5.5765  7.2635
  -5  -3   3  4.6135  7.2792
  -5  -3   3   8.057  10.049
   4   3  -3  334.81   13.43
   4   3  -3  331.27   25.68
   4   3  -3  352.44   10.27
   4   3  -3  344.67   11.80
  -4  -3   3  355.72   20.35
  -4  -3   3  360.41   25.42
   4   3  -3  368.69   16.47
  -4  -3   3  345.71   22.61
  -4  -3   3  388.53   17.90
   3   3  -3  590.42   50.36
   3   3  -3  544.45   38.20
   3   3  -3  517.50   26.13
   3   3  -3  554.12   16.91
   3   3  -3  557.82   23.12
  -3  -3   3  582.90   24.46
  -3  -3   3  563.51   47.13
   3   3  -3  632.97   40.18
  -3  -3   3  596.12   20.65
  -3  -3   3  547.78   28.46
   2   3  -3  643.04   25.38
   2   3  -3  686.26   33.41
   2   3  -3  661.98   46.52
   2   3  -3  703.85   56.05
   2   3  -3  702.05   44.83
  -2  -3   3  629.17   29.79
  -2  -3   3  666.15   31.16
  -2  -3   3  597.96   22.46
   2   3  -3  712.05   32.22
   2   3  -3  708.15   29.15
  -2  -3   3  692.80   40.68
   1   3  -3  876.76   22.87
   1   3  -3  904.11   74.25
   1   3  -3  826.67   51.97
   1   3  -3  783.37   35.71
   1   3  -3  904.46   26.26
  -1  -3   3  813.83   35.63
  -1  -3   3  853.76   53.66
  -1  -3   3  854.44   43.07
  -1  -3   3  722.02   31.90
   1   3  -3  856.08   50.92
   1   3  -3  813.02   27.23
  -1  -3   3  910.52   51.82
  -1  -3   3  866.75   34.72
   0   3  -3  9.2820  0.8514
   0   3  -3  9.1851  0.8531
   0   3  -3  7.7359  0.6131
   0   3  -3  7.0151  0.5585
   0   3  -3  7.3501  0.9745
   0   3  -3  8.2962  0.8445
   0  -3   3  6.8714  1.1091
   0  -3   3  8.3812  0.9558
   0  -3   3  7.9896  0.4635
   0  -3   3  8.3563  0.5074
   0   3  -3  4.2135  1.5418
   0   3  -3  3.7085  1.7750
   0  -3   3  5.3725  1.5617
   0  -3   3  6.2073  1.4553
  -1   3  -3  136.09    6.02
  -1   3  -3  141.46    5.14
  -1   3  -3  146.61    4.60
  -1   3  -3  144.78    9.01
  -1   3  -3  140.45    9.29
  -1   3  -3  138.43    4.59
  -1   3  -3  138.81    6.29
   1  -3   3  138.97    7.58
   1  -3   3  142.30    6.99
   1  -3   3  140.78    6.82
  -1   3  -3  135.08   11.52
  -1   3  -3  136.68   11.47
   1  -3   3  151.33    8.02
   1  -3   3  144.66    7.91
  -2   3  -3  180.39   12.18
  -2   3  -3  182.88    5.26
  -2   3  -3  175.16    7.36
  -2   3  -3  187.07    4.83
  -2   3  -3  173.67    7.77
   2  -3   3  166.30    7.24
   2  -3   3  179.43    6.93
   2  -3   3  185.71    5.56
  -2   3  -3  172.64   13.69
  -2   3  -3  173.30   10.47
   2  -3   3  186.78    9.72
   2  -3   3  186.72   10.00
  -3   3  -3  37.424   1.082
  -3   3  -3  36.049   1.991
  -3   3  -3  40.397   1.901
   3  -3   3  38.321   1.862
   3  -3   3  36.544   1.794
  -3   3  -3  29.649   5.072
   3  -3   3  37.752   6.428
   3  -3   3  37.505   5.039
  -4   3  -3  689.16   45.93
  -4   3  -3  705.48   22.70
   4  -3   3  690.70   21.78
   4  -3   3  673.16   23.77
  -4   3  -3  795.32   48.59
   4  -3   3  787.67   32.21
  -5   3  -3  195.23   15.12
  -5   3  -3  178.57   10.54
   5  -3   3  200.53    7.47
   5  -3   3  192.09    7.83
   5  -3   3  224.73   14.53
  -6   3  -3  45.147   3.222
  -6   3  -3  54.597   3.976
   6  -3   3  56.274   3.543
   6  -3   3  53.014   3.384
   6  -3   3  35.040   8.919
  -7   3  -3  74.213   5.517
   7  -3   3  74.127   5.148
   7  -3   3  71.184   6.188
   7  -3   3  55.692  13.738
   7   2  -3  318.09   19.51
   7   2  -3  292.61   14.05
  -7  -2   3  293.88   16.33
  -7  -2   3  279.56   18.10
   6   2  -3  348.95   25.76
   6   2  -3  335.51   24.16
   6   2  -3  341.06   14.42
  -6  -2   3  364.11   17.24
  -6  -2   3  326.82   14.73
   6   2  -3  380.78   29.26
  -6  -2   3  327.04   32.92
   5   2  -3  18.772   1.568
   5   2  -3  20.337   1.532
   5   2  -3  14.082   2.413
   5   2  -3  21.159   2.081
  -5  -2   3  19.852   2.517
  -5  -2   3  20.333   2.304
  -5  -2   3  19.734   1.554
   5   2  -3  2.0980  5.1897
  -5  -2   3  24.583   8.639
   4   2  -3  879.58   19.21
   4   2  -3  893.51   41.27
   4   2  -3  801.36   51.18
   4   2  -3  901.84   32.40
   4   2  -3  905.84   35.04
  -4  -2   3  876.13   54.07
  -4  -2   3  831.03   23.88
   4   2  -3  982.19   58.19
   4   2  -3  976.70   43.52
  -4  -2   3  982.42   30.58
  -4  -2   3 1011.08   54.39
   3   2  -3  571.38   25.23
   3   2  -3  575.24   21.47
   3   2  -3  647.14   63.36
   3   2  -3  584.35   17.49
   3   2  -3  539.65   30.33
   3   2  -3  603.15   28.96
   3   2  -3  613.76   40.39
  -3  -2   3  586.50   23.36
  -3  -2   3  575.67   40.17
  -3  -2   3  600.38   44.20
  -3  -2   3  560.65   21.14
   3   2  -3  643.83   33.61
  -3  -2   3  606.83   25.78
  -3  -2   3  599.71   23.56
   2   2  -3  140.13    5.74
   2   2  -3  147.36   11.17
   2   2  -3  142.67    4.85
   2   2  -3  132.56    6.50
   2   2  -3  134.66    6.11
   2   2  -3  144.75    6.08
  -2  -2   3  157.34    6.05
  -2  -2   3  147.05    9.27
  -2  -2   3  133.29    7.89
   2   2  -3  137.80    9.12
   2   2  -3  140.26    7.62
  -2  -2   3  145.24    6.32
  -2  -2   3  147.41   11.40
   1   2  -3  2.9851  0.5012
   1   2  -3  2.3831  0.6372
   1   2  -3  2.4709  0.7297
   1   2  -3  2.2826  0.4000
  -1  -2   3  1.6951  0.4615
  -1  -2   3  1.5578  0.4058
  -1  -2   3  1.1814  0.6806
   1   2  -3  2.7849  2.2990
   1   2  -3  3.0247  1.7732
  -1  -2   3  5.4807  2.2738
   0   2  -3  2.3311  0.2763
   0   2  -3  1.9116  0.2801
   0   2  -3  2.4911  0.4619
   0   2  -3  2.5983  0.4910
   0   2  -3  2.6187  0.7458
   0   2  -3  2.2078  0.4540
   0  -2   3  2.7820  0.2897
   0  -2   3  1.8930  0.4509
   0  -2   3  1.6057  0.4233
   0  -2   3  2.5241  0.3332
   0  -2   3  2.9858  0.2578
   0   2  -3  -1.052   1.312
   0   2  -3  1.8918  1.1832
   0  -2   3  2.2486  1.1254
   0  -2   3  3.7004  1.6232
  -1   2  -3  154.28    9.25
  -1   2  -3  177.97    7.44
  -1   2  -3  181.91   15.51
  -1   2  -3  179.80    9.53
  -1   2  -3  165.85    8.89
  -1   2  -3  177.87   11.69
   1  -2   3  185.59    9.90
   1  -2   3  171.68    9.04
   1  -2   3  179.62   12.19
   1  -2   3  153.64    8.22
  -1   2  -3  168.51   10.36
  -1   2  -3  193.36   15.01
   1  -2   3  191.53    8.79
   1  -2   3  188.03    9.64
  -2   2  -3 -0.6708  0.4667
  -2   2  -3  0.6623  0.2780
  -2   2  -3  0.2357  0.5143
  -2   2  -3  0.2997  0.3384
  -2   2  -3 -0.0464  0.7506
   2  -2   3  0.2737  0.4569
   2  -2   3  0.3040  0.5241
   2  -2   3  0.7996  0.4593
   2  -2   3  0.3968  0.3216
  -2   2  -3 -0.6554  1.6219
  -2   2  -3  -2.332   2.593
   2  -2   3 -0.1760  1.4727
   2  -2   3  -2.265   2.570
  -3   2  -3  0.6989  0.7319
  -3   2  -3  1.0741  0.7590
  -3   2  -3  1.2878  0.6538
  -3   2  -3  0.6788  0.8903
  -3   2  -3  0.5126  0.1933
   3  -2   3  1.4645  0.8357
  -3   2  -3  -2.581   2.656
  -3   2  -3  1.4944  4.0668
   3  -2   3  -1.704   4.288
   3  -2   3  0.9833  3.0159
  -4   2  -3  138.90   10.00
  -4   2  -3  137.74    5.19
   4  -2   3  132.50    4.67
  -4   2  -3  117.20   11.84
   4  -2   3  162.31   11.47
   4  -2   3  134.00   10.08
  -5   2  -3  107.45    4.09
  -5   2  -3  102.21    8.74
   5  -2   3  111.40    5.04
   5  -2   3  113.26   14.15
   5  -2   3  113.90   10.89
  -6   2  -3  209.49   15.79
  -6   2  -3  205.06   17.75
   6  -2   3  203.04    7.81
   6  -2   3  215.11   19.16
  -7   2  -3  237.85   13.24
  -7   2  -3  234.29   16.48
   7  -2   3  247.80   16.80
   7  -2   3  243.27   23.81
   7   1  -3  12.671   2.644
   7   1  -3  20.323   2.409
  -7  -1   3  12.447   3.111
  -7  -1   3  19.665   2.321
   6   1  -3  49.046   2.597
   6   1  -3  49.916   3.392
   6   1  -3  47.619   3.510
   6   1  -3  47.463   2.253
  -6  -1   3  44.884   3.560
  -6  -1   3  41.688   2.742
   6   1  -3  33.972  10.343
  -6  -1   3  16.568   8.218
   5   1  -3  56.395   2.826
   5   1  -3  53.674   4.175
   5   1  -3  51.675   3.158
   5   1  -3  51.270   2.423
  -5  -1   3  55.174   2.387
  -5  -1   3  55.005   2.590
   5   1  -3  34.944   7.548
  -5  -1   3  59.404  10.902
   4   1  -3  577.07   14.61
   4   1  -3  616.24   36.47
   4   1  -3  583.82   38.51
   4   1  -3  593.53   17.04
   4   1  -3  555.53   32.78
  -4  -1   3  640.86   40.14
  -4  -1   3  615.83   19.37
  -4  -1   3  598.65   56.01
   4   1  -3  630.48   29.85
   4   1  -3  694.79   60.09
  -4  -1   3  642.96   32.30
  -4  -1   3  702.21   32.40
   3   1  -3  430.19   37.72
   3   1  -3  395.21   14.54
   3   1  -3  412.06   14.60
   3   1  -3  404.45   13.43
   3   1  -3  436.73   17.66
   3   1  -3  420.97   12.28
  -3  -1   3  456.97   15.58
  -3  -1   3  435.39   12.78
  -3  -1   3  397.92   14.11
  -3  -1   3  423.43   18.54
   3   1  -3  458.90   32.19
  -3  -1   3  463.71   23.12
  -3  -1   3  485.88   23.24
   2   1  -3  0.7152  0.3579
   2   1  -3  1.6120  0.6777
   2   1  -3  1.6447  0.4261
   2   1  -3  0.7634  0.6262
   2   1  -3  1.6059  0.5567
  -2  -1   3  0.7194  0.4170
  -2  -1   3  1.6997  0.5954
  -2  -1   3  0.8030  0.6165
  -2  -1   3  0.6053  0.6172
   2   1  -3  1.3743  1.8178
   2   1  -3 -0.2442  2.3945
  -2  -1   3  0.3333  2.6342
  -2  -1   3  0.0290  2.0918
   1   1  -3  845.82   40.70
   1   1  -3  874.00   55.52
   1   1  -3  858.42   40.17
   1   1  -3  923.07   54.12
   1   1  -3  948.28   38.79
  -1  -1   3  920.72   61.37
  -1  -1   3  944.91   55.81
  -1  -1   3  945.98   48.12
  -1  -1   3  978.15   35.45
  -1  -1   3  811.91   41.39
  -1  -1   3  960.20   47.18
   1   1  -3 1008.11   53.32
   1   1  -3  901.93   46.03
  -1  -1   3 1009.81   40.90
  -1  -1   3  883.17   42.54
   0   1  -3 3017.74  113.24
   0   1  -3 2954.13  131.08
   0  -1   3 3530.74  194.55
   0  -1   3 2992.87  104.11
  -1   1  -3  549.25   24.12
  -1   1  -3  523.55   33.15
  -1   1  -3  533.70   38.95
  -1   1  -3  533.69   36.41
  -1   1  -3  528.10   28.12
   1  -1   3  519.51   27.27
   1  -1   3  526.85   31.27
   1  -1   3  483.48   29.57
   1  -1   3  519.05   29.78
   1  -1   3  528.97   49.15
  -1   1  -3  532.01   16.40
  -1   1  -3  532.97   21.70
   1  -1   3  505.93   25.79
   1  -1   3  512.73   20.74
  -2   1  -3 1486.07   61.96
  -2   1  -3 1491.52   46.61
  -2   1  -3 1667.52   47.41
  -2   1  -3 1637.91   90.86
  -2   1  -3 1616.61   48.35
   2  -1   3 1478.90   70.16
   2  -1   3 1615.59   86.79
   2  -1   3 1560.64   65.29
  -2   1  -3 1671.23   97.98
  -2   1  -3 1720.36   95.72
   2  -1   3 1554.40   56.25
   2  -1   3 1687.66   92.88
  -3   1  -3 1368.86   36.23
  -3   1  -3 1394.36   73.06
  -3   1  -3 1316.19   36.46
  -3   1  -3 1332.24   40.40
  -3   1  -3 1338.74   72.63
   3  -1   3 1222.61   40.79
   3  -1   3 1239.65   92.50
   3  -1   3 1240.01   61.30
   3  -1   3 1231.40   59.49
  -3   1  -3 1316.40   46.33
  -3   1  -3 1294.05   44.50
   3  -1   3 1364.79   44.77
   3  -1   3 1281.60   50.24
  -4   1  -3  192.44   10.28
  -4   1  -3  182.91   13.27
  -4   1  -3  186.18   12.90
  -4   1  -3  179.56    7.05
   4  -1   3  175.62    6.91
   4  -1   3  165.50   12.20
  -4   1  -3  197.26   15.25
  -4   1  -3  165.92   15.21
   4  -1   3  183.99   12.28
   4  -1   3  184.59   13.38
  -5   1  -3  3.4590  1.8395
  -5   1  -3  1.7182  1.1390
   5  -1   3  1.9499  0.3310
   5  -1   3  2.0449  1.1147
   5  -1   3  2.7964  0.4568
  -5   1  -3  -1.301   7.274
   5  -1   3  2.6073  8.9046
   5  -1   3  5.2751  7.0180
  -6   1  -3  112.82    6.29
  -6   1  -3  105.67    7.23
   6  -1   3  100.31    4.28
   6  -1   3  74.713  11.949
  -7   1  -3  10.234   2.794
  -7   1  -3  11.805   1.954
   7  -1   3  7.2727  2.1296
   7  -1   3  14.570  11.258
   7   0  -3  1.1475  2.3124
   7   0  -3  0.7797  1.3805
   7   0  -3  2.5509  1.0045
  -7   0   3  -1.320   2.343
  -7   0   3  1.8616  1.5833
   7   0  -3   8.229  12.393
   6   0  -3  193.44   11.21
   6   0  -3  193.31   10.40
   6   0  -3  187.15    6.88
   6   0  -3  191.20    8.74
  -6   0   3  175.91   15.22
  -6   0   3  188.92   14.74
   6   0  -3  197.66   17.21
   5   0  -3  191.94   14.06
   5   0  -3  184.86    6.21
   5   0  -3  204.42   11.27
   5   0  -3  191.32    8.28
   5   0  -3  189.45    6.93
  -5   0   3  203.25    8.51
  -5   0   3  201.91   15.31
   5   0  -3  213.86   19.55
   5   0  -3  217.81   14.16
  -5   0   3  192.83   19.21
   4   0  -3  1.7828  0.7980
   4   0  -3  0.6220  0.9690
   4   0  -3  1.6743  0.8000
   4   0  -3  1.8192  0.7242
   4   0  -3  1.3533  0.7190
  -4   0   3  0.7280  1.0493
  -4   0   3  0.7112  0.9170
  -4   0   3  1.0831  0.4930
   4   0  -3  1.1868  5.5856
   4   0  -3  0.9904  3.0027
  -4   0   3  10.180   5.931
  -4   0   3  -7.541   5.198
   3   0  -3  620.82   28.52
   3   0  -3  623.09   17.10
   3   0  -3  616.16   20.48
   3   0  -3  661.76   33.51
   3   0  -3  614.66   17.06
  -3   0   3  630.20   42.96
  -3   0   3  615.11   19.41
  -3   0   3  552.04   21.96
  -3   0   3  681.94   18.35
   3   0  -3  694.80   52.15
   3   0  -3  669.69   34.06
  -3   0   3  706.75   26.13
  -3   0   3  671.99   35.02
   2   0  -3  188.72    9.10
   2   0  -3  207.33    6.44
   2   0  -3  206.81   16.57
   2   0  -3  209.24   10.04
   2   0  -3  207.10   13.67
   2   0  -3  196.70   10.65
  -2   0   3  204.09   12.45
  -2   0   3  180.15   12.55
  -2   0   3  203.37    7.04
  -2   0   3  177.29    8.57
  -2   0   3  216.29    7.98
   2   0  -3  222.87   13.62
   2   0  -3  216.27   11.79
  -2   0   3  234.51   10.99
  -2   0   3  211.54   14.52
   1   0  -3  70.151   2.801
   1   0  -3  70.648   4.229
   1   0  -3  69.386   4.876
   1   0  -3  73.422   2.961
   1   0  -3  71.722   4.033
  -1   0   3  74.350   4.031
  -1   0   3  71.679   2.593
  -1   0   3  73.800   3.381
  -1   0   3  75.121   3.593
  -1   0   3  78.429   4.212
   1   0  -3  75.384   5.455
   1   0  -3  67.144   5.001
  -1   0   3  59.649   3.880
  -1   0   3  76.346   5.127
   0   0  -3 2033.44   91.11
   0   0  -3 2174.81  135.89
   0   0  -3 2150.31  141.74
   0   0   3 2061.27  120.08
   0   0   3 2136.10  104.97
   0   0   3 2274.99  151.60
   0   0  -3 2204.21  144.11
   0   0  -3 2181.23  107.22
   0   0   3 2249.81   71.85
   0   0   3 2260.31   91.65
  -1   0  -3 3494.05  128.48
  -1   0  -3 3695.08  128.62
   1   0   3 3387.35  142.90
   1   0   3 3703.02  162.43
  -2   0  -3  198.00    9.33
  -2   0  -3  214.33   11.97
  -2   0  -3  213.76    8.51
  -2   0  -3  204.74    8.10
  -2   0  -3  211.42   17.63
  -2   0  -3  209.61    9.10
  -2   0  -3  220.35   14.16
   2   0   3  201.09   14.55
   2   0   3  189.39    7.56
   2   0   3  212.91   12.24
   2   0   3  191.11    6.28
  -2   0  -3  218.66   10.05
  -2   0  -3  209.71   12.99
   2   0   3  221.50    9.69
   2   0   3  217.79   12.22
  -3   0  -3  483.29   21.32
  -3   0  -3  485.69   21.31
  -3   0  -3  472.65   14.85
   3   0   3  442.69   13.03
   3   0   3  443.45   18.23
   3   0   3  462.34   43.03
   3   0   3  435.65   13.80
  -3   0  -3  481.77   18.64
  -3   0  -3  449.61   15.94
   3   0   3  454.91   17.91
   3   0   3  502.52   18.28
  -4   0  -3  370.77   35.23
  -4   0  -3  417.13   19.16
  -4   0  -3  381.14   31.97
  -4   0  -3  401.57   11.82
   4   0   3  361.46   14.13
   4   0   3  356.22   21.24
   4   0   3  366.16   12.33
  -4   0  -3  394.99   22.29
  -4   0  -3  338.91   15.31
   4   0   3  363.36   16.53
   4   0   3  375.50   16.20
  -5   0  -3  31.593   1.971
  -5   0  -3  35.219   2.508
  -5   0  -3  32.530   2.251
  -5   0  -3  33.185   2.961
   5   0   3  30.990   1.470
   5   0   3  31.431   2.120
  -5   0  -3  16.035   5.721
   5   0   3  23.096   5.670
   5   0   3  31.276  11.001
  -6   0  -3  105.88    6.20
  -6   0  -3  98.813   6.387
   6   0   3  115.15    6.23
   6   0   3  107.48   12.85
  -7   0  -3  83.708   5.136
  -7   0  -3  91.746   7.936
  -7   0  -3  85.644   6.008
   7   0   3  92.279   4.226
   7   0   3  102.95   17.86
   7  -1  -3  68.516   3.970
  -7   1   3  63.244   4.742
  -7   1   3  75.896   5.219
   7  -1  -3  34.921  12.431
   6  -1  -3  0.9970  1.2776
   6  -1  -3  1.0633  0.9858
   6  -1  -3  1.1628  0.9895
  -6   1   3  1.9048  1.8454
  -6   1   3  2.5294  1.8186
   6  -1  -3  2.2047  5.9995
   5  -1  -3  45.072   2.405
   5  -1  -3  44.880   2.658
   5  -1  -3  45.006   2.434
   5  -1  -3  47.627   3.057
   5  -1  -3  48.581   3.119
  -5   1   3  48.603   2.170
  -5   1   3  47.835   3.778
   5  -1  -3  53.944  12.353
   5  -1  -3  48.681   8.980
  -5   1   3  36.693   9.047
   4  -1  -3  20.189   1.371
   4  -1  -3  20.428   1.702
   4  -1  -3  20.573   1.568
   4  -1  -3  22.960   1.500
   4  -1  -3  19.962   2.283
  -4   1   3  22.001   2.202
  -4   1   3  20.883   1.646
   4  -1  -3  20.745   4.883
   4  -1  -3  22.294   5.505
  -4   1   3  14.726   6.024
  -4   1   3  16.447   6.390
   3  -1  -3  102.60    5.14
   3  -1  -3  99.086   4.642
   3  -1  -3  98.253   3.759
   3  -1  -3  98.722   3.767
   3  -1  -3  91.807   3.439
   3  -1  -3  97.331   6.303
  -3   1   3  105.76    4.75
  -3   1   3  102.56    3.82
  -3   1   3  106.62    4.16
  -3   1   3  100.46    2.99
  -3   1   3  101.99    4.60
   3  -1  -3  112.11    7.38
   3  -1  -3  97.111   7.799
  -3   1   3  112.59    8.70
  -3   1   3  101.04    8.43
   2  -1  -3 1288.76   61.56
   2  -1  -3 1440.18   91.33
   2  -1  -3 1437.70   39.80
   2  -1  -3 1403.26  101.93
   2  -1  -3 1439.22   43.29
  -2   1   3 1345.14   51.88
  -2   1   3 1492.95   35.46
  -2   1   3 1496.56   71.60
  -2   1   3 1423.61   42.09
  -2   1   3 1465.62   48.82
   2  -1  -3 1543.77   95.45
   2  -1  -3 1562.91   92.24
  -2   1   3 1613.60  105.85
  -2   1   3 1636.96   84.80
   1  -1  -3  158.90    5.51
   1  -1  -3  155.33   11.25
   1  -1  -3  161.78    4.87
   1  -1  -3  159.81    6.67
  -1   1   3  160.52    8.44
  -1   1   3  158.63    8.64
  -1   1   3  159.14    6.52
  -1   1   3  159.05    7.16
  -1   1   3  157.17    7.69
   1  -1  -3  164.85   10.37
   1  -1  -3  162.14    7.39
  -1   1   3  169.81    7.54
  -1   1   3  164.01    9.30
   0  -1  -3  81.826   4.127
   0  -1  -3  93.305   4.529
   0  -1  -3  87.010   4.313
   0  -1  -3  82.207   4.790
   0   1   3  82.879   3.317
   0   1   3  89.770   4.631
   0   1   3  90.390   4.370
   0   1   3  85.983   4.285
   0   1   3  83.040   4.046
   0  -1  -3  89.066   5.751
   0   1   3  85.190   4.820
   0   1   3  88.537   4.600
  -1  -1  -3 1227.38   95.98
  -1  -1  -3 1083.28   51.67
  -1  -1  -3 1219.35   80.66
  -1  -1  -3 1140.97   73.61
  -1  -1  -3 1206.09   86.81
   1   1   3 1205.26   94.71
   1   1   3 1203.02   64.66
   1   1   3 1204.64   71.49
   1   1   3 1139.92   68.24
  -1  -1  -3 1272.30   49.72
  -1  -1  -3 1206.41   57.20
   1   1   3 1272.12   77.52
   1   1   3 1254.97   56.97
  -2  -1  -3  654.02   44.21
  -2  -1  -3  634.50   34.97
  -2  -1  -3  551.55   19.91
  -2  -1  -3  622.93   34.62
  -2  -1  -3  639.53   50.66
   2   1   3  562.87   27.96
   2   1   3  583.14   21.70
   2   1   3  528.12   21.07
   2   1   3  585.61   17.16
   2   1   3  611.94   33.49
  -2  -1  -3  634.45   38.96
  -2  -1  -3  609.55   48.41
   2   1   3  669.24   23.20
   2   1   3  533.06   21.06
  -3  -1  -3  8.5815  0.7813
  -3  -1  -3  7.9376  0.8356
  -3  -1  -3  9.1976  1.0780
  -3  -1  -3  9.3607  1.4767
  -3  -1  -3  9.2562  0.6651
  -3  -1  -3  9.3449  0.6326
   3   1   3  7.4879  1.0199
   3   1   3  7.8645  0.7722
   3   1   3  7.1862  0.9191
   3   1   3  9.0132  1.0024
   3   1   3  9.7527  0.7667
  -3  -1  -3  9.6980  2.9156
  -3  -1  -3  6.4704  3.5934
   3   1   3  6.4608  3.0979
   3   1   3  4.0835  3.5149
  -4  -1  -3  452.49   18.88
  -4  -1  -3  456.56   33.93
  -4  -1  -3  463.12   13.47
  -4  -1  -3  453.39   25.22
  -4  -1  -3  470.24   14.28
  -4  -1  -3  466.39   40.24
   4   1   3  442.09   18.36
   4   1   3  443.42   15.69
   4   1   3  422.51   10.69
  -4  -1  -3  478.48   20.49
  -4  -1  -3  473.42   28.10
   4   1   3  477.70   19.72
   4   1   3  472.47   24.25
  -5  -1  -3  149.53   10.43
  -5  -1  -3  156.37    6.46
  -5  -1  -3  154.00    7.13
  -5  -1  -3  163.37   12.03
  -5  -1  -3  151.83   11.32
   5   1   3  154.62    6.12
   5   1   3  145.07    4.88
   5   1   3  157.24    5.17
  -5  -1  -3  154.22   15.17
  -5  -1  -3  141.31   10.65
   5   1   3  137.33   14.73
   5   1   3  122.58   11.68
  -6  -1  -3  34.703   2.815
  -6  -1  -3  33.289   2.421
  -6  -1  -3  32.015   2.504
   6   1   3  32.002   2.202
   6   1   3  31.248   1.990
  -6  -1  -3  27.253  10.937
   6   1   3  15.586  10.088
  -7  -1  -3  17.123   2.441
  -7  -1  -3  22.590   2.903
  -7  -1  -3  25.587   2.863
   7   1   3  23.294   2.052
  -8  -1  -3  3.8350  3.0165
  -8  -1  -3  2.6462  2.9441
  -8  -1  -3 -0.4683  2.0454
   8   1   3  2.2301  2.5726
   7  -2  -3  185.73    9.74
  -7   2   3  190.76   15.22
  -7   2   3  181.76   16.38
   7  -2  -3  179.20   20.95
   6  -2  -3  111.16    6.04
   6  -2  -3  110.04    6.67
  -6   2   3  110.46    7.70
  -6   2   3  112.12    9.18
   6  -2  -3  70.861  11.262
   5  -2  -3  410.53   18.32
   5  -2  -3  401.90   16.69
   5  -2  -3  418.17   12.06
  -5   2   3  424.41   20.12
  -5   2   3  427.48   22.25
   5  -2  -3  453.13   42.93
   5  -2  -3  422.59   23.29
   4  -2  -3  79.397   2.937
   4  -2  -3  79.817   2.908
   4  -2  -3  79.098   3.270
   4  -2  -3  73.586   5.705
  -4   2   3  80.467   2.672
  -4   2   3  78.862   5.415
   4  -2  -3  68.753   7.351
   4  -2  -3  77.903   6.687
  -4   2   3  83.507   7.583
   3  -2  -3  203.92   10.36
   3  -2  -3  202.75   11.52
   3  -2  -3  211.64    9.99
   3  -2  -3  195.17   11.45
   3  -2  -3  200.63    4.56
  -3   2   3  199.57    5.23
  -3   2   3  191.44   11.42
  -3   2   3  212.73   11.58
  -3   2   3  216.94    8.19
  -3   2   3  191.72   10.39
   3  -2  -3  207.76   13.99
   3  -2  -3  202.65    9.91
  -3   2   3  206.81   11.69
  -3   2   3  176.15   12.81
   2  -2  -3  12.775   0.690
   2  -2  -3  10.585   0.727
   2  -2  -3  10.788   0.746
   2  -2  -3  11.884   1.085
   2  -2  -3  11.707   1.038
   2  -2  -3  12.635   1.170
  -2   2   3  12.514   0.988
  -2   2   3  12.384   0.910
  -2   2   3  11.524   0.670
  -2   2   3  9.0309  0.9160
  -2   2   3  12.962   0.810
   2  -2  -3  13.470   3.277
  -2   2   3  13.797   3.195
  -2   2   3  11.099   3.207
   1  -2  -3  987.17   57.77
   1  -2  -3  980.60   29.14
   1  -2  -3  981.92   29.98
   1  -2  -3  982.06   43.98
  -1   2   3 1012.96   47.08
  -1   2   3 1011.91   31.54
  -1   2   3  992.18   36.86
  -1   2   3 1002.42   36.25
  -1   2   3  992.33   37.94
  -1   2   3 1024.98   29.27
   1  -2  -3  991.24   42.86
   1  -2  -3  993.38   61.60
  -1   2   3 1037.46   50.10
  -1   2   3 1076.09   55.82
   0  -2  -3  914.87   44.02
   0  -2  -3  817.31   37.87
   0  -2  -3  880.17   28.07
   0  -2  -3  856.76   26.41
   0   2   3  858.11   27.93
   0   2   3  857.93   70.14
   0   2   3  883.90   32.90
   0   2   3  816.23   36.34
   0  -2  -3  896.03   44.45
   0  -2  -3  897.53   57.63
   0   2   3  934.75   40.06
   0   2   3  920.49   55.01
  -1  -2  -3  10.538   0.732
  -1  -2  -3  11.738   0.743
  -1  -2  -3  11.597   0.864
  -1  -2  -3  10.719   0.492
  -1  -2  -3  12.136   0.704
  -1  -2  -3  10.691   0.551
   1   2   3  11.732   0.891
   1   2   3  9.8488  0.7500
   1   2   3  10.934   1.041
   1   2   3  9.7091  0.9208
   1   2   3  10.524   0.392
   1   2   3  11.234   0.573
  -1  -2  -3  11.586   1.768
  -1  -2  -3  13.769   1.834
   1   2   3  7.7445  1.5714
   1   2   3  10.612   2.029
  -2  -2  -3  336.76   21.44
  -2  -2  -3  367.66   26.80
  -2  -2  -3  334.85   16.74
  -2  -2  -3  360.91   25.26
  -2  -2  -3  356.62   25.63
   2   2   3  358.41   14.02
   2   2   3  348.57   32.40
   2   2   3  317.04   11.28
   2   2   3  333.88   17.69
   2   2   3  350.54   13.61
  -2  -2  -3  360.68   21.41
  -2  -2  -3  356.34   15.56
   2   2   3  368.15   16.42
   2   2   3  346.69   15.28
  -3  -2  -3  16.570   1.219
  -3  -2  -3  18.929   1.140
  -3  -2  -3  21.287   1.487
  -3  -2  -3  18.458   0.818
  -3  -2  -3  17.540   0.772
  -3  -2  -3  17.105   1.581
   3   2   3  17.082   1.511
   3   2   3  16.810   1.027
   3   2   3  18.445   1.043
   3   2   3  16.036   1.099
  -3  -2  -3  13.864   3.865
  -3  -2  -3  26.058   4.460
   3   2   3  18.617   4.965
   3   2   3  18.934   4.182
  -4  -2  -3  0.5038  0.6576
  -4  -2  -3  0.3081  0.3044
  -4  -2  -3  1.3071  1.1669
  -4  -2  -3  0.6500  0.3757
  -4  -2  -3  0.5741  1.0143
  -4  -2  -3 -0.7684  1.0289
   4   2   3  0.6818  0.5697
   4   2   3  0.9068  0.6595
   4   2   3 -0.3531  0.7525
  -4  -2  -3  -4.491   4.119
  -4  -2  -3  0.3131  3.0317
   4   2   3 -0.6441  3.3568
   4   2   3  -2.674   6.062
  -5  -2  -3  386.43   17.91
  -5  -2  -3  425.28   17.44
  -5  -2  -3  404.47   20.79
  -5  -2  -3  410.43   13.48
  -5  -2  -3  432.61   15.10
   5   2   3  400.77   15.20
   5   2   3  388.87   12.79
   5   2   3  415.45   13.14
  -5  -2  -3  426.01   33.05
  -5  -2  -3  414.27   18.62
   5   2   3  416.58   21.96
  -6  -2  -3  4.9659  1.3806
  -6  -2  -3  6.4377  1.6872
  -6  -2  -3  4.8712  1.4869
   6   2   3  0.6332  1.6647
   6   2   3  3.3780  1.4846
   6   2   3  4.3296  1.1043
  -6  -2  -3  3.6730  5.8977
   6   2   3  2.9785  5.9682
  -7  -2  -3  15.458   3.151
  -7  -2  -3  19.351   3.059
  -7  -2  -3  20.996   3.008
   7   2   3  18.333   2.094
  -8  -2  -3  85.363   7.653
  -8  -2  -3  82.161   7.287
  -8  -2  -3  80.040   6.226
   8   2   3  102.89    6.03
   7  -3  -3  6.3014  2.3393
  -7   3   3  6.2150  2.7902
  -7   3   3  2.7738  3.0843
   7  -3  -3  11.355  12.858
   6  -3  -3  18.553   2.350
  -6   3   3  19.053   2.265
  -6   3   3  19.381   3.185
   6  -3  -3  0.0000  8.3961
   5  -3  -3  0.6631  1.1393
   5  -3  -3  0.4417  0.7664
   5  -3  -3  1.5582  0.7298
  -5   3   3  1.1838  1.6217
  -5   3   3 -0.6793  1.1059
   5  -3  -3  2.0483  4.7481
   4  -3  -3  58.432   3.407
   4  -3  -3  59.930   4.185
   4  -3  -3  58.529   2.932
   4  -3  -3  62.934   3.670
   4  -3  -3  63.374   3.423
  -4   3   3  60.720   4.365
  -4   3   3  62.435   2.875
   4  -3  -3  64.166   8.116
   4  -3  -3  63.980   7.736
  -4   3   3  54.633   7.646
   3  -3  -3 1296.09   72.27
   3  -3  -3 1278.01   59.52
   3  -3  -3 1272.03   36.47
   3  -3  -3 1284.58   64.79
  -3   3   3 1252.29   33.99
  -3   3   3 1228.76   62.01
   3  -3  -3 1362.14   60.97
   3  -3  -3 1412.11   95.46
  -3   3   3 1411.23   90.22
   2  -3  -3 1412.07   31.09
   2  -3  -3 1383.53   30.40
   2  -3  -3 1416.00   48.16
   2  -3  -3 1442.45   64.37
   2  -3  -3 1419.91   66.29
   2  -3  -3 1339.67   84.60
  -2   3   3 1498.50   33.70
  -2   3   3 1460.96   72.79
  -2   3   3 1410.94   75.27
  -2   3   3 1386.83   37.69
  -2   3   3 1497.08   50.87
   2  -3  -3 1511.40   74.54
   2  -3  -3 1488.42   79.84
  -2   3   3 1562.45   85.45
  -2   3   3 1584.06   66.67
   1  -3  -3  50.546   1.723
   1  -3  -3  46.597   2.038
   1  -3  -3  52.719   1.746
   1  -3  -3  53.348   1.975
  -1   3   3  52.417   2.447
  -1   3   3  55.570   2.847
  -1   3   3  49.614   2.084
  -1   3   3  51.208   2.164
  -1   3   3  55.699   2.259
  -1   3   3  56.713   2.194
  -1   3   3  55.914   3.526
   1  -3  -3  52.159   3.132
   1  -3  -3  51.505   3.051
  -1   3   3  56.246   3.298
  -1   3   3  50.572   4.517
   0  -3  -3  4.5737  0.5774
   0  -3  -3  4.7894  0.7184
   0  -3  -3  3.7703  0.5182
   0  -3  -3  5.2661  0.7154
   0   3   3  4.6225  0.6564
   0   3   3  6.1183  0.6382
   0   3   3  4.5306  0.6246
   0   3   3  5.8848  0.7395
   0   3   3  5.1363  0.5655
   0   3   3  4.3780  0.7537
   0  -3  -3  5.4443  0.9389
   0  -3  -3  4.9928  0.9145
   0   3   3  5.1508  1.1534
   0   3   3  6.2994  1.0304
  -1  -3  -3  132.32    4.47
  -1  -3  -3  137.66    6.17
  -1  -3  -3  130.15    7.31
  -1  -3  -3  137.09    5.38
  -1  -3  -3  130.53    9.41
  -1  -3  -3  139.35    6.20
   1   3   3  129.74    6.11
   1   3   3  136.60    4.49
   1   3   3  126.67    4.31
   1   3   3  137.11    4.77
   1   3   3  137.83    4.85
   1   3   3  141.34    4.70
  -1  -3  -3  141.66    7.93
  -1  -3  -3  134.46    7.81
   1   3   3  121.52    5.29
   1   3   3  120.85   10.30
  -2  -3  -3  82.611   2.421
  -2  -3  -3  84.622   2.955
  -2  -3  -3  81.182   3.423
  -2  -3  -3  81.648   3.741
   2   3   3  82.150   6.777
   2   3   3  80.278   2.741
   2   3   3  82.768   2.970
   2   3   3  82.281   4.418
   2   3   3  88.466   4.471
  -2  -3  -3  86.281   6.022
  -2  -3  -3  84.893   5.892
   2   3   3  82.221   5.143
   2   3   3  75.851   6.837
  -3  -3  -3  315.75   15.73
  -3  -3  -3  314.46   12.63
  -3  -3  -3  287.03   18.38
  -3  -3  -3  323.57   26.01
   3   3   3  299.94    9.18
   3   3   3  328.14   11.31
   3   3   3  307.85   17.10
   3   3   3  289.77   21.09
  -3  -3  -3  300.16   21.58
  -3  -3  -3  312.72   13.27
   3   3   3  314.78   17.87
   3   3   3  329.13   21.65
  -4  -3  -3  567.20   37.83
  -4  -3  -3  625.01   40.63
  -4  -3  -3  575.82   30.96
  -4  -3  -3  600.09   50.68
   4   3   3  513.74   24.04
   4   3   3  562.70   16.97
   4   3   3  563.62   17.96
  -4  -3  -3  637.73   29.84
  -4  -3  -3  640.51   37.40
   4   3   3  631.19   29.35
  -5  -3  -3  357.51   14.96
  -5  -3  -3  384.73   28.47
  -5  -3  -3  390.06   23.78
  -5  -3  -3  399.26   23.55
   5   3   3  372.59   12.60
   5   3   3  370.62   14.37
  -5  -3  -3  312.06   14.42
   5   3   3  338.12   22.04
  -6  -3  -3  8.1335  1.6896
  -6  -3  -3  6.9223  1.7972
  -6  -3  -3  8.1128  1.7111
   6   3   3  8.1603  1.4820
   6   3   3  7.3504  1.4024
   6   3   3  5.8487  1.7296
  -6  -3  -3  8.1281  8.6131
  -7  -3  -3  31.563   2.496
  -7  -3  -3  41.129   3.771
  -7  -3  -3  33.436   4.121
   7   3   3  40.018   3.043
   7   3   3  33.298   2.539
   7   3   3  43.603   4.018
  -7  -3  -3  16.533  14.677
   8   3   3  16.327   2.932
   7  -4  -3  12.197   2.549
  -7   4   3  14.615   3.278
  -7   4   3  6.2489  3.1866
   7  -4  -3  22.054  14.588
   6  -4  -3  27.683   2.832
  -6   4   3  23.591   3.247
  -6   4   3  28.269   3.214
   6  -4  -3  20.693   9.745
   5  -4  -3  15.696   1.478
   5  -4  -3  13.382   1.727
   5  -4  -3  14.183   1.720
  -5   4   3  11.835   2.051
  -5   4   3  16.027   2.394
   5  -4  -3  -1.061   6.243
   4  -4  -3  180.85    8.66
   4  -4  -3  181.74    5.45
   4  -4  -3  183.86    9.24
  -4   4   3  177.42    6.02
   4  -4  -3  186.40   13.07
   4  -4  -3  234.24   14.82
   3  -4  -3  419.54   21.34
   3  -4  -3  375.30   14.08
   3  -4  -3  407.47   16.33
   3  -4  -3  420.52   20.76
  -3   4   3  404.25   26.55
  -3   4   3  407.40   12.28
  -3   4   3  424.97   12.05
   3  -4  -3  459.08   18.98
   3  -4  -3  422.89   21.59
  -3   4   3  473.38   19.20
   2  -4  -3  691.42   29.90
   2  -4  -3  692.57   28.18
   2  -4  -3  667.16   15.12
   2  -4  -3  675.38   25.15
  -2   4   3  678.62   20.52
  -2   4   3  693.59   30.10
  -2   4   3  695.85   25.29
  -2   4   3  756.38   24.40
  -2   4   3  733.40   25.38
   2  -4  -3  763.87   31.60
   2  -4  -3  724.78   33.38
  -2   4   3  784.95   36.38
   1  -4  -3  180.64    4.19
   1  -4  -3  182.84    7.49
   1  -4  -3  172.05    4.67
  -1   4   3  189.43    9.51
  -1   4   3  170.44    4.89
  -1   4   3  183.76    5.77
  -1   4   3  185.32    5.90
  -1   4   3  186.96    5.46
  -1   4   3  180.86    8.51
  -1   4   3  170.51   11.32
   1  -4  -3  181.46    9.06
   1  -4  -3  173.29   12.64
  -1   4   3  205.01   14.72
  -1   4   3  191.83    9.71
   0  -4  -3 1195.25   39.50
   0  -4  -3 1190.52   75.70
   0  -4  -3 1153.02   29.74
   0   4   3 1212.20   32.17
   0   4   3 1234.95   41.54
   0   4   3 1236.71   38.45
   0   4   3 1147.55   50.20
   0   4   3 1242.35   67.37
   0   4   3 1189.55   39.93
   0   4   3 1250.99   71.35
   0   4   3 1228.13   71.10
   0  -4  -3 1183.79   53.18
   0  -4  -3 1225.56   65.35
   0   4   3 1337.90   50.81
   0   4   3 1186.67   69.82
  -1  -4  -3  42.253   1.760
  -1  -4  -3  39.607   2.478
  -1  -4  -3  41.722   1.722
  -1  -4  -3  37.499   1.291
   1   4   3  39.264   3.307
   1   4   3  40.772   1.426
   1   4   3  37.876   1.740
   1   4   3  38.149   2.311
   1   4   3  38.491   2.271
   1   4   3  41.787   1.874
   1   4   3  41.226   1.766
  -1  -4  -3  39.659   2.606
  -1  -4  -3  36.255   2.608
   1   4   3  35.011   2.759
   1   4   3  38.722   3.256
  -2  -4  -3  64.515   3.270
  -2  -4  -3  69.997   3.302
  -2  -4  -3  62.897   3.080
   2   4   3  68.867   4.162
   2   4   3  71.857   2.784
   2   4   3  72.376   3.882
   2   4   3  67.450   3.407
   2   4   3  70.180   2.780
   2   4   3  70.481   4.217
  -2  -4  -3  60.939   3.473
  -2  -4  -3  66.680   6.213
   2   4   3  56.341   7.449
   2   4   3  67.005   4.982
  -3  -4  -3  195.21    8.56
  -3  -4  -3  193.08    8.82
  -3  -4  -3  173.63    9.38
   3   4   3  196.89    4.47
   3   4   3  174.40    9.96
   3   4   3  181.88    7.25
  -3  -4  -3  205.96   14.77
  -3  -4  -3  193.73   13.57
   3   4   3  164.02   11.95
  -4  -4  -3  19.760   1.699
  -4  -4  -3  19.057   1.826
  -4  -4  -3  19.507   1.754
   4   4   3  17.220   1.262
   4   4   3  15.576   1.568
   4   4   3  13.916   1.395
  -4  -4  -3  9.4087  4.0463
  -4  -4  -3  17.269   5.431
   4   4   3  11.066   4.272
  -5  -4  -3  72.300   3.858
  -5  -4  -3  70.728   4.765
  -5  -4  -3  77.877   4.154
   5   4   3  71.908   3.364
   5   4   3  76.889   3.517
  -5  -4  -3  72.098   7.755
  -5  -4  -3  82.542  10.993
  -6  -4  -3  393.30   11.16
  -6  -4  -3  357.02   17.00
  -6  -4  -3  389.08   16.79
   6   4   3  417.76   18.44
   6   4   3  395.83   26.06
  -6  -4  -3  375.35   31.93
  -7  -4  -3  42.448   4.055
  -7  -4  -3  42.117   3.326
  -7  -4  -3  43.442   3.591
   7   4   3  49.678   4.536
   7   4   3  49.400   3.856
   7   4   3  43.908   3.020
  -7  -4  -3  28.108  15.906
   6  -5  -3  23.390   2.862
  -6   5   3  22.006   3.156
  -6   5   3  17.684   2.689
   6  -5  -3  31.355  11.665
   5  -5  -3  2.2595  1.4608
  -5   5   3  3.2494  1.7076
  -5   5   3  1.2649  2.0509
   5  -5  -3 -0.3085  6.4150
   4  -5  -3  143.22    9.26
   4  -5  -3  134.77    4.54
   4  -5  -3  138.20    6.51
  -4   5   3  132.72    4.60
   4  -5  -3  157.34   13.55
   4  -5  -3  125.29   11.35
   3  -5  -3  596.76   28.81
   3  -5  -3  583.72   12.48
   3  -5  -3  588.62   19.77
  -3   5   3  593.35   26.46
  -3   5   3  588.30   45.32
  -3   5   3  562.07   17.48
   3  -5  -3  622.04   35.90
   3  -5  -3  588.52   38.56
  -3   5   3  622.09   24.09
   2  -5  -3  231.10   11.27
   2  -5  -3  217.97    9.95
  -2   5   3  213.57    8.63
  -2   5   3  225.33   13.11
  -2   5   3  218.66    5.90
  -2   5   3  231.33    6.13
   2  -5  -3  233.04   14.02
   2  -5  -3  226.85   14.15
  -2   5   3  238.03   13.28
   1  -5  -3  91.777   4.937
   1  -5  -3  91.262   5.443
  -1   5   3  91.532   2.992
  -1   5   3  88.253   2.984
  -1   5   3  89.212   3.560
  -1   5   3  92.986   3.225
  -1   5   3  92.579   3.498
   1  -5  -3  94.571   6.377
   1  -5  -3  90.381   4.763
  -1   5   3  89.488   5.520
  -1   5   3  98.079   5.122
   0  -5  -3  226.80    6.13
   0  -5  -3  216.59    5.69
   0  -5  -3  233.09    7.68
   0   5   3  234.39    9.94
   0   5   3  210.36    5.97
   0   5   3  238.36   10.61
   0   5   3  233.83    6.25
   0   5   3  211.05   13.45
   0   5   3  224.13    8.93
   0   5   3  235.06   12.93
   0   5   3  227.13    8.14
   0   5   3  225.84   11.13
  -1  -5  -3  555.65   21.69
  -1  -5  -3  546.60   24.86
  -1  -5  -3  524.94   15.71
   1   5   3  547.69   27.15
   1   5   3  544.88   31.54
   1   5   3  574.44   21.55
   1   5   3  584.23   20.03
   1   5   3  526.33   18.44
   1   5   3  540.65   14.73
   1   5   3  555.39   27.51
  -1  -5  -3  598.95   34.96
   1   5   3  567.42   51.91
   1   5   3  602.32   45.14
  -2  -5  -3  418.91   23.82
  -2  -5  -3  392.35   19.06
  -2  -5  -3  401.14   24.40
   2   5   3  418.46   23.79
   2   5   3  402.06   15.03
   2   5   3  402.63    8.16
   2   5   3  406.75   18.62
   2   5   3  404.74   12.52
  -2  -5  -3  429.82   34.87
  -2  -5  -3  420.53   20.93
   2   5   3  419.29   26.47
  -3  -5  -3  29.103   1.934
  -3  -5  -3  25.434   2.088
  -3  -5  -3  33.533   1.841
   3   5   3  26.907   1.880
   3   5   3  29.269   1.402
   3   5   3  28.672   2.515
  -3  -5  -3  23.132   4.583
  -3  -5  -3  35.719   4.711
   3   5   3  12.404   4.830
  -4  -5  -3  298.27   14.24
  -4  -5  -3  289.73   14.45
   4   5   3  230.34   21.04
   4   5   3  266.94    8.78
   4   5   3  290.23    9.44
  -4  -5  -3  287.15   17.93
   4   5   3  298.22   22.59
  -5  -5  -3  2.7559  1.7278
  -5  -5  -3  3.7909  1.1805
  -5  -5  -3  3.4597  1.5721
   5   5   3  1.2968  1.5254
   5   5   3  3.0119  0.7754
  -5  -5  -3  -3.131   7.288
  -6  -5  -3 -0.3407  2.0258
  -6  -5  -3  0.8345  1.7177
  -6  -5  -3  1.1646  2.0196
   6   5   3  1.2609  1.2738
   6   5   3  1.7736  1.1185
  -6  -5  -3  -2.341   7.025
  -7  -5  -3  59.444   4.526
  -7  -5  -3  49.830   4.353
   7   5   3  53.953   4.811
   7   5   3  49.364   3.373
  -7  -5  -3  45.287  11.490
   6  -6  -3  20.600   2.989
  -6   6   3  22.597   3.785
  -6   6   3  15.877   2.766
   6  -6  -3  -1.689  10.366
   5  -6  -3  87.292   5.479
  -5   6   3  97.708   5.450
  -5   6   3  90.549   5.191
   5  -6  -3  75.640  10.260
   4  -6  -3  101.17   10.68
   4  -6  -3  91.247   4.710
   4  -6  -3  97.160   5.426
  -4   6   3  104.02    5.07
   4  -6  -3  107.24    9.47
   3  -6  -3  52.199   2.996
   3  -6  -3  56.070   1.923
   3  -6  -3  54.969   3.030
  -3   6   3  51.920   3.104
  -3   6   3  48.733   4.556
   3  -6  -3  53.908   6.564
   3  -6  -3  41.509   4.973
   2  -6  -3 1083.77   46.24
   2  -6  -3 1062.24   22.82
  -2   6   3 1045.15   53.13
  -2   6   3 1043.88   26.65
   2  -6  -3 1229.24   74.52
   2  -6  -3 1180.50   64.91
   1  -6  -3  268.45    5.47
   1  -6  -3  260.82    8.03
  -1   6   3  250.62   10.46
  -1   6   3  244.90    5.99
  -1   6   3  262.48   13.38
  -1   6   3  260.40    8.49
   0  -6  -3  193.40    6.63
   0  -6  -3  199.95    6.52
   0  -6  -3  197.17    6.08
   0   6   3  200.93   11.54
   0   6   3  187.66    8.37
   0   6   3  193.29    5.14
   0   6   3  196.95   10.00
   0   6   3  199.62    6.63
   0   6   3  190.84    5.55
   0   6   3  195.56   13.84
  -1  -6  -3  8.2742  1.0603
  -1  -6  -3  6.5341  0.8897
   1   6   3  5.6279  0.7610
   1   6   3  5.2283  0.9551
   1   6   3  6.2634  0.9211
   1   6   3  5.1561  1.2761
  -1  -6  -3  5.0876  0.7127
  -1  -6  -3  6.3841  0.7123
   1   6   3  4.1617  0.9627
  -2  -6  -3  78.710   3.325
  -2  -6  -3  82.756   3.725
  -2  -6  -3  75.795   3.706
   2   6   3  81.696   3.641
   2   6   3  78.087   4.436
   2   6   3  80.245   5.073
   2   6   3  74.141   3.122
   2   6   3  82.514   2.677
  -2  -6  -3  86.290   5.892
  -2  -6  -3  79.457   7.835
   2   6   3  72.531   6.943
  -3  -6  -3  25.146   2.374
  -3  -6  -3  28.071   1.877
   3   6   3  28.678   1.849
   3   6   3  31.645   2.031
   3   6   3  28.217   1.004
   3   6   3  21.336   2.538
  -3  -6  -3  30.543   5.458
  -3  -6  -3  30.670   4.731
   3   6   3  20.584   5.433
  -4  -6  -3  14.713   1.953
  -4  -6  -3  11.829   1.584
   4   6   3  13.660   1.788
   4   6   3  14.421   1.145
  -4  -6  -3  19.458   6.560
  -4  -6  -3  4.9980  5.7793
  -5  -6  -3  23.060   2.393
  -5  -6  -3  24.460   2.160
   5   6   3  26.726   1.986
   5   6   3  26.532   2.590
  -5  -6  -3  16.051   8.223
  -6  -6  -3  1.2551  2.2717
  -6  -6  -3  -1.242   1.366
   6   6   3 -0.4929  1.9014
   6   6   3  2.0920  1.4821
  -6  -6  -3   5.566  11.659
  -7  -6  -3  38.010   3.875
  -7  -6  -3  50.456   4.708
   7   6   3  47.601   4.568
   7   6   3  42.763   3.602
  -7  -6  -3  36.270  16.416
   5  -7  -3  17.478   2.971
  -5   7   3  22.261   3.417
  -5   7   3  19.025   3.309
   5  -7  -3  19.873   5.746
   4  -7  -3  2.3468  2.1928
  -4   7   3  2.0351  2.0097
   4  -7  -3  4.9770  4.5003
   3  -7  -3  12.144   1.480
   3  -7  -3  15.475   1.774
  -3   7   3  19.319   2.338
   3  -7  -3  19.400   4.440
   3  -7  -3  13.758   2.802
   2  -7  -3  344.91    8.39
   2  -7  -3  360.32   16.54
  -2   7   3  345.87   13.46
  -2   7   3  342.55   12.45
   1  -7  -3  128.95    7.34
   1  -7  -3  126.75    6.05
  -1   7   3  123.79    5.06
  -1   7   3  117.49    4.94
  -1   7   3  112.44    4.02
   0  -7  -3  118.47    5.60
   0  -7  -3  122.90    4.04
   0   7   3  111.31    5.34
   0   7   3  121.23    3.95
   0   7   3  117.05    3.36
  -1  -7  -3  0.6582  0.8167
   1   7   3 -0.1632  0.8594
   1   7   3  1.8142  0.7200
   1   7   3  0.9550  1.0398
   1   7   3  -1.071   1.310
   1   7   3  1.4572  1.1235
  -2  -7  -3  125.77    5.50
  -2  -7  -3  121.83    6.72
   2   7   3  122.31    4.34
   2   7   3  123.85    5.30
   2   7   3  119.66    6.54
  -2  -7  -3  132.92   11.02
  -2  -7  -3  129.31    9.91
  -3  -7  -3  2.9449  0.8456
  -3  -7  -3  4.3784  1.3655
   3   7   3  3.6540  0.9519
   3   7   3  3.4214  1.8330
  -3  -7  -3  7.1934  4.1466
  -3  -7  -3  5.0449  3.2955
  -4  -7  -3  34.289   2.300
  -4  -7  -3  35.040   2.711
   4   7   3  37.299   3.264
   4   7   3  32.768   2.370
  -4  -7  -3  26.546   6.609
  -5  -7  -3  218.68    9.88
  -5  -7  -3  202.49    9.93
   5   7   3  200.91   11.90
   5   7   3  215.26   10.68
  -5  -7  -3  235.58   21.91
  -6  -7  -3  72.602   5.807
  -6  -7  -3  79.450   5.539
   6   7   3  97.634   6.133
   6   7   3  86.269   6.487
  -6  -7  -3  109.69   16.24
   4  -8  -3  40.412   3.720
  -4   8   3  42.969   4.739
   4  -8  -3  40.501   5.903
   3  -8  -3  121.48    5.44
   3  -8  -3  109.11    5.61
  -3   8   3  117.56    6.15
   3  -8  -3  130.40    9.37
   3  -8  -3  132.08   10.45
   2  -8  -3  51.200   3.982
   2  -8  -3  38.911   2.626
  -2   8   3  40.628   2.799
  -2   8   3  39.850   3.622
   1  -8  -3  547.59   27.36
   1  -8  -3  528.24   14.57
  -1   8   3  511.26   31.53
  -1   8   3  512.74   21.91
  -1   8   3  508.56   20.22
   0  -8  -3  123.05    6.06
   0   8   3  116.57    4.48
   0   8   3  117.96    4.32
   0   8   3  115.82    5.05
  -1  -8  -3  0.5789  0.8198
   1   8   3  1.5682  1.2966
   1   8   3  2.2292  0.9046
   1   8   3  1.5815  1.0081
  -2  -8  -3  144.10    7.40
   2   8   3  149.08   12.52
   2   8   3  135.07    6.94
   2   8   3  128.50   10.35
  -2  -8  -3  146.08   12.03
  -2  -8  -3  148.70   11.81
  -3  -8  -3  157.92    8.95
  -3  -8  -3  162.95    8.99
   3   8   3  181.45    7.68
   3   8   3  170.18    7.31
  -3  -8  -3  185.65   15.42
  -3  -8  -3  206.13   16.07
  -4  -8  -3  2.9715  1.9827
  -4  -8  -3  2.2623  1.6340
   4   8   3  1.1221  1.2785
   4   8   3  1.2867  1.5987
  -4  -8  -3  3.3891  5.5921
  -5  -8  -3  43.469   4.153
  -5  -8  -3  47.587   4.961
   5   8   3  55.002   5.237
   5   8   3  48.727   4.220
  -5  -8  -3  42.225   9.725
  -6  -8  -3  3.6274  2.4102
  -6  -8  -3  0.6870  2.5051
   6   8   3  1.7556  2.0711
   6   8   3  1.4738  1.9423
  -6  -8  -3  -9.887  11.787
   3  -9  -3  2.3270  1.7415
  -3   9   3  0.9268  1.3560
  -3   9   3  4.4123  2.2843
   2  -9  -3  2.0871  1.5297
   2  -9  -3  4.1468  2.0424
  -2   9   3  0.4568  1.3327
  -2   9   3  1.4279  2.0172
   1  -9  -3  405.12   23.70
  -1   9   3  397.93   22.77
  -1   9   3  386.01   19.95
  -1   9   3  376.27   16.84
   0   9   3  6.5933  1.8570
   0   9   3  8.5772  1.7605
   0   9   3  6.9955  1.6618
  -1  -9  -3  0.9307  1.2391
   1   9   3 -0.0757  0.8710
   1   9   3  1.2732  1.8719
   1   9   3  0.6935  1.1637
  -2  -9  -3  37.734   2.498
   2   9   3  37.561   3.440
   2   9   3  34.262   3.479
   2   9   3  34.367   2.650
  -3  -9  -3  122.94    8.30
  -3  -9  -3  119.46    8.92
   3   9   3  129.61    7.19
   3   9   3  118.56    6.86
  -3  -9  -3  134.57   12.68
  -3  -9  -3  157.48   12.98
  -4  -9  -3  15.851   2.425
  -4  -9  -3  21.489   3.603
   4   9   3  13.351   2.134
   4   9   3  18.153   2.481
  -4  -9  -3  13.143   6.083
  -5  -9  -3  101.46    7.61
  -5  -9  -3  101.95    7.59
   5   9   3  121.43    8.76
  -5  -9  -3  103.99   13.51
  -2  10   3  150.71   10.74
  -2  10   3  145.61    9.58
  -1  10   3  146.87    8.46
  -1  10   3  147.68   10.27
   0  10   3  -1.258   1.812
   0  10   3  1.2752  1.2729
   0  10   3  1.3274  1.1607
  -1 -10  -3  3.0010  1.8600
   1  10   3  2.5613  1.8725
   1  10   3  7.6285  2.4682
  -2 -10  -3  9.2900  2.5015
   2  10   3  5.5837  1.7795
   2  10   3  8.4679  3.3226
  -3 -10  -3  50.822   4.624
   3  10   3  52.525   4.302
   3  10   3  60.434   5.241
  -4 -10  -3  3.4246  2.9360
  -4 -10  -3  7.1165  2.9150
   4  10   3  3.2207  2.5416
  -4 -10  -3  4.9289  5.0523
  -2 -10   4  18.648   4.655
   1  10  -4  6.4561  2.9486
  -1 -10   4  16.421   4.193
   0  10  -4  10.123   2.759
   0 -10   4  11.267   2.880
   4   9  -4  27.818   3.541
  -4  -9   4  26.546   3.154
  -4  -9   4  28.581   3.377
  -4  -9   4  22.552  12.145
   3   9  -4  2.0150  2.3283
  -3  -9   4  0.3253  1.3243
  -3  -9   4 -0.5643  1.8287
  -3  -9   4  -5.179   7.857
   2   9  -4  3.2176  1.6301
  -2  -9   4  6.9186  2.4033
  -2  -9   4  7.9226  5.2554
   1   9  -4  192.91   13.05
  -1  -9   4  198.47   14.73
  -1  -9   4  211.77   15.60
  -1  -9   4  187.21   14.89
   0   9  -4  52.214   4.311
   0  -9   4  54.845   4.276
  -1   9  -4  12.546   2.179
   1  -9   4  18.706   3.068
  -2   9  -4  17.554   2.289
   2  -9   4  18.675   3.045
   5   8  -4  41.253   3.534
  -5  -8   4  35.720   3.907
  -5  -8   4  42.729   3.671
  -5  -8   4  44.441  13.119
   4   8  -4  150.41    6.72
  -4  -8   4  140.03    8.71
  -4  -8   4  145.05    6.49
  -4  -8   4  162.73   19.69
   3   8  -4  5.6085  1.9122
  -3  -8   4  4.5748  1.5452
  -3  -8   4  6.4470  1.9656
  -3  -8   4  3.4886  7.2875
   2   8  -4  18.254   2.471
  -2  -8   4  15.352   1.758
  -2  -8   4  15.687   1.912
  -2  -8   4  12.628   2.333
  -2  -8   4  21.058   5.542
  -2  -8   4  22.965   6.739
   1   8  -4  114.65    5.34
  -1  -8   4  108.91    9.38
  -1  -8   4  101.99    6.43
  -1  -8   4  126.62    9.69
  -1  -8   4  114.84    9.70
   0   8  -4  25.326   2.475
   0  -8   4  25.263   2.910
   0  -8   4  18.313   3.686
   0  -8   4  19.769   4.899
  -1   8  -4  34.409   2.980
  -1   8  -4  35.430   3.016
   1  -8   4  38.194   3.194
   1  -8   4  36.573   5.319
   1  -8   4  35.348   4.988
  -2   8  -4  342.82   16.67
  -2   8  -4  325.85   17.60
   2  -8   4  314.61   16.64
   2  -8   4  336.55   17.85
   2  -8   4  360.71   29.42
   2  -8   4  360.80   36.93
  -3   8  -4  16.615   2.461
  -3   8  -4  13.144   2.209
   3  -8   4  16.017   2.821
   3  -8   4  16.129   2.368
   3  -8   4  9.9266  5.1421
  -4   8  -4  74.189   6.335
  -4   8  -4  80.795   6.114
   4  -8   4  81.220   8.072
   4  -8   4  84.762   6.311
   4  -8   4  83.073  11.033
   6   7  -4  1.0533  2.5178
  -6  -7   4  2.8596  2.6276
  -6  -7   4  3.5615  3.0319
  -6  -7   4   8.409  16.292
   5   7  -4  3.7892  1.4998
  -5  -7   4  0.4189  2.1569
  -5  -7   4  3.7519  1.7343
  -5  -7   4   1.126  10.832
   4   7  -4  101.36    4.76
  -4  -7   4  92.150   5.906
  -4  -7   4  88.905   5.292
  -4  -7   4  84.315  12.940
   3   7  -4  25.297   2.054
   3   7  -4  24.192   2.046
  -3  -7   4  30.424   1.992
  -3  -7   4  31.475   2.353
  -3  -7   4  23.527   8.868
   2   7  -4  203.15   10.52
  -2  -7   4  210.72    8.41
  -2  -7   4  198.62   10.45
  -2  -7   4  202.17   13.16
  -2  -7   4  225.06   16.33
  -2  -7   4  207.40   19.62
   1   7  -4  181.19    8.00
  -1  -7   4  182.14   14.32
  -1  -7   4  185.46    7.10
  -1  -7   4  170.71   13.27
  -1  -7   4  183.65   18.40
  -1  -7   4  196.22   11.13
   0   7  -4  4.2678  1.1562
   0   7  -4  5.9142  1.9871
   0  -7   4  4.7320  0.8522
   0  -7   4  4.3054  1.7126
   0  -7   4  11.912   3.721
   0  -7   4  9.1329  4.4360
  -1   7  -4  3.2608  1.0879
  -1   7  -4  0.6609  1.2369
   1  -7   4  3.7587  1.2290
   1  -7   4  5.2386  1.3661
   1  -7   4  6.6778  4.0174
   1  -7   4  2.5233  2.8097
  -2   7  -4  47.036   2.918
  -2   7  -4  40.157   2.935
   2  -7   4  49.549   3.101
   2  -7   4  45.090   3.024
   2  -7   4  38.441   6.635
   2  -7   4  48.969   6.998
  -3   7  -4  52.222   3.385
  -3   7  -4  60.380   4.037
   3  -7   4  54.123   4.099
   3  -7   4  59.674   3.758
   3  -7   4  54.051   7.191
  -4   7  -4  14.370   2.564
   4  -7   4  13.061   2.085
   4  -7   4  18.778   2.731
   4  -7   4  14.172   7.310
  -5   7  -4  4.1086  3.1813
   5  -7   4  2.6331  1.8558
   5  -7   4  4.8637  1.9216
   5  -7   4  5.6030  9.4618
   6   6  -4  222.62   13.15
  -6  -6   4  190.68   15.33
  -6  -6   4  197.94   19.48
  -6  -6   4  239.20   31.22
   5   6  -4  1.9692  1.7131
  -5  -6   4  2.8773  1.5300
  -5  -6   4  3.2318  1.6325
  -5  -6   4  10.665  11.050
   4   6  -4  42.736   2.817
  -4  -6   4  37.526   2.391
  -4  -6   4  36.001   1.958
  -4  -6   4  29.769   7.862
   3   6  -4 1018.37   62.14
   3   6  -4 1010.65   60.43
  -3  -6   4 1047.20   40.86
  -3  -6   4 1189.86   64.89
  -3  -6   4 1147.53   84.21
   2   6  -4  31.449   1.703
  -2  -6   4  33.844   1.893
  -2  -6   4  31.360   2.379
  -2  -6   4  31.322   3.203
  -2  -6   4  34.420   6.493
  -2  -6   4  31.813   5.296
   1   6  -4  163.16   11.64
   1   6  -4  180.25    7.71
   1   6  -4  183.28   16.22
  -1  -6   4  180.42   13.33
  -1  -6   4  189.38   13.45
  -1  -6   4  168.62    8.48
   1   6  -4  172.75   14.51
  -1  -6   4  194.36   11.79
  -1  -6   4  193.98   14.15
   0   6  -4  1.0539  0.7718
   0   6  -4  0.9452  0.7133
   0   6  -4 -0.8191  1.0553
   0  -6   4  2.4236  1.3669
   0  -6   4  2.5615  0.5854
   0  -6   4  2.0635  1.1423
   0   6  -4  0.1193  2.8726
   0  -6   4  -2.841   2.638
   0  -6   4  -1.910   2.548
  -1   6  -4  2.4157  1.0585
  -1   6  -4  1.7285  1.0240
   1  -6   4  2.9655  1.6344
   1  -6   4  1.4160  1.3500
  -1   6  -4  0.6186  3.9432
   1  -6   4  3.3482  3.0033
   1  -6   4  4.4676  3.0689
  -2   6  -4  580.31   22.09
  -2   6  -4  566.49   15.20
   2  -6   4  556.41   15.69
   2  -6   4  551.32   16.86
   2  -6   4  582.80   56.43
   2  -6   4  641.21   33.95
  -3   6  -4  67.155   3.597
   3  -6   4  67.978   3.645
   3  -6   4  73.005   4.280
   3  -6   4  57.551   7.962
   3  -6   4  75.676   9.048
  -4   6  -4  103.64    6.29
   4  -6   4  104.52    5.14
   4  -6   4  101.08    7.21
   4  -6   4  125.45   11.93
  -5   6  -4  2.2715  3.1546
   5  -6   4  1.7594  1.9553
   5  -6   4  1.9935  1.9426
   5  -6   4 -0.1899  8.9968
   7   5  -4  1.8900  1.9562
  -7  -5   4  -4.196   3.068
  -7  -5   4  0.4042  1.9809
  -7  -5   4   9.495  20.382
   6   5  -4  9.1342  2.2988
  -6  -5   4  8.3914  2.0353
  -6  -5   4  3.6010  2.5331
  -6  -5   4  -19.79   13.90
   5   5  -4  110.27    4.77
  -5  -5   4  107.22    8.19
  -5  -5   4  106.11    5.28
  -5  -5   4  107.02   14.08
   4   5  -4  306.90    8.59
   4   5  -4  307.85   16.84
  -4  -5   4  317.23   21.98
  -4  -5   4  334.46   14.90
  -4  -5   4  368.39   25.70
   3   5  -4  107.34    5.24
   3   5  -4  109.64    6.23
  -3  -5   4  115.64    4.60
  -3  -5   4  118.30    6.58
  -3  -5   4  111.38   10.64
  -3  -5   4  122.81   12.20
   2   5  -4  133.10    4.46
   2   5  -4  126.52    7.84
  -2  -5   4  130.77    6.61
  -2  -5   4  127.90    5.21
  -2  -5   4  124.11    5.63
   2   5  -4  144.16   11.22
  -2  -5   4  126.20    9.28
  -2  -5   4  125.04   10.08
   1   5  -4  0.8354  0.8604
   1   5  -4  0.2037  0.3485
   1   5  -4  1.6316  0.7536
  -1  -5   4  0.7816  0.5387
  -1  -5   4  0.6498  0.5527
  -1  -5   4  0.0206  1.3247
   1   5  -4  0.7014  1.9398
  -1  -5   4  3.2477  3.2221
  -1  -5   4  2.7802  3.0357
   0   5  -4  28.040   2.237
   0   5  -4  29.695   1.754
   0   5  -4  26.495   1.898
   0  -5   4  25.751   1.766
   0  -5   4  28.597   1.619
   0  -5   4  28.307   1.899
   0  -5   4  29.518   1.988
   0   5  -4  21.121   4.406
   0  -5   4  33.223   3.974
   0  -5   4  26.483   3.680
  -1   5  -4  52.133   1.966
  -1   5  -4  49.796   3.005
  -1   5  -4  51.179   2.785
  -1   5  -4  52.876   2.443
  -1   5  -4  54.286   2.647
   1  -5   4  53.919   2.814
   1  -5   4  46.476   3.029
   1  -5   4  53.983   2.333
  -1   5  -4  36.724   5.053
   1  -5   4  55.641   4.836
   1  -5   4  49.968   4.851
  -2   5  -4  145.20   11.88
  -2   5  -4  155.38    7.61
  -2   5  -4  160.09    7.65
  -2   5  -4  156.75    5.49
  -2   5  -4  160.59   10.38
   2  -5   4  143.97    4.89
   2  -5   4  152.17    4.97
  -2   5  -4  142.02   11.87
   2  -5   4  162.27   13.59
   2  -5   4  177.87    9.70
  -3   5  -4  797.18   43.92
  -3   5  -4  787.52   27.52
   3  -5   4  783.17   20.32
   3  -5   4  783.59   21.74
   3  -5   4  913.92   49.49
   3  -5   4  928.33   42.85
  -4   5  -4  163.19    7.50
   4  -5   4  157.02    6.78
   4  -5   4  154.92    7.69
   4  -5   4  158.09   13.69
  -5   5  -4  52.113   4.635
   5  -5   4  58.685   4.010
   5  -5   4  58.545   4.021
   5  -5   4  56.813   8.753
  -6   5  -4  13.511   4.127
   6  -5   4  10.401   2.511
   6  -5   4  14.477   2.931
   6  -5   4  8.6451  8.2529
   7   4  -4  99.271   7.282
  -7  -4   4  82.536   5.815
  -7  -4   4  79.633   7.315
  -7  -4   4  78.090  14.749
   6   4  -4  2.3926  1.3369
  -6  -4   4  2.1637  1.5685
  -6  -4   4  -1.437   1.670
  -6  -4   4  11.534  12.578
   5   4  -4  118.34    7.06
   5   4  -4  132.12    5.88
   5   4  -4  117.70    8.77
  -5  -4   4  115.55    8.15
  -5  -4   4  127.49    7.39
  -5  -4   4  124.53   14.68
   4   4  -4  46.005   2.860
   4   4  -4  41.761   2.367
  -4  -4   4  46.023   3.328
   4   4  -4  45.083   8.168
  -4  -4   4  44.750   9.474
  -4  -4   4  59.259  10.852
   3   4  -4  0.4715  0.4477
   3   4  -4  0.4748  0.6194
  -3  -4   4  0.3208  0.9673
  -3  -4   4  0.4403  0.9070
   3   4  -4  3.1030  3.3044
  -3  -4   4  0.8559  5.4469
  -3  -4   4  0.9435  4.5715
   2   4  -4  893.25   28.87
   2   4  -4  931.82   29.35
  -2  -4   4 1006.28   57.93
  -2  -4   4  965.11   41.65
  -2  -4   4  946.93   50.53
   2   4  -4  963.49   46.62
  -2  -4   4  897.36   35.45
  -2  -4   4 1003.39   38.67
   1   4  -4  771.53   61.54
   1   4  -4  700.17   18.09
   1   4  -4  716.69   43.59
   1   4  -4  717.09   44.55
  -1  -4   4  738.05   54.13
  -1  -4   4  739.78   36.31
  -1  -4   4  728.97   20.32
   1   4  -4  797.87   32.74
  -1  -4   4  789.85   30.44
  -1  -4   4  809.11   47.36
   0   4  -4  33.639   1.798
   0   4  -4  32.980   2.065
   0   4  -4  33.640   1.651
   0   4  -4  36.873   2.387
   0  -4   4  33.002   1.494
   0  -4   4  32.669   1.602
   0  -4   4  31.116   2.254
   0  -4   4  32.357   1.771
   0  -4   4  33.389   1.992
   0   4  -4  26.472   3.827
   0  -4   4  33.637   4.014
   0  -4   4  29.650   3.241
  -1   4  -4  1.3613  0.6718
  -1   4  -4  2.3075  0.6288
  -1   4  -4  2.6341  1.0352
  -1   4  -4  2.8082  0.4073
  -1   4  -4  1.7338  0.2884
   1  -4   4  1.9809  0.9154
   1  -4   4  1.1363  0.7924
   1  -4   4  2.7802  1.0739
  -1   4  -4  4.2036  2.0021
   1  -4   4  4.5379  2.4702
   1  -4   4  2.3429  2.3600
  -2   4  -4  17.174   1.182
  -2   4  -4  19.133   0.845
  -2   4  -4  20.596   1.515
  -2   4  -4  16.273   1.606
  -2   4  -4  19.023   1.169
   2  -4   4  16.438   1.289
   2  -4   4  21.071   1.487
  -2   4  -4  13.900   4.344
   2  -4   4  17.576   4.140
   2  -4   4  15.356   4.009
  -3   4  -4  8.4427  0.9287
  -3   4  -4  8.6349  0.8898
  -3   4  -4  10.022   0.790
   3  -4   4  9.7722  1.2844
   3  -4   4  11.785   1.242
  -3   4  -4  6.0185  3.4796
   3  -4   4  13.286   3.843
   3  -4   4  15.320   5.443
  -4   4  -4  2.9945  0.8203
  -4   4  -4  4.3085  1.9071
   4  -4   4  3.5738  0.9593
   4  -4   4  3.6625  1.2044
   4  -4   4  1.6182  5.3978
   4  -4   4  -5.288   6.159
  -5   4  -4  112.22    5.99
   5  -4   4  108.77    6.01
   5  -4   4  109.22    5.99
   5  -4   4  100.62   10.03
  -6   4  -4  391.44   21.42
   6  -4   4  383.91   25.17
   6  -4   4  388.89   20.79
   6  -4   4  452.45   32.57
   7   3  -4  4.7106  1.7447
  -7  -3   4  6.7860  2.7356
   6   3  -4  81.007   6.511
  -6  -3   4  82.145   4.960
  -6  -3   4  73.225   6.292
  -6  -3   4  55.883  10.127
   5   3  -4  417.51   21.25
   5   3  -4  430.18   17.08
   5   3  -4  422.41   25.14
  -5  -3   4  421.40   17.87
  -5  -3   4  432.95   20.23
   5   3  -4  411.97   28.20
  -5  -3   4  386.39   21.26
   4   3  -4  536.76   30.46
   4   3  -4  542.06   20.56
   4   3  -4  547.33   15.44
   4   3  -4  533.28   29.55
  -4  -3   4  542.14   30.03
  -4  -3   4  546.01   45.71
   4   3  -4  592.95   32.24
  -4  -3   4  575.49   24.83
  -4  -3   4  574.98   39.47
   3   3  -4  100.20    4.29
   3   3  -4  103.06    5.68
  -3  -3   4  110.57    8.64
  -3  -3   4  106.14    8.11
   3   3  -4  101.61    7.45
  -3  -3   4  90.453   6.961
  -3  -3   4  92.243   8.623
   2   3  -4  771.64   34.38
   2   3  -4  869.98   66.38
   2   3  -4  833.54   53.62
   2   3  -4  844.16   42.44
   2   3  -4  799.92   38.04
   2   3  -4  793.77   29.50
  -2  -3   4  798.61   41.44
  -2  -3   4  785.70   27.71
  -2  -3   4  795.03   30.55
   2   3  -4  846.41   51.22
   2   3  -4  807.09   32.13
  -2  -3   4  736.00   27.69
  -2  -3   4  781.30   34.25
   1   3  -4 3249.76  245.28
   1   3  -4 3259.19  137.33
  -1  -3   4 3253.68  212.37
  -1  -3   4 3031.65  128.55
   0   3  -4  7.2601  0.8111
   0   3  -4  6.2653  1.0566
   0   3  -4  6.8346  1.0647
   0   3  -4  7.1946  0.5379
   0   3  -4  7.8590  0.6755
   0   3  -4  6.3240  0.5533
   0  -3   4  6.9989  0.6836
   0  -3   4  6.1521  0.6581
   0  -3   4  8.5979  0.5196
   0  -3   4  9.2575  1.0972
   0  -3   4  7.6715  0.5062
   0  -3   4  7.3284  0.8558
   0   3  -4  6.0594  1.7215
   0   3  -4  4.8020  2.2481
   0  -3   4  6.5720  1.8440
  -1   3  -4 1017.76   66.86
  -1   3  -4 1035.18   30.97
  -1   3  -4 1076.59   37.77
  -1   3  -4 1052.36   99.22
  -1   3  -4  999.08   36.11
   1  -3   4 1005.67   66.81
   1  -3   4 1026.04   55.58
   1  -3   4 1036.29   44.61
  -1   3  -4 1052.84   74.79
  -1   3  -4 1055.62   45.54
   1  -3   4 1071.98   47.44
   1  -3   4 1033.37   52.89
  -2   3  -4  719.02   42.15
  -2   3  -4  695.85   61.24
  -2   3  -4  716.09   27.39
  -2   3  -4  709.51   19.97
  -2   3  -4  642.02   36.28
   2  -3   4  606.80   25.08
   2  -3   4  692.23   24.88
   2  -3   4  715.36   35.89
  -2   3  -4  709.98   32.56
   2  -3   4  770.63   37.18
   2  -3   4  681.44   25.50
  -3   3  -4  266.66   11.63
  -3   3  -4  252.63   13.01
  -3   3  -4  271.02    8.97
   3  -3   4  246.89    7.45
   3  -3   4  258.95   10.29
  -3   3  -4  259.66   20.66
   3  -3   4  286.41   15.58
   3  -3   4  279.14   12.73
  -4   3  -4  59.378   3.301
  -4   3  -4  56.875   4.812
   4  -3   4  59.007   3.483
   4  -3   4  54.240   2.389
  -4   3  -4  46.818   7.228
   4  -3   4  53.290   7.808
   4  -3   4  48.594   8.410
  -5   3  -4  17.882   1.966
  -5   3  -4  14.699   2.041
   5  -3   4  16.413   2.057
   5  -3   4  16.934   1.834
   5  -3   4  13.360   7.193
  -6   3  -4  2.8690  2.6572
  -6   3  -4  -2.146   2.357
   6  -3   4  0.9157  1.6076
   6  -3   4  1.1521  1.7994
   6  -3   4  2.9915  6.7384
  -7   3  -4  46.653   4.740
   7  -3   4  54.926   4.414
   7  -3   4  53.281   4.713
   7  -3   4  24.066  15.534
   7   2  -4  96.449   4.613
  -7  -2   4  85.615   7.020
  -7  -2   4  98.387   6.185
   6   2  -4  70.025   4.711
   6   2  -4  61.468   3.643
   6   2  -4  64.524   3.119
  -6  -2   4  66.282   4.368
  -6  -2   4  64.436   4.259
  -6  -2   4  48.321  11.124
   5   2  -4  36.126   1.840
   5   2  -4  35.516   2.084
   5   2  -4  33.361   2.093
  -5  -2   4  39.335   2.093
  -5  -2   4  36.372   2.429
   5   2  -4  23.190   6.620
  -5  -2   4  33.406   6.790
   4   2  -4  341.92   18.41
   4   2  -4  377.14   22.30
   4   2  -4  361.66   23.04
   4   2  -4  375.74   20.68
   4   2  -4  367.10   10.24
  -4  -2   4  366.47   21.76
  -4  -2   4  390.97   17.51
  -4  -2   4  365.41   26.53
   4   2  -4  393.87   35.25
   4   2  -4  374.70   19.48
  -4  -2   4  388.39   17.04
  -4  -2   4  356.15   21.07
   3   2  -4  193.51    7.68
   3   2  -4  194.40    5.60
   3   2  -4  205.38    7.66
   3   2  -4  205.61   16.40
   3   2  -4  191.28    8.68
   3   2  -4  219.97   18.18
  -3  -2   4  183.94    9.18
  -3  -2   4  211.84   15.63
  -3  -2   4  209.58   12.81
   3   2  -4  218.97   14.94
   3   2  -4  217.87   18.12
  -3  -2   4  223.07   12.50
  -3  -2   4  213.82   14.63
   2   2  -4  3.6101  0.5688
   2   2  -4  3.4803  0.6117
   2   2  -4  5.1220  1.0722
   2   2  -4  3.7676  0.9274
   2   2  -4  4.0433  0.6701
   2   2  -4  3.3377  0.5701
  -2  -2   4  4.8301  0.7004
  -2  -2   4  3.0861  0.6519
  -2  -2   4  3.6280  0.3015
  -2  -2   4  4.1702  0.8038
   2   2  -4  6.2798  3.6877
   2   2  -4  3.5024  3.1778
  -2  -2   4  4.1268  3.3886
  -2  -2   4  1.2565  3.3560
   1   2  -4  967.57   42.35
   1   2  -4  916.44   41.73
   1   2  -4  968.61   49.65
   1   2  -4  851.83   39.82
   1   2  -4 1015.95   74.22
   1   2  -4  992.68   81.12
  -1  -2   4  999.05   48.28
  -1  -2   4  870.46   27.84
  -1  -2   4  904.05   26.68
  -1  -2   4  965.50   31.67
   1   2  -4  961.88   42.61
   1   2  -4  990.01   37.33
  -1  -2   4  928.05   49.33
  -1  -2   4  950.97   60.23
   0   2  -4  839.55   61.18
   0   2  -4  881.49   59.86
   0   2  -4  802.49   47.58
   0   2  -4  780.27   49.54
   0   2  -4  841.47   33.46
   0  -2   4  831.22   48.31
   0  -2   4  759.86   34.35
   0  -2   4  821.76   63.76
   0  -2   4  824.96   50.81
   0  -2   4  857.42   39.69
   0  -2   4  867.14   44.92
   0  -2   4  806.46   24.23
   0   2  -4  792.86   32.98
   0   2  -4  822.63   38.81
   0  -2   4  801.83   34.34
  -1   2  -4  127.76    4.29
  -1   2  -4  127.96    4.75
  -1   2  -4  126.55    6.73
   1  -2   4  122.36    7.84
   1  -2   4  129.64    8.06
   1  -2   4  115.01    5.36
   1  -2   4  132.93    5.07
  -1   2  -4  138.05    9.75
  -1   2  -4  120.19   10.91
   1  -2   4  115.96    7.20
  -2   2  -4  95.371   5.452
  -2   2  -4  95.287   2.820
  -2   2  -4  92.880   3.685
  -2   2  -4  87.629   3.080
  -2   2  -4  94.656   4.233
   2  -2   4  86.324   3.978
   2  -2   4  92.705   3.665
   2  -2   4  90.729   3.518
   2  -2   4  90.893   4.774
  -2   2  -4  96.815   5.778
  -2   2  -4  76.499   6.976
   2  -2   4  64.062   6.856
   2  -2   4  82.982   5.782
  -3   2  -4  110.61    7.59
  -3   2  -4  106.72    5.24
  -3   2  -4  113.41    3.54
   3  -2   4  105.20    3.66
   3  -2   4  106.39    5.97
  -3   2  -4  100.06    8.00
  -3   2  -4  93.506   7.891
   3  -2   4  101.99    7.44
   3  -2   4  103.88    8.75
  -4   2  -4  6.3073  1.1628
  -4   2  -4  9.7415  1.8651
   4  -2   4  5.8094  1.1644
  -4   2  -4 -0.3405  5.6107
   4  -2   4  11.929   6.143
   4  -2   4  7.4930  5.8803
  -5   2  -4  176.82    9.77
  -5   2  -4  189.76   14.88
   5  -2   4  177.36    7.59
   5  -2   4  165.78   13.97
  -6   2  -4  120.12    6.49
  -6   2  -4  111.69    8.46
   6  -2   4  118.03    5.42
   6  -2   4  127.81   15.07
  -7   2  -4  23.176   3.761
   7  -2   4  23.680   2.561
   7  -2   4  18.165  10.692
   7   1  -4  0.0964  1.2650
   7   1  -4  0.3032  1.6728
  -7  -1   4 -0.8134  2.3040
  -7  -1   4  -3.568   1.726
   6   1  -4  2.4617  1.3378
   6   1  -4  0.7335  0.8217
   6   1  -4  3.3519  1.2324
  -6  -1   4 -0.2150  1.2948
  -6  -1   4 -0.3740  1.4695
   6   1  -4  3.1545  8.7114
  -6  -1   4   8.697  10.586
   5   1  -4  107.66    4.71
   5   1  -4  105.30    4.98
   5   1  -4  103.45    4.18
  -5  -1   4  108.32    6.89
  -5  -1   4  112.10    4.47
   5   1  -4  97.142  11.934
  -5  -1   4  97.013  10.641
   4   1  -4  23.422   2.109
   4   1  -4  22.785   1.830
   4   1  -4  18.112   1.166
   4   1  -4  22.148   1.644
   4   1  -4  20.323   1.499
   4   1  -4  23.400   1.381
  -4  -1   4  24.554   1.790
  -4  -1   4  22.977   1.851
  -4  -1   4  19.612   1.359
   4   1  -4  22.310   6.499
   4   1  -4  23.134   5.379
  -4  -1   4  25.957   6.592
   3   1  -4  901.84   31.42
   3   1  -4  911.66   38.32
   3   1  -4  869.51   34.34
   3   1  -4  830.50   30.31
   3   1  -4  916.98   31.77
   3   1  -4  932.73   44.97
  -3  -1   4  879.60   39.41
  -3  -1   4  800.53   34.36
  -3  -1   4  991.22   30.48
  -3  -1   4  753.15   29.58
   3   1  -4  949.11   33.88
   3   1  -4  975.89   49.59
  -3  -1   4  862.80   30.30
  -3  -1   4  948.10   40.96
   2   1  -4  98.716   5.029
   2   1  -4  106.73    8.83
   2   1  -4  96.537   3.730
   2   1  -4  109.44    7.67
   2   1  -4  98.566   3.080
  -2  -1   4  109.09    7.01
  -2  -1   4  103.56    4.75
  -2  -1   4  109.71    6.11
  -2  -1   4  108.39    5.21
   2   1  -4  111.89    7.71
   2   1  -4  104.94    7.08
  -2  -1   4  100.21    6.17
  -2  -1   4  101.88    9.00
   1   1  -4  1.5559  0.3373
   1   1  -4  1.4892  0.3129
   1   1  -4  1.7073  0.3780
   1   1  -4  1.0516  0.6436
   1   1  -4  1.9722  0.4097
  -1  -1   4  0.7304  0.7335
  -1  -1   4  2.1469  0.5880
  -1  -1   4  0.6623  0.3445
  -1  -1   4  1.6446  0.5037
  -1  -1   4  1.1822  0.4282
  -1  -1   4  1.3775  0.4810
   1   1  -4  2.5367  1.5056
   1   1  -4  0.6199  2.1203
  -1  -1   4  -1.485   2.082
  -1  -1   4 -0.7604  1.5375
   0   1  -4  47.630   4.024
   0   1  -4  47.693   2.550
   0   1  -4  53.242   3.495
   0   1  -4  48.301   3.447
   0   1  -4  49.659   2.943
   0  -1   4  47.852   2.355
   0  -1   4  43.695   2.232
   0  -1   4  46.055   2.442
   0  -1   4  51.521   3.186
   0  -1   4  47.039   1.801
   0   1  -4  45.468   3.819
   0   1  -4  48.449   3.356
   0  -1   4  47.182   3.298
   0  -1   4  51.322   3.673
  -1   1  -4  630.91   39.78
  -1   1  -4  654.71   21.47
  -1   1  -4  643.32   30.60
  -1   1  -4  663.42   29.93
   1  -1   4  642.16   24.70
   1  -1   4  610.13   33.66
   1  -1   4  629.94   28.20
   1  -1   4  651.11   37.32
   1  -1   4  664.08   28.24
  -1   1  -4  687.43   25.24
  -1   1  -4  639.78   27.11
   1  -1   4  667.52   31.00
   1  -1   4  642.96   31.08
  -2   1  -4  9.1304  1.1496
  -2   1  -4  7.6541  0.7729
  -2   1  -4  9.4143  1.0569
  -2   1  -4  7.5176  0.5746
  -2   1  -4  8.2349  0.6464
  -2   1  -4  6.9681  0.6719
   2  -1   4  8.2918  0.6500
   2  -1   4  10.019   1.078
   2  -1   4  8.6834  0.9046
   2  -1   4  8.1185  0.7283
  -2   1  -4  4.1948  1.9815
  -2   1  -4  7.9121  2.3790
   2  -1   4  10.515   2.710
   2  -1   4  2.3773  2.0481
  -3   1  -4  489.46   25.21
  -3   1  -4  519.80   33.87
  -3   1  -4  507.28   33.43
  -3   1  -4  488.32   20.16
  -3   1  -4  514.31   34.86
  -3   1  -4  514.40   34.03
   3  -1   4  466.23   36.70
   3  -1   4  479.92   15.32
   3  -1   4  461.74   19.36
   3  -1   4  486.23   26.39
  -3   1  -4  534.44   36.56
  -3   1  -4  524.34   24.69
   3  -1   4  541.40   25.79
   3  -1   4  536.11   24.00
  -4   1  -4  115.15    7.17
  -4   1  -4  119.35    8.49
   4  -1   4  110.63    4.59
   4  -1   4  118.82    4.11
  -4   1  -4  123.34    9.12
   4  -1   4  109.04    8.24
   4  -1   4  130.22   11.60
  -5   1  -4  157.30    8.39
  -5   1  -4  158.52    7.32
   5  -1   4  155.50   10.36
   5  -1   4  162.62    6.51
  -5   1  -4  145.73   16.37
   5  -1   4  140.09   16.00
   5  -1   4  167.23   13.94
  -6   1  -4  74.563   4.938
  -6   1  -4  84.857   7.372
   6  -1   4  81.338   4.831
   6  -1   4  60.119   9.895
  -7   1  -4  27.683   3.146
  -7   1  -4  20.893   2.077
  -7   1  -4  22.305   2.843
   7  -1   4  26.382   2.949
   7  -1   4  15.578  13.084
   7   0  -4  104.60    7.07
   7   0  -4  90.366   4.719
  -7   0   4  96.323   5.597
  -7   0   4  92.288   8.797
   7   0  -4  48.577  11.193
   6   0  -4  245.20   11.34
   6   0  -4  241.90    8.46
   6   0  -4  247.17   10.42
   6   0  -4  245.29   11.57
  -6   0   4  239.69   21.72
  -6   0   4  231.22   18.68
   6   0  -4  255.40   19.78
   5   0  -4  37.426   2.173
   5   0  -4  38.867   1.732
   5   0  -4  35.560   1.696
   5   0  -4  36.377   2.573
   5   0  -4  32.102   2.980
  -5   0   4  40.383   2.137
  -5   0   4  29.486   2.094
   5   0  -4  33.501   7.532
   5   0  -4  28.021   5.921
  -5   0   4  24.682   8.338
   4   0  -4  257.46   10.64
   4   0  -4  245.62    6.79
   4   0  -4  244.85    9.31
   4   0  -4  262.69   12.80
   4   0  -4  252.89   12.18
  -4   0   4  253.12    8.45
  -4   0   4  258.20   21.54
  -4   0   4  252.71    6.84
   4   0  -4  274.44   20.36
   4   0  -4  245.92   15.05
  -4   0   4  245.92   16.98
  -4   0   4  266.43   17.89
   3   0  -4  19.671   0.956
   3   0  -4  19.556   1.486
   3   0  -4  19.530   1.179
   3   0  -4  19.729   1.043
   3   0  -4  18.347   1.672
   3   0  -4  18.080   1.436
  -3   0   4  18.906   1.100
  -3   0   4  17.573   1.482
  -3   0   4  20.183   1.203
  -3   0   4  19.830   1.352
   3   0  -4  19.227   4.522
  -3   0   4  18.679   4.453
  -3   0   4  14.153   4.868
   2   0  -4  158.78   10.28
   2   0  -4  159.40    7.19
   2   0  -4  153.08    7.38
   2   0  -4  150.85    8.29
   2   0  -4  153.68    4.55
  -2   0   4  135.31    7.07
  -2   0   4  148.65    6.55
  -2   0   4  157.09    6.24
  -2   0   4  167.78    6.67
  -2   0   4  144.70    7.05
   2   0  -4  156.02   11.44
   2   0  -4  152.83    7.83
  -2   0   4  159.86   10.03
  -2   0   4  166.28   10.23
   1   0  -4  206.66    7.91
   1   0  -4  210.67    9.49
   1   0  -4  212.54   12.37
   1   0  -4  221.17   11.10
   1   0  -4  193.94   15.72
  -1   0   4  193.55    5.74
  -1   0   4  218.50   12.61
  -1   0   4  215.54   12.83
  -1   0   4  214.65    7.73
  -1   0   4  200.37    5.83
   1   0  -4  224.08   13.84
   1   0  -4  215.83   12.91
  -1   0   4  226.08   10.37
  -1   0   4  202.88    9.08
   0   0  -4 4439.89  255.40
   0   0  -4 4448.80  183.39
   0   0   4 3723.55  204.90
   0   0   4 4456.27  185.79
  -1   0  -4  548.34   25.03
  -1   0  -4  568.93   21.28
  -1   0  -4  482.02   26.62
  -1   0  -4  502.58   23.79
  -1   0  -4  574.28   30.49
   1   0   4  524.10   29.90
   1   0   4  549.08   28.31
   1   0   4  566.27   27.00
   1   0   4  561.85   41.73
   1   0   4  563.49   23.87
  -1   0  -4  632.64   40.29
  -1   0  -4  642.34   35.77
   1   0   4  664.85   26.63
   1   0   4  645.57   36.93
  -2   0  -4  9.6388  0.6616
  -2   0  -4  9.4238  0.8561
  -2   0  -4  10.130   0.909
  -2   0  -4  10.406   1.023
  -2   0  -4  10.154   0.686
  -2   0  -4  9.7710  1.0566
   2   0   4  9.4041  0.9182
   2   0   4  10.330   0.670
   2   0   4  10.471   0.724
   2   0   4  9.9545  0.5713
  -2   0  -4  5.1487  2.7060
  -2   0  -4  5.3327  2.6775
   2   0   4  12.636   3.575
   2   0   4  10.373   2.710
  -3   0  -4  312.47   11.82
  -3   0  -4  310.70   11.62
  -3   0  -4  316.89    7.79
  -3   0  -4  319.97   12.81
  -3   0  -4  322.15   10.38
  -3   0  -4  334.67   12.20
   3   0   4  297.71   14.14
   3   0   4  304.66   13.12
   3   0   4  288.06    8.97
   3   0   4  308.04    8.72
  -3   0  -4  335.98   25.09
  -3   0  -4  333.88   15.81
   3   0   4  321.17   15.59
   3   0   4  337.51   15.45
  -4   0  -4 1177.03   92.46
  -4   0  -4 1127.23   57.59
  -4   0  -4 1130.15   87.48
  -4   0  -4 1201.80   97.77
  -4   0  -4 1175.87   44.02
   4   0   4 1118.28   38.01
   4   0   4 1082.43   40.38
  -4   0  -4 1204.23   78.05
  -4   0  -4 1051.88   47.70
   4   0   4 1230.59   55.56
   4   0   4 1125.20   38.11
  -5   0  -4  5.8120  1.2731
  -5   0  -4  3.5151  1.2565
  -5   0  -4  5.1140  1.4031
   5   0   4  5.7912  1.0758
   5   0   4  5.3945  0.6727
  -5   0  -4  0.9154  5.1674
   5   0   4  9.7345  9.2616
   5   0   4  0.9944  5.5447
  -6   0  -4  46.528   4.691
  -6   0  -4  42.314   3.018
  -6   0  -4  40.466   3.084
   6   0   4  50.310   2.907
   6   0   4  49.310  11.084
  -7   0  -4  179.64   13.32
  -7   0  -4  186.72   10.74
  -7   0  -4  187.40    9.37
   7   0   4  213.43   12.30
   7   0   4  203.13   23.03
   7  -1  -4  5.5142  2.0658
  -7   1   4  11.122   3.228
  -7   1   4  9.1132  2.6748
   7  -1  -4 -0.3957  8.1021
   6  -1  -4  4.0663  1.0423
   6  -1  -4  3.5599  1.9230
   6  -1  -4  3.8181  1.3916
   6  -1  -4  1.2721  1.0836
  -6   1   4  2.9168  1.4592
  -6   1   4  1.3450  1.7851
   6  -1  -4  -1.681   8.450
   5  -1  -4  1.3260  1.2104
   5  -1  -4  2.2069  1.2592
   5  -1  -4  3.0846  0.9517
   5  -1  -4  2.1955  0.7434
   5  -1  -4  1.4366  1.3514
  -5   1   4  0.0275  1.5246
  -5   1   4 -0.1694  1.6270
   5  -1  -4  -13.62    8.25
   5  -1  -4  -2.175   6.660
  -5   1   4 -0.9794  8.1730
   4  -1  -4  329.52   10.61
   4  -1  -4  337.58   12.12
   4  -1  -4  311.49    9.09
   4  -1  -4  323.41   20.24
   4  -1  -4  322.37    7.58
  -4   1   4  341.69    8.71
  -4   1   4  342.61   24.38
   4  -1  -4  352.30   17.49
   4  -1  -4  326.12   19.89
  -4   1   4  369.74   19.06
   3  -1  -4  701.45   36.18
   3  -1  -4  674.92   41.74
   3  -1  -4  664.57   23.60
   3  -1  -4  686.92   41.71
   3  -1  -4  691.80   38.43
   3  -1  -4  758.63   51.53
  -3   1   4  731.35   25.14
  -3   1   4  710.61   30.76
  -3   1   4  743.61   29.83
  -3   1   4  710.45   34.16
  -3   1   4  693.04   52.16
  -3   1   4  693.16   18.66
   3  -1  -4  768.03   57.36
  -3   1   4  785.88   33.82
  -3   1   4  776.53   33.46
   2  -1  -4  27.320   1.338
   2  -1  -4  30.773   1.142
   2  -1  -4  27.620   1.492
   2  -1  -4  28.200   1.310
   2  -1  -4  27.540   2.254
  -2   1   4  28.461   1.417
  -2   1   4  30.978   1.418
  -2   1   4  27.611   1.578
  -2   1   4  29.098   1.289
   2  -1  -4  30.657   3.897
   2  -1  -4  28.374   3.596
  -2   1   4  25.203   3.396
  -2   1   4  26.041   3.337
   1  -1  -4  97.762   3.218
   1  -1  -4  92.867   5.667
   1  -1  -4  94.047   5.836
   1  -1  -4  91.753   4.865
   1  -1  -4  93.243   3.794
  -1   1   4  93.853   3.475
  -1   1   4  97.558   3.068
  -1   1   4  96.193   5.519
  -1   1   4  83.000   4.275
   1  -1  -4  90.196   6.121
   1  -1  -4  103.16    5.46
  -1   1   4  76.140   5.497
  -1   1   4  101.47    5.65
   0  -1  -4  668.55   52.81
   0  -1  -4  643.22   32.83
   0  -1  -4  637.91   31.81
   0  -1  -4  660.93   33.88
   0   1   4  683.46   43.83
   0   1   4  600.55   25.15
   0   1   4  652.07   28.74
   0   1   4  644.90   28.08
   0   1   4  629.59   37.01
   0  -1  -4  664.02   28.43
   0  -1  -4  602.90   26.61
   0   1   4  685.11   25.66
   0   1   4  637.75   22.89
  -1  -1  -4  309.27   18.56
  -1  -1  -4  310.27   17.14
  -1  -1  -4  328.75   27.16
  -1  -1  -4  310.75   20.48
  -1  -1  -4  297.32   20.83
  -1  -1  -4  307.45   17.51
   1   1   4  293.50    9.56
   1   1   4  306.16   11.73
   1   1   4  318.15   20.02
   1   1   4  284.69   10.82
   1   1   4  297.37   16.31
  -1  -1  -4  278.31   16.66
  -1  -1  -4  311.19   15.16
   1   1   4  337.93   11.85
   1   1   4  263.38   12.91
  -2  -1  -4  335.78   18.34
  -2  -1  -4  372.25   19.40
  -2  -1  -4  331.48   19.03
  -2  -1  -4  362.52   17.48
  -2  -1  -4  341.87   19.23
   2   1   4  365.36   10.17
   2   1   4  351.00   16.20
   2   1   4  365.44   13.14
   2   1   4  344.95   10.82
   2   1   4  343.71   12.98
  -2  -1  -4  334.05   24.74
  -2  -1  -4  364.32   14.67
   2   1   4  395.79   12.64
   2   1   4  311.96   13.40
  -3  -1  -4  685.33   51.52
  -3  -1  -4  616.36   20.19
  -3  -1  -4  639.80   35.18
  -3  -1  -4  619.67   25.70
  -3  -1  -4  689.65   58.65
  -3  -1  -4  652.89   55.42
   3   1   4  636.07   33.69
   3   1   4  592.78   16.01
   3   1   4  591.34   16.12
   3   1   4  660.39   59.50
  -3  -1  -4  677.46   26.29
  -3  -1  -4  674.42   25.39
   3   1   4  685.31   21.27
   3   1   4  687.80   26.71
  -4  -1  -4  532.60   13.89
  -4  -1  -4  524.25   24.50
  -4  -1  -4  509.58   19.31
  -4  -1  -4  512.97   38.51
  -4  -1  -4  528.70   20.78
  -4  -1  -4  525.36   25.33
   4   1   4  505.66   13.73
   4   1   4  487.66   27.04
   4   1   4  486.41   14.46
  -4  -1  -4  548.96   35.17
  -4  -1  -4  540.60   29.64
   4   1   4  546.07   20.22
   4   1   4  560.57   34.59
  -5  -1  -4  17.461   1.749
  -5  -1  -4  14.693   1.789
  -5  -1  -4  20.589   2.253
  -5  -1  -4  17.604   1.756
  -5  -1  -4  13.911   1.447
   5   1   4  16.096   1.780
   5   1   4  16.963   1.320
  -5  -1  -4  9.8015  6.2664
   5   1   4  14.706   7.725
   5   1   4  7.1979  4.7863
  -6  -1  -4  14.641   1.663
  -6  -1  -4  18.837   2.081
  -6  -1  -4  13.964   2.166
   6   1   4  17.071   1.713
   6   1   4  16.510   1.374
  -6  -1  -4 -0.9611  9.3178
   6   1   4  10.418   9.077
  -7  -1  -4  22.941   2.889
  -7  -1  -4  27.267   3.385
  -7  -1  -4  27.666   3.097
   7   1   4  28.674   2.899
  -8  -1  -4  33.850   3.690
   8   1   4  38.831   4.696
   7  -2  -4  0.1698  1.2882
  -7   2   4  3.0950  2.7554
  -7   2   4  0.2410  2.4064
   7  -2  -4  -15.70   14.41
   6  -2  -4 -0.0046  1.0928
  -6   2   4  1.7985  1.9434
  -6   2   4  2.2858  1.8644
   6  -2  -4  0.6113  5.8765
   5  -2  -4  18.374   1.748
   5  -2  -4  19.439   2.670
   5  -2  -4  20.652   2.077
   5  -2  -4  20.488   1.369
  -5   2   4  22.553   2.019
  -5   2   4  20.800   2.013
   5  -2  -4  9.2530  5.1540
   4  -2  -4  20.304   1.633
   4  -2  -4  19.840   1.623
   4  -2  -4  23.295   1.260
   4  -2  -4  26.072   1.737
   4  -2  -4  21.656   1.455
  -4   2   4  23.011   1.636
  -4   2   4  21.575   1.675
   4  -2  -4  24.851   6.005
   4  -2  -4  21.651   5.244
  -4   2   4  7.3293  6.6924
   3  -2  -4  390.39   14.38
   3  -2  -4  394.46   24.74
   3  -2  -4  398.05   23.85
   3  -2  -4  409.66   16.53
   3  -2  -4  388.61   20.90
   3  -2  -4  390.18   19.91
  -3   2   4  375.69   16.44
  -3   2   4  386.22   18.06
  -3   2   4  389.58   12.53
   3  -2  -4  409.17   30.00
   3  -2  -4  387.92   24.66
  -3   2   4  432.64   25.60
  -3   2   4  441.18   19.26
   2  -2  -4 1535.03   47.56
   2  -2  -4 1526.96   44.68
   2  -2  -4 1539.93   79.19
  -2   2   4 1530.39   56.86
  -2   2   4 1568.33   52.92
  -2   2   4 1588.85   59.07
  -2   2   4 1611.09   42.77
  -2   2   4 1526.71   94.91
   2  -2  -4 1576.82  111.91
  -2   2   4 1626.12   56.21
  -2   2   4 1637.04   83.20
   1  -2  -4  30.615   1.555
   1  -2  -4  28.984   1.290
   1  -2  -4  28.294   1.614
  -1   2   4  30.081   1.360
  -1   2   4  30.837   1.414
  -1   2   4  28.369   0.981
  -1   2   4  26.908   1.034
  -1   2   4  27.970   1.477
  -1   2   4  30.057   1.478
   1  -2  -4  28.258   2.829
   1  -2  -4  27.624   2.786
  -1   2   4  25.958   2.718
  -1   2   4  28.690   3.014
   0  -2  -4  26.464   0.944
   0  -2  -4  29.959   1.313
   0  -2  -4  25.213   2.013
   0  -2  -4  27.745   1.180
   0   2   4  26.423   1.421
   0   2   4  25.385   1.124
   0   2   4  26.947   1.619
   0   2   4  26.272   1.085
   0  -2  -4  22.665   2.301
   0  -2  -4  21.747   2.509
   0   2   4  23.651   2.210
   0   2   4  22.896   2.377
  -1  -2  -4  250.61   14.37
  -1  -2  -4  239.68   19.68
  -1  -2  -4  258.47   14.97
  -1  -2  -4  256.15   13.56
  -1  -2  -4  257.71    9.83
   1   2   4  259.79    9.62
   1   2   4  264.90   13.21
   1   2   4  274.36   10.67
   1   2   4  252.60    8.31
   1   2   4  270.02   13.50
   1   2   4  250.61   12.43
  -1  -2  -4  214.16   13.05
  -1  -2  -4  244.83   12.70
   1   2   4  226.20    9.55
   1   2   4  278.68   15.57
  -2  -2  -4  494.66   25.41
  -2  -2  -4  533.42   38.30
  -2  -2  -4  473.51   16.97
  -2  -2  -4  457.00   21.32
  -2  -2  -4  495.80   18.88
  -2  -2  -4  508.64   16.20
   2   2   4  493.18   19.02
   2   2   4  519.82   33.96
   2   2   4  529.89   40.61
   2   2   4  510.93   25.59
   2   2   4  476.86   13.59
  -2  -2  -4  533.93   29.60
  -2  -2  -4  533.87   20.16
   2   2   4  576.91   20.70
   2   2   4  540.02   38.35
  -3  -2  -4  96.086   4.133
  -3  -2  -4  100.84    6.95
  -3  -2  -4  100.17    7.93
  -3  -2  -4  99.751   6.223
  -3  -2  -4  101.02    4.16
   3   2   4  87.546   5.814
   3   2   4  97.672   4.717
   3   2   4  93.025   6.143
   3   2   4  84.399   2.504
  -3  -2  -4  103.76    8.20
  -3  -2  -4  85.809   6.624
   3   2   4  94.795   9.122
   3   2   4  92.866   7.020
  -4  -2  -4  12.327   1.067
  -4  -2  -4  15.141   0.851
  -4  -2  -4  12.887   1.769
  -4  -2  -4  13.785   1.214
  -4  -2  -4  16.969   1.424
  -4  -2  -4  15.189   0.806
   4   2   4  14.734   1.303
   4   2   4  14.149   0.998
   4   2   4  10.680   1.258
  -4  -2  -4  11.184   5.723
  -4  -2  -4  7.9068  4.1083
   4   2   4  7.9655  3.4110
   4   2   4  18.114   6.551
  -5  -2  -4  87.706   4.345
  -5  -2  -4  93.806   3.425
  -5  -2  -4  74.321   3.389
  -5  -2  -4  94.205   3.454
  -5  -2  -4  84.624   3.523
   5   2   4  89.742   3.213
   5   2   4  85.742   4.004
   5   2   4  82.761   3.217
  -5  -2  -4  67.219  10.953
   5   2   4  68.172   9.320
  -6  -2  -4  15.061   2.573
  -6  -2  -4  18.828   2.440
  -6  -2  -4  18.209   1.991
   6   2   4  17.918   1.606
   6   2   4  18.716   2.074
   6   2   4  23.058   2.288
  -6  -2  -4  10.550   7.609
   6   2   4  9.4238  7.9404
  -7  -2  -4  131.86    8.62
  -7  -2  -4  133.89    9.67
  -7  -2  -4  131.15    7.32
   7   2   4  136.89    6.64
  -8  -2  -4  38.282   4.213
   8   2   4  34.378   3.815
   7  -3  -4  173.58   12.76
  -7   3   4  154.65   13.29
  -7   3   4  154.30    8.77
   7  -3  -4  163.68   21.58
   6  -3  -4  56.938   4.249
  -6   3   4  60.532   4.119
  -6   3   4  65.250   4.534
   6  -3  -4  47.465  11.743
   5  -3  -4  105.42    4.11
   5  -3  -4  95.280   3.774
   5  -3  -4  105.83    5.46
   5  -3  -4  95.629   8.480
  -5   3   4  107.67    4.50
  -5   3   4  100.03    4.54
   5  -3  -4  99.772   9.386
   4  -3  -4  29.517   2.720
   4  -3  -4  30.024   2.395
   4  -3  -4  30.349   2.229
   4  -3  -4  26.256   1.560
   4  -3  -4  28.986   1.701
  -4   3   4  32.384   2.175
   4  -3  -4  22.294   4.113
  -4   3   4  22.216   6.007
   3  -3  -4  636.36   24.75
   3  -3  -4  657.26   30.80
   3  -3  -4  644.84   18.13
   3  -3  -4  657.66   35.03
   3  -3  -4  661.56   18.97
  -3   3   4  670.04   42.23
  -3   3   4  680.80   25.06
   3  -3  -4  697.09   25.85
   3  -3  -4  683.35   30.13
  -3   3   4  710.33   28.40
   2  -3  -4  208.96    5.06
   2  -3  -4  204.91    5.46
   2  -3  -4  217.24   12.77
   2  -3  -4  216.84   12.18
   2  -3  -4  209.32    9.03
  -2   3   4  214.07   11.48
  -2   3   4  213.57   11.18
  -2   3   4  217.61   11.61
  -2   3   4  221.72    8.22
  -2   3   4  217.37   11.77
  -2   3   4  223.70    9.65
   2  -3  -4  223.60    9.71
  -2   3   4  218.23   10.64
  -2   3   4  238.63   18.34
   1  -3  -4 1081.88   27.97
   1  -3  -4 1099.58   54.65
   1  -3  -4 1045.60   31.62
  -1   3   4 1092.75   38.12
  -1   3   4 1094.55   40.59
  -1   3   4 1134.14   40.79
  -1   3   4 1108.44   31.89
  -1   3   4 1154.71   51.69
  -1   3   4 1178.68   55.53
  -1   3   4 1172.30   29.58
  -1   3   4 1169.28   45.09
   1  -3  -4 1148.55   39.86
   1  -3  -4 1101.29   90.53
  -1   3   4 1175.98   53.55
  -1   3   4 1228.93   56.45
   0  -3  -4 2370.99   99.96
   0  -3  -4 2403.21   74.06
   0  -3  -4 2514.41   88.96
   0  -3  -4 2328.66   74.79
   0   3   4 2343.08   79.96
   0   3   4 2292.56   60.12
   0  -3  -4 2436.15  156.47
   0  -3  -4 2390.28   86.78
   0   3   4 2565.67   84.10
   0   3   4 2519.58   86.59
  -1  -3  -4  190.37    5.66
  -1  -3  -4  183.52    8.64
  -1  -3  -4  175.52    9.42
  -1  -3  -4  210.24   11.27
  -1  -3  -4  195.38    8.05
  -1  -3  -4  182.24    5.39
   1   3   4  204.86    6.21
   1   3   4  191.92    5.89
   1   3   4  194.84   13.40
   1   3   4  212.50    5.93
   1   3   4  193.44    6.24
  -1  -3  -4  194.65   14.36
  -1  -3  -4  191.29   11.52
   1   3   4  202.56   12.43
   1   3   4  187.74   10.04
  -2  -3  -4  16.945   1.124
  -2  -3  -4  16.984   1.452
  -2  -3  -4  16.510   1.277
  -2  -3  -4  16.000   1.022
  -2  -3  -4  15.202   1.444
  -2  -3  -4  15.972   0.931
   2   3   4  16.941   1.859
   2   3   4  19.614   1.553
   2   3   4  17.456   1.125
   2   3   4  16.968   0.923
  -2  -3  -4  16.471   2.955
  -2  -3  -4  15.423   3.321
   2   3   4  12.536   3.068
   2   3   4  13.233   3.439
  -3  -3  -4  500.39   39.66
  -3  -3  -4  444.80   29.31
  -3  -3  -4  502.60   24.21
  -3  -3  -4  484.05   35.47
   3   3   4  444.48   12.30
   3   3   4  434.07   47.94
   3   3   4  470.02   17.80
   3   3   4  479.04   25.31
  -3  -3  -4  489.50   21.09
  -3  -3  -4  486.05   21.91
   3   3   4  474.33   20.01
   3   3   4  468.57   25.16
  -4  -3  -4  1.3928  0.1507
  -4  -3  -4 -0.0805  0.8571
  -4  -3  -4  1.7907  0.9781
  -4  -3  -4  1.9706  0.1473
  -4  -3  -4  3.2965  1.1557
  -4  -3  -4  2.4980  1.2348
   4   3   4  2.4164  0.7746
   4   3   4  2.9193  1.0945
  -4  -3  -4  -1.666   6.138
  -4  -3  -4  2.3109  4.7458
   4   3   4  -4.936   5.089
  -5  -3  -4  49.227   3.155
  -5  -3  -4  58.663   2.891
  -5  -3  -4  56.078   2.967
  -5  -3  -4  57.092   4.706
   5   3   4  59.790   2.922
   5   3   4  58.286   3.160
  -5  -3  -4  60.041  10.015
  -5  -3  -4  48.959   7.307
   5   3   4  40.179   7.825
  -6  -3  -4  46.245   3.598
  -6  -3  -4  43.526   4.309
  -6  -3  -4  39.952   3.417
   6   3   4  43.821   2.866
   6   3   4  44.733   3.221
   6   3   4  45.069   2.908
  -6  -3  -4  36.333  11.214
  -7  -3  -4  179.13    8.77
  -7  -3  -4  176.12   10.69
  -7  -3  -4  169.68   10.67
   7   3   4  185.27   10.50
   7   3   4  171.82    9.78
   7   3   4  185.61    9.54
  -7  -3  -4  171.24   21.51
   6  -4  -4  60.839   3.835
  -6   4   4  62.646   4.477
  -6   4   4  64.589   5.114
   6  -4  -4  56.289  14.366
   5  -4  -4  52.344   3.561
   5  -4  -4  50.393   5.857
   5  -4  -4  51.635   7.996
  -5   4   4  46.753   3.109
  -5   4   4  55.224   3.934
   5  -4  -4  40.096   8.652
   4  -4  -4  21.003   1.813
   4  -4  -4  20.040   1.571
   4  -4  -4  22.049   1.918
   4  -4  -4  20.430   1.816
  -4   4   4  18.454   2.213
   4  -4  -4  20.512   6.150
   4  -4  -4  20.317   4.829
   3  -4  -4 1280.30   28.95
   3  -4  -4 1345.36   59.60
   3  -4  -4 1330.37   63.91
   3  -4  -4 1284.49   28.67
  -3   4   4 1309.30   41.01
  -3   4   4 1329.34   41.65
  -3   4   4 1273.97   54.39
   3  -4  -4 1386.76   90.18
   3  -4  -4 1381.90   48.46
  -3   4   4 1517.57   73.36
   2  -4  -4  408.28   21.71
   2  -4  -4  405.73    9.27
   2  -4  -4  393.76   20.80
   2  -4  -4  426.05   26.79
  -2   4   4  416.83   17.43
  -2   4   4  418.58   16.56
  -2   4   4  422.30   14.12
  -2   4   4  414.27   25.37
  -2   4   4  438.85   23.60
   2  -4  -4  446.51   18.55
   2  -4  -4  463.85   29.53
  -2   4   4  457.21   35.73
   1  -4  -4  306.89   13.92
   1  -4  -4  298.30   11.43
   1  -4  -4  309.40    7.87
   1  -4  -4  300.25    6.40
  -1   4   4  306.06   11.36
  -1   4   4  299.54   10.22
  -1   4   4  305.47   17.94
  -1   4   4  321.19    8.80
  -1   4   4  315.79   12.87
  -1   4   4  314.93   10.08
  -1   4   4  309.34   11.61
   1  -4  -4  325.85   12.60
   1  -4  -4  318.08   22.80
  -1   4   4  342.02   19.69
  -1   4   4  335.28   19.03
   0  -4  -4  19.844   1.179
   0  -4  -4  21.757   1.276
   0  -4  -4  22.394   1.040
   0  -4  -4  22.561   1.215
   0   4   4  20.022   1.447
   0   4   4  22.736   1.068
   0   4   4  23.836   1.389
   0   4   4  20.372   0.990
   0   4   4  25.386   1.449
   0   4   4  22.550   1.333
   0   4   4  24.658   1.270
   0  -4  -4  24.807   2.109
   0  -4  -4  21.257   2.191
   0   4   4  22.062   2.648
   0   4   4  24.848   2.469
  -1  -4  -4  124.33    3.77
  -1  -4  -4  122.10    6.20
   1   4   4  117.40    3.22
   1   4   4  122.40    4.02
   1   4   4  124.79    4.32
   1   4   4  126.14    3.91
   1   4   4  118.83    5.38
   1   4   4  125.98    6.91
   1   4   4  130.50   10.19
  -1  -4  -4  123.61    7.07
   1   4   4  118.27    8.61
   1   4   4  109.50    9.03
  -2  -4  -4  240.95    8.19
  -2  -4  -4  247.94    9.60
  -2  -4  -4  241.26   12.69
  -2  -4  -4  249.12    9.08
   2   4   4  259.95   12.21
   2   4   4  242.80    6.53
   2   4   4  251.84   15.30
   2   4   4  246.58    7.49
   2   4   4  247.63   21.90
   2   4   4  267.92   13.35
  -2  -4  -4  240.69   11.71
  -2  -4  -4  224.86   11.80
   2   4   4  243.15    9.40
   2   4   4  260.12   13.81
  -3  -4  -4  432.81   24.18
  -3  -4  -4  422.83   16.51
  -3  -4  -4  404.51   16.24
   3   4   4  430.95   19.45
   3   4   4  410.54   14.70
   3   4   4  397.94   23.76
  -3  -4  -4  470.08   26.57
  -3  -4  -4  424.68   31.94
   3   4   4  450.09   28.88
  -4  -4  -4  1.0817  0.6529
  -4  -4  -4  2.8435  0.8584
  -4  -4  -4 -0.8236  0.8208
  -4  -4  -4  1.3484  1.0373
   4   4   4  0.7820  0.5319
   4   4   4  0.4910  1.1098
  -4  -4  -4  3.3761  4.9278
  -4  -4  -4  -6.288   4.930
   4   4   4  1.7948  3.7225
  -5  -4  -4  17.653   2.080
  -5  -4  -4  14.485   1.556
  -5  -4  -4  15.007   2.272
   5   4   4  14.922   1.685
   5   4   4  12.828   1.466
  -5  -4  -4  27.819   7.072
  -5  -4  -4 -0.2790  7.3426
  -6  -4  -4  60.760   5.348
  -6  -4  -4  71.196   4.231
  -6  -4  -4  64.663   5.223
   6   4   4  71.403   4.329
   6   4   4  71.386   3.453
  -6  -4  -4  53.252  13.209
  -7  -4  -4  40.437   3.738
  -7  -4  -4  48.170   4.384
  -7  -4  -4  37.910   3.782
   7   4   4  51.783   3.658
   7   4   4  39.071   3.300
   7   4   4  46.300   4.112
  -7  -4  -4  27.737  14.741
   6  -5  -4  73.344   5.770
  -6   5   4  71.721   5.547
  -6   5   4  83.578   5.549
   6  -5  -4  57.812  13.719
   5  -5  -4  34.349   2.867
  -5   5   4  35.520   2.872
  -5   5   4  30.242   3.329
   5  -5  -4  25.569   9.120
   4  -5  -4  6.8831  0.8308
   4  -5  -4  7.0117  0.9574
   4  -5  -4  7.6478  1.8925
  -4   5   4  5.8016  1.9307
   4  -5  -4  8.0949  5.6396
   4  -5  -4  12.990   5.267
   3  -5  -4  679.15   29.86
   3  -5  -4  677.37   29.21
   3  -5  -4  641.04   17.52
  -3   5   4  656.46   33.43
  -3   5   4  653.08   48.41
  -3   5   4  667.83   25.65
   3  -5  -4  732.39   36.21
   3  -5  -4  694.44   43.91
  -3   5   4  691.99   28.29
   2  -5  -4  18.281   1.265
   2  -5  -4  19.691   1.161
   2  -5  -4  21.224   1.473
  -2   5   4  18.817   1.586
  -2   5   4  19.462   1.502
  -2   5   4  19.419   1.270
  -2   5   4  19.169   1.880
   2  -5  -4  17.738   2.947
   2  -5  -4  21.574   3.226
  -2   5   4  10.828   3.440
   1  -5  -4  48.891   2.099
   1  -5  -4  49.403   2.528
   1  -5  -4  50.582   2.188
  -1   5   4  48.234   1.581
  -1   5   4  46.738   2.507
  -1   5   4  48.320   2.657
  -1   5   4  50.043   2.261
   1  -5  -4  41.907   3.209
   1  -5  -4  47.575   3.035
  -1   5   4  38.757   3.766
   0  -5  -4  191.48    6.77
   0  -5  -4  180.27    3.92
   0  -5  -4  182.58    4.54
   0   5   4  182.75    5.50
   0   5   4  182.38   10.54
   0   5   4  173.44    4.92
   0   5   4  179.49   12.44
   0   5   4  181.55    5.99
   0   5   4  175.85    8.93
   0   5   4  179.65    8.80
   0   5   4  178.52    5.98
   0  -5  -4  185.51    9.28
   0  -5  -4  177.11   10.04
   0   5   4  186.72   10.91
   0   5   4  170.71    8.63
  -1  -5  -4  455.73   25.85
  -1  -5  -4  415.42    9.67
   1   5   4  424.54   12.07
   1   5   4  448.63    9.65
   1   5   4  442.14   28.02
   1   5   4  449.47   28.96
   1   5   4  467.70   13.49
   1   5   4  444.73   12.43
  -1  -5  -4  449.48   29.45
  -1  -5  -4  462.78   28.35
   1   5   4  414.72   29.14
   1   5   4  460.84   27.13
  -2  -5  -4  0.5825  0.5720
  -2  -5  -4  1.1789  0.5500
  -2  -5  -4  0.7791  0.8545
  -2  -5  -4  0.8459  0.3971
   2   5   4  1.2442  0.5000
   2   5   4 -0.0647  0.3599
   2   5   4  0.2469  0.9050
   2   5   4  0.8153  0.7626
  -2  -5  -4  -2.437   1.988
  -2  -5  -4 -0.7899  2.1747
   2   5   4  -2.002   2.470
  -3  -5  -4  10.200   1.136
  -3  -5  -4  10.620   1.269
  -3  -5  -4  10.490   1.577
   3   5   4  8.3513  1.5847
   3   5   4  13.136   1.677
   3   5   4  11.532   0.926
  -3  -5  -4  9.0183  3.9178
  -3  -5  -4  4.5681  3.9546
   3   5   4  5.9471  4.7962
  -4  -5  -4  407.40   36.54
  -4  -5  -4  398.51   21.18
   4   5   4  396.06   12.71
   4   5   4  397.03   15.77
  -4  -5  -4  430.17   21.60
  -4  -5  -4  456.79   26.56
   4   5   4  409.39   25.29
  -5  -5  -4  153.24    8.75
  -5  -5  -4  150.67    8.68
  -5  -5  -4  150.20    7.69
   5   5   4  155.49    6.56
   5   5   4  169.56    6.64
  -5  -5  -4  166.72   16.24
  -6  -5  -4  124.02    7.65
  -6  -5  -4  135.74    6.31
  -6  -5  -4  137.27   10.02
   6   5   4  144.66    7.59
   6   5   4  145.75    8.55
  -6  -5  -4  114.15   13.66
  -7  -5  -4  382.44   32.66
  -7  -5  -4  385.34   22.57
   7   5   4  403.42   30.35
   7   5   4  383.75   26.72
  -7  -5  -4  455.80   41.80
   6  -6  -4  48.886   4.825
  -6   6   4  50.226   5.012
  -6   6   4  44.859   4.165
   6  -6  -4  29.163  13.357
   5  -6  -4  8.8397  2.1018
  -5   6   4  9.1600  2.3099
  -5   6   4  8.8641  1.6560
   5  -6  -4  4.4422  4.9914
   4  -6  -4  168.50    6.99
  -4   6   4  178.73    8.75
   4  -6  -4  191.01   12.00
   3  -6  -4  0.5386  0.8425
   3  -6  -4  0.0554  1.5238
  -3   6   4  0.1567  0.6531
  -3   6   4  0.8859  1.2262
   3  -6  -4  2.7929  4.6385
   3  -6  -4  5.3612  3.2897
   2  -6  -4  357.53   10.37
   2  -6  -4  371.69   14.78
  -2   6   4  354.14   10.55
  -2   6   4  349.05   22.81
  -2   6   4  362.42   21.66
  -2   6   4  357.99   16.66
   2  -6  -4  402.85   26.51
   2  -6  -4  370.10   24.39
  -2   6   4  388.73   25.29
   1  -6  -4  514.52   17.70
   1  -6  -4  510.50   14.26
  -1   6   4  513.26   25.28
  -1   6   4  502.50   21.97
  -1   6   4  484.97   21.69
  -1   6   4  485.76   21.44
   0  -6  -4  256.63    5.18
   0  -6  -4  265.66    7.51
   0   6   4  248.38    9.58
   0   6   4  257.62   15.88
   0   6   4  247.75    6.43
   0   6   4  260.04   16.28
   0   6   4  253.03    8.58
   0   6   4  260.27   11.50
   0   6   4  267.02   11.95
  -1  -6  -4 1463.17   44.12
  -1  -6  -4 1478.32   55.78
   1   6   4 1438.99   42.47
   1   6   4 1433.94   79.97
  -1  -6  -4 1489.95  125.18
  -1  -6  -4 1509.71  109.63
  -2  -6  -4  740.26   32.47
  -2  -6  -4  689.37   31.86
  -2  -6  -4  711.49   45.14
   2   6   4  704.90   19.89
   2   6   4  711.27   30.20
   2   6   4  689.28   27.11
   2   6   4  695.35   32.36
  -2  -6  -4  793.25   52.22
   2   6   4  791.12   48.70
  -3  -6  -4  64.301   3.200
  -3  -6  -4  56.085   3.061
  -3  -6  -4  62.616   3.234
   3   6   4  65.912   2.566
   3   6   4  69.846   4.271
  -3  -6  -4  68.499   6.650
   3   6   4  58.865   7.715
  -4  -6  -4  304.23   12.51
  -4  -6  -4  297.72   11.69
   4   6   4  309.85   14.24
   4   6   4  339.37   19.15
  -4  -6  -4  309.17   25.31
  -5  -6  -4  38.457   2.778
  -5  -6  -4  40.694   2.620
   5   6   4  43.413   2.741
   5   6   4  41.354   2.791
  -5  -6  -4  24.298   7.863
  -6  -6  -4  -2.597   1.276
  -6  -6  -4 -0.0726  1.6342
   6   6   4  1.4763  1.9119
   6   6   4 -0.1541  1.3172
  -6  -6  -4   6.129  10.386
  -7  -6  -4  12.416   3.145
  -7  -6  -4  11.828   2.759
   7   6   4  9.7142  2.3646
   7   6   4  11.948   1.920
  -7  -6  -4   5.318  10.175
   5  -7  -4  3.9522  1.8454
  -5   7   4  7.0851  2.6846
   5  -7  -4  2.9934  7.3402
   4  -7  -4  7.7452  1.6549
  -4   7   4  9.6152  2.4664
   4  -7  -4  9.5098  4.8189
   3  -7  -4  8.9761  1.4100
   3  -7  -4  8.1836  1.6251
  -3   7   4  6.0502  1.4157
   3  -7  -4  4.4733  2.9347
   3  -7  -4  6.6534  3.9437
   2  -7  -4  676.54   32.39
   2  -7  -4  641.09   20.84
  -2   7   4  634.07   21.33
  -2   7   4  633.01   49.49
   2  -7  -4  675.64   23.23
   2  -7  -4  684.73   37.18
   1  -7  -4  32.288   1.869
   1  -7  -4  38.352   2.340
  -1   7   4  31.142   1.949
  -1   7   4  37.944   2.531
  -1   7   4  31.466   1.946
   0  -7  -4  31.108   2.157
   0  -7  -4  34.770   2.229
   0   7   4  33.719   1.966
   0   7   4  31.024   1.404
   0   7   4  30.669   1.558
  -1  -7  -4  188.40    7.73
  -1  -7  -4  194.55    6.63
   1   7   4  183.73   12.24
   1   7   4  178.40   13.76
   1   7   4  178.71    9.39
   1   7   4  181.11    7.14
  -2  -7  -4  227.08   11.77
  -2  -7  -4  233.47    9.78
   2   7   4  232.58    9.19
   2   7   4  224.47    9.23
  -2  -7  -4  252.14   19.83
  -2  -7  -4  236.63   16.03
  -3  -7  -4 -0.5890  1.2919
  -3  -7  -4  -1.792   1.270
   3   7   4 -0.4473  1.5600
   3   7   4  0.0266  0.5096
  -3  -7  -4 -0.3385  2.8820
  -3  -7  -4  1.2919  3.0299
  -4  -7  -4  67.258   4.307
  -4  -7  -4  73.640   4.460
   4   7   4  68.457   5.109
   4   7   4  64.952   2.468
  -4  -7  -4  60.517   8.249
  -5  -7  -4  31.719   2.817
  -5  -7  -4  33.246   2.787
   5   7   4  32.630   2.611
   5   7   4  34.216   3.041
  -5  -7  -4  24.503   7.452
  -6  -7  -4  45.026   3.853
  -6  -7  -4  47.573   3.505
   6   7   4  44.538   4.175
   6   7   4  51.217   5.051
  -6  -7  -4  44.563  11.835
   4  -8  -4 -0.6167  1.6589
  -4   8   4  1.8237  1.7146
   4  -8  -4  3.0683  4.2602
   3  -8  -4  158.86    8.53
  -3   8   4  167.15    8.76
   3  -8  -4  202.29   12.64
   3  -8  -4  203.03   13.22
   2  -8  -4  248.02    9.32
   2  -8  -4  270.27   18.81
  -2   8   4  259.14   13.51
  -2   8   4  252.04   12.87
  -2   8   4  256.91   14.57
   1  -8  -4  1.5047  1.2608
   1  -8  -4  4.7057  1.2711
  -1   8   4  3.7916  1.2986
  -1   8   4  4.1248  0.9359
  -1   8   4  3.5559  1.5615
   0  -8  -4  105.47    4.98
   0  -8  -4  103.60    4.16
   0   8   4  95.843   4.001
   0   8   4  96.859   4.774
   0   8   4  95.075   3.085
  -1  -8  -4  3.7540  1.4327
   1   8   4  3.0534  1.0452
   1   8   4  2.4329  1.1223
   1   8   4  2.9464  1.0215
  -2  -8  -4  60.402   3.621
   2   8   4  61.224   3.509
   2   8   4  60.285   5.204
  -2  -8  -4  67.013   5.495
  -2  -8  -4  63.670   6.350
  -3  -8  -4  11.427   2.213
  -3  -8  -4  14.429   1.756
   3   8   4  11.223   1.465
  -3  -8  -4  15.337   4.821
  -3  -8  -4  12.011   3.818
  -4  -8  -4  2.8727  1.7699
  -4  -8  -4  1.8586  1.4809
   4   8   4  3.4174  1.2388
   4   8   4  4.9136  1.8652
  -4  -8  -4  7.5163  5.4076
  -5  -8  -4  -1.137   2.580
  -5  -8  -4  3.1565  2.1897
   5   8   4  4.1619  2.4844
  -5  -8  -4  -4.247   7.200
  -6  -8  -4  78.109   6.579
  -6  -8  -4  78.157   6.474
   6   8   4  76.710   6.392
  -6  -8  -4  77.629  16.081
   3  -9  -4 -0.3333  2.1052
  -3   9   4  0.2055  2.3189
   2  -9  -4  226.85   18.07
   2  -9  -4  228.74   10.53
  -2   9   4  231.37   14.13
  -2   9   4  226.18   12.06
   1  -9  -4  0.9172  1.6169
  -1   9   4  1.9076  1.1751
  -1   9   4  3.5276  1.5735
  -1   9   4  3.1246  1.1876
   0   9   4  134.79    4.71
   0   9   4  133.83    8.85
   0   9   4  131.24    5.65
  -1  -9  -4  18.192   2.288
   1   9   4  15.313   2.607
   1   9   4  21.292   2.424
   1   9   4  18.339   2.048
  -2  -9  -4  4.1929  1.3876
   2   9   4  3.0783  1.5299
   2   9   4  1.5722  1.1322
   2   9   4  1.2599  1.3840
  -3  -9  -4  6.3276  1.5199
  -3  -9  -4  2.2881  1.5824
   3   9   4  1.6325  1.5040
   3   9   4  3.4086  2.3533
  -3  -9  -4  1.4704  2.9421
  -3  -9  -4  8.8666  3.5995
  -4  -9  -4  59.486   4.816
  -4  -9  -4  61.048   4.826
   4   9   4  62.677   4.962
   4   9   4  75.163   6.515
  -4  -9  -4  68.109   7.178
  -5  -9  -4  0.9903  1.9378
  -5  -9  -4  0.2524  1.9584
   5   9   4  3.9833  2.2111
  -5  -9  -4  -3.340   7.655
  -2  10   4  6.7985  1.9918
  -2  10   4  6.0773  2.9158
  -1  10   4  36.658   2.744
  -1  10   4  41.969   3.884
   0  10   4  0.6853  1.9773
   0  10   4  0.8785  1.7671
   0  10   4  1.1981  1.7551
  -1 -10  -4  173.49   11.03
   1  10   4  180.05   14.84
   1  10   4  174.70    6.88
   1  10   4  161.92   11.08
  -2 -10  -4  206.73   10.76
   2  10   4  221.85   12.36
   2  10   4  192.95   13.32
  -3 -10  -4  41.777   3.718
   3  10   4  48.132   5.047
  -4 -10  -4  0.6629  2.4021
  -4 -10  -4  5.3796  1.9178
   4  10   4  3.8744  2.5054
  -4 -10  -4  9.9766  5.1415
   3   9  -5  24.719   3.216
  -3  -9   5  34.485  10.772
   2   9  -5  93.737   7.430
  -2  -9   5  97.791   9.892
  -2  -9   5  111.43   10.51
   1   9  -5  25.500   2.304
  -1  -9   5  25.005   3.450
  -1  -9   5  26.684   6.386
   0   9  -5  20.493   2.867
   0  -9   5  25.517   4.115
   0  -9   5  23.120   5.184
   0  -9   5  23.061   4.788
  -1   9  -5  22.035   2.761
   1  -9   5  16.951   2.602
   1  -9   5  22.688   4.777
   1  -9   5  24.814   5.202
  -2   9  -5  -2.172   1.759
   2  -9   5  -2.961   2.047
   2  -9   5 -0.7924  2.0046
   2  -9   5 -0.4584  4.9147
   5   8  -5  9.5558  1.9295
  -5  -8   5  9.2003  2.4512
  -5  -8   5  7.2942  2.1355
  -5  -8   5  -3.918  13.244
   4   8  -5  364.00   15.72
  -4  -8   5  333.21   18.11
  -4  -8   5  330.00   16.95
  -4  -8   5  345.99   31.25
   3   8  -5 -0.6895  1.6744
  -3  -8   5  1.0812  1.0388
  -3  -8   5  0.6202  1.1198
  -3  -8   5  4.3939  8.1545
   2   8  -5  113.46    7.04
  -2  -8   5  96.140  10.975
  -2  -8   5  110.95    7.69
  -2  -8   5  100.72    8.92
  -2  -8   5  119.57   12.52
   1   8  -5  -1.165   1.780
  -1  -8   5  0.1119  1.5269
  -1  -8   5  -2.881   4.670
  -1  -8   5  0.4524  6.0897
   0   8  -5  16.217   2.120
   0  -8   5  12.899   3.090
   0  -8   5  27.340   5.414
   0  -8   5  19.335   5.861
  -1   8  -5  137.09    7.53
   1  -8   5  129.72    8.08
   1  -8   5  149.73   10.59
   1  -8   5  151.40   11.93
  -2   8  -5  17.720   2.519
  -2   8  -5  15.741   2.123
   2  -8   5  16.795   2.234
   2  -8   5  21.094   3.042
   2  -8   5  16.329   5.270
  -3   8  -5  10.035   1.860
  -3   8  -5  13.128   2.097
   3  -8   5  10.118   2.661
   3  -8   5  11.490   2.674
   3  -8   5  4.1770  5.8680
   5   7  -5  33.485   2.815
  -5  -7   5  29.098   3.904
  -5  -7   5  30.163   3.213
  -5  -7   5  35.487  13.015
   4   7  -5  18.822   2.477
  -4  -7   5  20.846   2.319
  -4  -7   5  22.460   2.299
  -4  -7   5  23.140  10.572
   3   7  -5  108.80    7.51
   3   7  -5  127.58    6.01
  -3  -7   5  120.50    5.50
  -3  -7   5  117.40    5.43
  -3  -7   5  131.33   14.64
   2   7  -5  10.624   1.515
  -2  -7   5  10.227   2.313
  -2  -7   5  8.5980  1.1597
  -2  -7   5  8.8905  1.3854
  -2  -7   5  6.2043  5.4009
  -2  -7   5  5.9297  4.1370
   1   7  -5  5.6122  1.2849
  -1  -7   5  6.9547  1.2049
  -1  -7   5  6.5995  2.1763
  -1  -7   5  6.8072  1.2164
  -1  -7   5  4.7546  4.7954
  -1  -7   5  10.877   4.799
   0   7  -5  47.177   2.582
   0   7  -5  50.403   2.771
   0  -7   5  47.414   2.999
   0  -7   5  43.861   3.863
   0  -7   5  31.660   5.430
   0  -7   5  48.623   5.857
  -1   7  -5  95.932   5.486
  -1   7  -5  91.711   3.987
   1  -7   5  85.702   4.152
   1  -7   5  89.996   6.348
   1  -7   5  94.995  10.061
   1  -7   5  97.945   8.016
  -2   7  -5  535.90   20.04
  -2   7  -5  533.89   33.39
   2  -7   5  553.85   31.89
   2  -7   5  533.93   27.20
   2  -7   5  578.27   47.40
   2  -7   5  604.59   43.75
  -3   7  -5  261.40   12.54
  -3   7  -5  262.41   13.73
   3  -7   5  269.61   13.36
   3  -7   5  256.44    8.62
   3  -7   5  256.11   17.86
  -4   7  -5  0.8594  2.0485
  -4   7  -5  0.8881  1.4377
   4  -7   5  1.9384  1.9010
   4  -7   5 -0.1205  1.4717
   4  -7   5  10.284   7.681
   6   6  -5  49.052   4.294
  -6  -6   5  37.020   4.101
  -6  -6   5  40.093   3.739
  -6  -6   5  59.982  15.689
   5   6  -5  83.029   5.051
  -5  -6   5  72.813   5.053
  -5  -6   5  76.593   4.998
  -5  -6   5  73.299  15.117
   4   6  -5  51.043   3.447
  -4  -6   5  53.275   3.453
  -4  -6   5  48.603   3.496
  -4  -6   5  61.061  10.866
   3   6  -5  734.07   47.81
   3   6  -5  700.05   39.18
  -3  -6   5  699.61   38.55
  -3  -6   5  697.85   26.41
  -3  -6   5  891.44   59.86
   2   6  -5  263.83    9.27
  -2  -6   5  274.01   20.45
  -2  -6   5  259.57   14.62
  -2  -6   5  261.74   14.56
  -2  -6   5  297.52   22.68
  -2  -6   5  254.46   17.34
   1   6  -5  1.4398  0.4860
   1   6  -5  0.1025  1.2916
   1   6  -5  1.3465  1.0283
  -1  -6   5  2.0719  0.5724
  -1  -6   5  3.0796  1.3726
  -1  -6   5  1.8747  0.6439
  -1  -6   5 -0.4983  4.0589
  -1  -6   5  4.3359  3.6499
   0   6  -5  105.54    5.47
   0   6  -5  106.65    4.44
   0  -6   5  103.70    5.26
   0  -6   5  113.60    7.16
   0  -6   5  94.547   4.304
   0   6  -5  91.717  10.914
   0  -6   5  115.95    8.33
   0  -6   5  108.97    9.35
  -1   6  -5 -0.0438  0.7080
  -1   6  -5  2.2782  1.3699
   1  -6   5  0.9827  0.9870
   1  -6   5  0.4294  1.2212
   1  -6   5 -0.8628  3.3654
   1  -6   5  -2.839   3.649
  -2   6  -5  9.5796  1.6410
  -2   6  -5  10.321   1.455
   2  -6   5  11.169   1.704
   2  -6   5  11.393   1.935
   2  -6   5  13.192   4.217
   2  -6   5  10.107   4.597
  -3   6  -5  69.939   3.753
  -3   6  -5  67.355   4.628
   3  -6   5  64.671   3.117
   3  -6   5  69.741   3.449
   3  -6   5  69.749   7.187
  -4   6  -5  14.572   2.541
   4  -6   5  17.548   2.689
   4  -6   5  15.793   2.509
   4  -6   5  11.685   5.359
  -5   6  -5  287.74   17.61
   5  -6   5  307.83   18.32
   5  -6   5  310.55   20.32
   5  -6   5  354.69   22.25
   6   5  -5  122.62   10.55
  -6  -5   5  122.38    7.75
  -6  -5   5  108.00    6.87
  -6  -5   5  109.82   21.40
   5   5  -5  83.914   5.432
  -5  -5   5  86.826   4.727
  -5  -5   5  85.746   5.034
  -5  -5   5  69.725  13.716
   4   5  -5  3.2612  1.1495
   4   5  -5  2.3907  0.6242
  -4  -5   5  5.1694  1.6150
  -4  -5   5  2.7375  1.3759
  -4  -5   5  -1.746   7.806
   3   5  -5  170.65    7.57
   3   5  -5  180.21    6.56
  -3  -5   5  181.32    6.38
  -3  -5   5  178.27    9.81
  -3  -5   5  200.31   15.32
  -3  -5   5  185.78   15.68
   2   5  -5  544.90   27.20
   2   5  -5  542.84   17.61
  -2  -5   5  486.34   19.80
  -2  -5   5  533.89   29.77
  -2  -5   5  552.85   25.75
   2   5  -5  604.97   36.64
  -2  -5   5  596.52   34.56
  -2  -5   5  555.85   29.64
   1   5  -5  6.7506  1.0601
   1   5  -5  7.9400  1.1026
   1   5  -5  7.6512  0.5124
  -1  -5   5  7.4810  1.4672
  -1  -5   5  8.8957  0.9337
  -1  -5   5  8.3524  0.7579
   1   5  -5  1.2092  2.7983
  -1  -5   5  10.005   3.794
  -1  -5   5  3.9910  2.5200
   0   5  -5  826.25   52.64
   0   5  -5  792.00   53.45
   0  -5   5  821.63   34.45
   0  -5   5  830.42   51.92
   0  -5   5  791.53   38.16
   0  -5   5  811.85   61.91
   0   5  -5  886.68   45.23
   0  -5   5  886.64   46.93
   0  -5   5  894.09   41.58
  -1   5  -5  998.46   30.50
  -1   5  -5 1040.70   47.18
   1  -5   5  999.93   27.78
   1  -5   5  956.87   29.10
  -1   5  -5 1021.35   51.69
   1  -5   5 1065.71   48.81
   1  -5   5  950.36   78.92
  -2   5  -5  315.97    9.74
  -2   5  -5  305.26   13.42
  -2   5  -5  286.45   26.62
  -2   5  -5  309.89    9.46
  -2   5  -5  321.15   12.72
  -2   5  -5  316.88   11.64
   2  -5   5  315.35   10.27
   2  -5   5  313.48   12.97
  -2   5  -5  282.90   25.18
   2  -5   5  323.76   26.79
   2  -5   5  369.16   22.50
  -3   5  -5  0.8235  1.1749
   3  -5   5 -0.2567  0.9027
   3  -5   5  -1.730   1.278
   3  -5   5  3.1421  3.9482
   3  -5   5 -0.7170  5.9743
  -4   5  -5  174.43    8.77
   4  -5   5  174.06    7.33
   4  -5   5  172.94    7.44
   4  -5   5  199.09   13.35
  -5   5  -5  35.069   3.455
   5  -5   5  38.709   3.312
   5  -5   5  37.802   2.890
   5  -5   5  28.443   7.611
  -6   5  -5  47.238   4.330
   6  -5   5  56.302   4.758
   6  -5   5  50.413   4.868
   6  -5   5  51.522  11.643
   7   4  -5  75.353   4.641
  -7  -4   5  70.689   5.201
  -7  -4   5  65.397   5.001
  -7  -4   5  57.906  20.461
   6   4  -5  31.914   3.442
  -6  -4   5  36.851   3.343
  -6  -4   5  26.343  13.624
   5   4  -5  43.550   3.208
   5   4  -5  41.463   3.477
   5   4  -5  45.663   2.653
  -5  -4   5  40.935   4.678
  -5  -4   5  27.202  10.452
   4   4  -5  42.035   2.884
   4   4  -5  38.644   2.359
  -4  -4   5  40.740   3.203
  -4  -4   5  37.688   6.472
  -4  -4   5  41.473   8.319
   3   4  -5  21.638   1.615
   3   4  -5  15.858   1.058
  -3  -4   5  23.841   1.713
   3   4  -5  10.578   5.296
  -3  -4   5  12.654   5.383
  -3  -4   5  14.231   6.344
   2   4  -5  44.763   2.232
   2   4  -5  40.295   1.923
   2   4  -5  38.081   2.295
  -2  -4   5  42.748   2.092
  -2  -4   5  38.049   3.445
  -2  -4   5  41.811   2.828
   2   4  -5  36.427   5.028
  -2  -4   5  43.204   5.323
  -2  -4   5  31.388   4.685
   1   4  -5  48.899   2.416
   1   4  -5  38.980   3.301
   1   4  -5  42.359   2.441
  -1  -4   5  38.360   2.433
  -1  -4   5  44.086   2.364
  -1  -4   5  42.767   2.633
   1   4  -5  33.108   4.838
  -1  -4   5  34.356   5.192
  -1  -4   5  41.891   5.263
   0   4  -5  1.2725  0.7225
   0   4  -5 -0.5575  0.9373
   0   4  -5  1.1747  0.5623
   0   4  -5  1.4272  0.4585
   0  -4   5  1.9648  0.6184
   0  -4   5  1.2018  0.3513
   0  -4   5  1.3967  1.0266
   0  -4   5  1.4735  0.7322
   0  -4   5  1.3954  0.3000
   0   4  -5  1.3574  2.8365
   0  -4   5  0.4556  1.7785
   0  -4   5  0.1351  2.6756
  -1   4  -5  33.251   2.650
  -1   4  -5  37.107   1.730
  -1   4  -5  34.220   2.356
   1  -4   5  37.056   1.502
   1  -4   5  36.929   1.770
   1  -4   5  36.071   1.752
  -1   4  -5  28.987   4.625
   1  -4   5  33.287   4.589
   1  -4   5  34.419   4.449
  -2   4  -5  2.4515  0.1667
  -2   4  -5  5.1020  1.0877
  -2   4  -5  2.4140  0.1740
  -2   4  -5  2.7359  0.1721
   2  -4   5  4.5293  1.0101
  -2   4  -5  0.9507  2.8160
   2  -4   5  3.6582  2.2124
   2  -4   5  6.3753  4.6688
  -3   4  -5  36.777   2.541
  -3   4  -5  42.625   2.212
  -3   4  -5  37.010   2.439
  -3   4  -5  40.198   2.076
   3  -4   5  38.364   1.931
   3  -4   5  40.450   2.297
  -3   4  -5  28.239   6.913
   3  -4   5  46.576   6.847
   3  -4   5  40.439   6.319
  -4   4  -5  8.1947  1.9430
  -4   4  -5  5.5563  0.8918
   4  -4   5  6.1305  1.1084
   4  -4   5  7.0360  1.3131
   4  -4   5  7.2599  4.8997
  -5   4  -5  8.7201  2.0300
   5  -4   5  5.8902  1.5233
   5  -4   5  6.0236  1.3616
   5  -4   5  2.8310  8.2056
  -6   4  -5  4.0066  2.9909
   6  -4   5  7.5123  2.2983
   6  -4   5  3.8306  1.5793
   6  -4   5   3.034  10.293
   7   3  -5  7.7578  2.7115
  -7  -3   5  10.423   3.337
   6   3  -5  51.825   4.183
  -6  -3   5  47.201   3.826
  -6  -3   5  47.473  14.220
   5   3  -5  21.208   1.444
   5   3  -5  19.435   1.977
   5   3  -5  19.961   1.622
  -5  -3   5  22.264   2.594
  -5  -3   5  24.130   1.463
  -5  -3   5  25.912   9.085
   4   3  -5  11.353   1.067
   4   3  -5  9.2236  1.0814
   4   3  -5  9.8603  1.3806
  -4  -3   5  10.209   1.698
  -4  -3   5  11.103   0.956
  -4  -3   5  15.823   6.515
  -4  -3   5  5.5720  6.8636
   3   3  -5  4.4987  0.6931
  -3  -3   5  3.9650  1.0009
  -3  -3   5  5.4574  0.3846
   3   3  -5  0.5312  3.3055
  -3  -3   5  9.6859  3.7046
  -3  -3   5  1.0476  5.7538
   2   3  -5  82.497   4.406
   2   3  -5  87.403   3.654
   2   3  -5  93.476   8.195
   2   3  -5  93.487   8.745
   2   3  -5  89.601   3.283
  -2  -3   5  93.444   6.981
  -2  -3   5  94.822   4.098
   2   3  -5  87.649   6.260
   2   3  -5  73.527   6.857
  -2  -3   5  84.597   7.889
  -2  -3   5  94.756   6.733
   1   3  -5  146.05    7.04
   1   3  -5  141.85    4.60
   1   3  -5  134.15    6.78
   1   3  -5  133.06    7.45
   1   3  -5  143.64    5.19
  -1  -3   5  144.57    7.07
  -1  -3   5  151.18    8.50
  -1  -3   5  130.41    6.70
  -1  -3   5  149.94    7.84
  -1  -3   5  126.13    5.11
   1   3  -5  138.24   12.50
   1   3  -5  162.23   11.09
  -1  -3   5  149.88   12.48
   0   3  -5  819.84   33.50
   0   3  -5  891.90   48.82
   0   3  -5  809.59   28.43
   0   3  -5  886.39   71.75
   0   3  -5  809.68   26.73
   0  -3   5  754.06   43.55
   0  -3   5  785.33   46.99
   0  -3   5  832.69   47.87
   0  -3   5  802.92   39.06
   0  -3   5  806.85   25.36
   0  -3   5  802.51   44.60
   0   3  -5  774.84   57.33
   0   3  -5  867.72   50.28
   0  -3   5  824.74   48.73
   0  -3   5  827.62   48.70
  -1   3  -5  0.6991  0.8626
  -1   3  -5  1.1629  0.8508
  -1   3  -5  0.0132  0.5310
  -1   3  -5  0.7585  0.6991
  -1   3  -5 -0.4924  0.5914
   1  -3   5  1.4619  0.6239
   1  -3   5 -0.3434  0.8203
   1  -3   5  1.0539  0.5570
  -1   3  -5  1.9279  2.4706
  -1   3  -5 -0.2703  2.3566
   1  -3   5  -2.549   2.537
   1  -3   5  0.6954  1.8287
  -2   3  -5  537.92   16.91
  -2   3  -5  534.24   43.71
  -2   3  -5  543.90   22.71
  -2   3  -5  544.49   26.37
  -2   3  -5  450.31   22.57
  -2   3  -5  443.09   24.34
   2  -3   5  523.87   16.05
   2  -3   5  524.88   28.67
   2  -3   5  492.33   17.07
  -2   3  -5  543.58   38.31
   2  -3   5  585.86   30.14
   2  -3   5  602.39   27.23
  -3   3  -5  211.35    7.56
  -3   3  -5  209.64   12.64
  -3   3  -5  203.92   11.37
   3  -3   5  194.24    6.14
   3  -3   5  192.19    7.36
  -3   3  -5  192.37   16.80
   3  -3   5  211.54   10.90
  -4   3  -5  372.24   23.40
  -4   3  -5  390.83   14.54
   4  -3   5  374.37   15.75
   4  -3   5  373.14   13.37
   4  -3   5  421.06   23.36
   4  -3   5  432.75   25.63
  -5   3  -5  134.57   12.31
  -5   3  -5  150.84    7.41
   5  -3   5  151.20    7.44
   5  -3   5  160.89    6.18
   5  -3   5  123.59   11.69
  -6   3  -5  78.493   5.363
   6  -3   5  87.307   6.125
   6  -3   5  84.466   5.912
   6  -3   5  86.795  13.681
  -7   3  -5  66.348   6.342
   7  -3   5  74.215   5.043
   7  -3   5  72.001   5.466
   7  -3   5  63.859  16.279
   7   2  -5  75.854   4.993
  -7  -2   5  77.028   4.634
   6   2  -5  50.086   3.322
   6   2  -5  50.870   3.094
   6   2  -5  50.264   4.358
  -6  -2   5  49.180   5.006
  -6  -2   5  53.970   3.053
  -6  -2   5  44.424  12.642
   5   2  -5  180.17    5.60
   5   2  -5  169.10    6.50
   5   2  -5  173.79    7.62
  -5  -2   5  179.00   16.31
  -5  -2   5  177.33    6.74
   5   2  -5  170.93   14.39
  -5  -2   5  156.33   14.65
   4   2  -5  30.195   1.757
   4   2  -5  27.796   1.696
   4   2  -5  28.198   1.948
   4   2  -5  30.266   1.491
  -4  -2   5  28.663   2.374
  -4  -2   5  26.994   1.571
  -4  -2   5  28.409   2.060
   4   2  -5  33.380   8.367
  -4  -2   5  20.901   6.394
  -4  -2   5  33.392   8.271
   3   2  -5  288.77    9.84
   3   2  -5  301.14   26.56
   3   2  -5  293.42   25.39
   3   2  -5  267.88    9.86
  -3  -2   5  292.88   16.32
  -3  -2   5  292.54   23.91
  -3  -2   5  278.27   17.63
   3   2  -5  291.34   22.45
   3   2  -5  288.29   14.38
  -3  -2   5  273.47   13.41
  -3  -2   5  285.74   19.86
   2   2  -5  13.074   1.542
   2   2  -5  13.313   1.110
   2   2  -5  13.468   1.278
   2   2  -5  14.471   1.055
   2   2  -5  13.267   1.310
  -2  -2   5  15.853   1.314
  -2  -2   5  14.108   1.277
  -2  -2   5  13.525   0.953
  -2  -2   5  16.213   1.070
   2   2  -5  14.311   2.774
   2   2  -5  10.126   4.706
  -2  -2   5  11.654   3.596
  -2  -2   5  14.852   4.368
   1   2  -5 1005.45   48.07
   1   2  -5  985.40   35.23
   1   2  -5  979.84   48.15
   1   2  -5 1088.94   72.35
   1   2  -5 1068.37   65.04
  -1  -2   5 1002.64   25.26
  -1  -2   5 1012.10   58.55
  -1  -2   5 1010.00   43.43
  -1  -2   5 1019.98   42.85
   1   2  -5 1082.36   79.68
   1   2  -5 1107.45   43.46
  -1  -2   5  902.34   65.00
  -1  -2   5 1072.18   61.46
   0   2  -5  16.754   1.001
   0   2  -5  15.794   1.623
   0   2  -5  17.600   1.168
   0   2  -5  16.936   1.377
   0   2  -5  15.661   0.959
   0  -2   5  18.937   1.663
   0  -2   5  14.808   0.823
   0  -2   5  16.135   0.969
   0  -2   5  19.905   0.903
   0  -2   5  17.763   1.171
   0   2  -5  12.596   2.876
   0   2  -5  14.353   3.396
   0  -2   5  16.323   3.003
   0  -2   5  13.307   2.694
  -1   2  -5  30.989   1.462
  -1   2  -5  36.483   2.097
  -1   2  -5  37.372   1.971
  -1   2  -5  33.311   1.636
   1  -2   5  34.630   2.275
   1  -2   5  36.164   1.792
   1  -2   5  34.366   1.729
   1  -2   5  34.072   1.794
  -1   2  -5  33.539   4.663
  -1   2  -5  34.669   3.955
   1  -2   5  37.077   4.012
   1  -2   5  35.311   4.244
  -2   2  -5  20.006   1.194
  -2   2  -5  21.003   1.728
  -2   2  -5  18.431   1.550
  -2   2  -5  19.765   1.298
  -2   2  -5  22.057   1.368
   2  -2   5  20.311   1.456
   2  -2   5  20.786   1.051
   2  -2   5  19.527   1.220
   2  -2   5  19.356   1.085
  -2   2  -5  22.532   4.406
  -2   2  -5  18.378   3.258
   2  -2   5  16.818   2.952
   2  -2   5  12.250   4.149
  -3   2  -5  173.13    9.69
  -3   2  -5  170.82   13.14
  -3   2  -5  175.48   14.49
  -3   2  -5  171.72    6.77
   3  -2   5  153.97    5.10
   3  -2   5  163.09    9.25
   3  -2   5  161.95    4.20
  -3   2  -5  149.02    8.76
   3  -2   5  176.62   10.50
   3  -2   5  144.20   11.38
  -4   2  -5  10.924   1.089
  -4   2  -5  13.927   1.968
  -4   2  -5  13.328   0.893
   4  -2   5  13.564   1.046
   4  -2   5  11.015   1.272
  -4   2  -5  8.8766  4.7533
   4  -2   5  8.8861  4.6512
   4  -2   5  9.6622  6.5466
  -5   2  -5  23.618   2.000
  -5   2  -5  23.803   2.299
   5  -2   5  22.737   1.605
   5  -2   5  15.660   6.033
  -6   2  -5  76.462   7.451
  -6   2  -5  89.950   6.911
  -6   2  -5  79.672   5.327
   6  -2   5  91.937   5.393
   6  -2   5  92.830  14.167
  -7   2  -5  29.030   3.288
   7  -2   5  35.382   3.413
   7  -2   5  21.078  13.843
   7   1  -5  11.360   1.882
  -7  -1   5  8.8064  2.1822
  -7  -1   5  15.574   2.474
   6   1  -5  142.85    9.80
   6   1  -5  150.13    7.11
   6   1  -5  145.79    6.48
  -6  -1   5  144.01   10.29
  -6  -1   5  144.98    7.61
   6   1  -5  130.88   15.54
  -6  -1   5  106.03   12.69
   5   1  -5  8.9378  1.1836
   5   1  -5  8.3670  1.4379
   5   1  -5  8.6876  1.3791
  -5  -1   5  7.2819  1.2511
  -5  -1   5  7.1229  1.3690
   5   1  -5  3.8969  6.9850
  -5  -1   5  11.781   9.388
   4   1  -5  145.78    8.75
   4   1  -5  138.00    6.35
   4   1  -5  147.17    9.88
   4   1  -5  133.71    7.02
   4   1  -5  138.47    4.34
  -4  -1   5  143.83    8.45
  -4  -1   5  142.91   10.98
  -4  -1   5  140.68    4.83
   4   1  -5  154.85   12.86
   4   1  -5  131.09   11.26
  -4  -1   5  118.32   11.85
  -4  -1   5  156.05   16.14
   3   1  -5  19.802   1.823
   3   1  -5  20.882   1.230
   3   1  -5  19.833   1.243
   3   1  -5  22.227   1.974
   3   1  -5  22.384   1.292
  -3  -1   5  19.437   2.096
  -3  -1   5  23.144   1.350
  -3  -1   5  18.350   1.054
   3   1  -5  20.192   4.207
   3   1  -5  11.896   3.749
  -3  -1   5  6.9857  4.9204
   2   1  -5  4.3284  0.5416
   2   1  -5  3.7851  0.5411
   2   1  -5  4.2730  0.6976
   2   1  -5  4.5458  0.6162
   2   1  -5  4.0714  0.8386
  -2  -1   5  3.7341  0.3852
  -2  -1   5  4.5682  0.8900
  -2  -1   5  3.2594  0.5253
  -2  -1   5  4.1180  0.6635
  -2  -1   5  3.8586  0.7657
  -2  -1   5  4.4699  0.6984
   2   1  -5  3.7333  2.6644
   2   1  -5  2.2920  2.2570
  -2  -1   5  3.8056  2.4265
  -2  -1   5  -2.005   2.003
   1   1  -5  93.439   5.639
   1   1  -5  96.174   7.736
   1   1  -5  93.543   4.303
   1   1  -5  96.219   6.051
   1   1  -5  88.545   3.720
  -1  -1   5  102.56    5.04
  -1  -1   5  87.861   3.734
  -1  -1   5  96.265   4.439
  -1  -1   5  109.50    4.52
  -1  -1   5  85.208   5.789
  -1  -1   5  87.278   3.572
   1   1  -5  106.75    6.26
   1   1  -5  84.569   6.194
  -1  -1   5  97.987   7.219
  -1  -1   5  80.693   5.332
   0   1  -5  17.757   1.015
   0   1  -5  18.600   1.070
   0   1  -5  17.041   1.406
   0   1  -5  18.616   1.142
   0   1  -5  19.544   1.368
   0  -1   5  19.921   1.301
   0  -1   5  17.506   1.200
   0  -1   5  19.041   1.225
   0  -1   5  17.027   1.103
   0  -1   5  18.378   1.098
   0   1  -5  18.361   3.079
   0   1  -5  12.696   2.398
   0  -1   5  16.564   3.196
   0  -1   5  14.730   2.688
  -1   1  -5  108.58    4.66
  -1   1  -5  107.37    6.67
  -1   1  -5  101.75    5.73
  -1   1  -5  100.61    5.25
   1  -1   5  99.168   4.026
   1  -1   5  108.88    5.64
   1  -1   5  92.565   3.254
   1  -1   5  105.82    5.89
   1  -1   5  107.47    4.94
   1  -1   5  101.24    4.73
  -1   1  -5  97.887   7.265
  -1   1  -5  93.637   6.815
   1  -1   5  99.671   6.435
   1  -1   5  99.660   6.632
  -2   1  -5  744.07   58.99
  -2   1  -5  714.47   39.78
  -2   1  -5  796.21   64.30
  -2   1  -5  775.96   47.43
  -2   1  -5  759.86   35.54
   2  -1   5  713.83   21.00
   2  -1   5  758.74   23.66
   2  -1   5  711.38   32.05
   2  -1   5  762.71   39.47
  -2   1  -5  822.80   52.06
  -2   1  -5  791.76   52.35
   2  -1   5  830.05   36.48
   2  -1   5  837.93   35.81
  -3   1  -5  867.74   70.50
  -3   1  -5  839.21   24.98
  -3   1  -5  845.57   42.63
  -3   1  -5  807.46   34.67
  -3   1  -5  849.42   73.85
   3  -1   5  827.16   36.19
   3  -1   5  804.91   31.46
   3  -1   5  791.13   33.93
  -3   1  -5  859.88   40.94
  -3   1  -5  898.82   66.93
   3  -1   5  942.21   34.70
   3  -1   5  937.46   31.10
  -4   1  -5  71.627   5.341
  -4   1  -5  70.920   5.760
  -4   1  -5  76.015   4.464
  -4   1  -5  69.485   4.300
   4  -1   5  69.186   3.232
   4  -1   5  71.286   3.163
   4  -1   5  69.975   3.493
  -4   1  -5  62.067   6.535
   4  -1   5  70.863   8.241
   4  -1   5  61.751   7.313
  -5   1  -5  5.5750  0.9122
  -5   1  -5  5.5245  1.4798
  -5   1  -5  6.0798  1.2339
   5  -1   5  5.0799  1.4670
   5  -1   5  6.4935  0.7434
  -5   1  -5  0.2946  5.6548
   5  -1   5  15.549  12.375
   5  -1   5  2.1573  5.0089
  -6   1  -5  57.144   3.967
  -6   1  -5  58.606   5.321
  -6   1  -5  60.392   4.985
   6  -1   5  65.406   3.491
   6  -1   5  58.379  10.655
  -7   1  -5  47.929   5.973
  -7   1  -5  47.874   3.958
  -7   1  -5  61.027   4.692
   7  -1   5  58.300   3.429
   7  -1   5  57.355  14.230
   7   0  -5  3.2132  1.7802
   7   0  -5  5.9126  1.9148
   7   0  -5  4.0475  1.6889
  -7   0   5  6.2188  2.6794
  -7   0   5  6.0707  2.5404
   7   0  -5  -2.050   9.219
   6   0  -5  36.190   3.017
   6   0  -5  32.766   2.583
   6   0  -5  37.418   2.986
   6   0  -5  26.839   2.518
  -6   0   5  28.851   2.672
  -6   0   5  39.318   3.837
   6   0  -5  19.659   7.471
   5   0  -5  43.853   2.146
   5   0  -5  41.127   2.395
   5   0  -5  43.139   1.911
   5   0  -5  41.427   2.544
   5   0  -5  39.588   3.571
  -5   0   5  41.739   2.529
  -5   0   5  40.707   2.295
   5   0  -5  22.345   7.933
   5   0  -5  51.130  12.006
  -5   0   5  26.208   8.819
   4   0  -5  346.42    9.53
   4   0  -5  365.92   19.06
   4   0  -5  370.97   29.55
   4   0  -5  363.06   27.02
   4   0  -5  356.10    9.84
   4   0  -5  376.57   17.69
  -4   0   5  354.02   17.64
  -4   0   5  372.40   22.25
   4   0  -5  364.64   23.50
   4   0  -5  375.00   20.39
  -4   0   5  395.58   20.91
  -4   0   5  385.86   28.95
   3   0  -5 1264.96   35.55
   3   0  -5 1309.02   94.27
   3   0  -5 1292.17   64.31
   3   0  -5 1264.91   44.91
  -3   0   5 1293.54   33.19
  -3   0   5 1393.32   49.57
  -3   0   5 1310.72   56.14
  -3   0   5 1293.81   74.80
   3   0  -5 1337.91   59.88
   3   0  -5 1435.49   74.62
  -3   0   5 1403.17   59.29
  -3   0   5 1360.43   60.93
   2   0  -5  2.1661  0.6971
   2   0  -5  1.6788  0.5964
   2   0  -5  1.2983  0.3832
   2   0  -5  1.2036  0.3775
   2   0  -5  1.1974  0.4626
   2   0  -5  1.8632  0.5660
  -2   0   5  2.7739  0.6860
  -2   0   5  1.6804  0.4976
  -2   0   5  2.2365  0.8024
  -2   0   5  1.6197  0.5591
   2   0  -5  4.0166  3.0987
   2   0  -5  1.3584  2.5051
  -2   0   5  -2.021   3.247
  -2   0   5  3.1397  2.5876
   1   0  -5  225.20   11.75
   1   0  -5  242.76   10.45
   1   0  -5  242.83   13.33
   1   0  -5  234.52   14.21
   1   0  -5  223.20   16.75
  -1   0   5  216.26   12.31
  -1   0   5  234.61   10.51
  -1   0   5  232.17    7.38
  -1   0   5  237.12    9.40
  -1   0   5  237.84   10.83
   1   0  -5  242.66   17.11
   1   0  -5  229.28   14.23
  -1   0   5  221.24    9.39
  -1   0   5  230.15   11.28
   0   0  -5  628.79   33.78
   0   0  -5  603.63   26.01
   0   0  -5  646.15   39.10
   0   0  -5  571.40   23.83
   0   0   5  649.22   26.05
   0   0   5  681.39   40.13
   0   0   5  636.70   25.91
   0   0   5  565.91   23.75
   0   0   5  640.60   32.86
   0   0  -5  613.18   41.35
   0   0  -5  591.36   25.59
   0   0   5  585.35   24.10
   0   0   5  654.73   20.91
  -1   0  -5  949.77   59.76
  -1   0  -5 1006.12   44.16
  -1   0  -5  982.62   44.26
  -1   0  -5 1015.98   71.75
   1   0   5  990.44   59.28
   1   0   5  970.29   35.85
   1   0   5  907.71   41.88
   1   0   5  967.02   50.47
   1   0   5  852.57   39.67
  -1   0  -5  985.10   44.39
  -1   0  -5 1036.34   67.89
   1   0   5 1065.40   59.38
   1   0   5  996.51   42.05
  -2   0  -5  71.115   5.515
  -2   0  -5  75.384   3.326
  -2   0  -5  74.006   5.676
  -2   0  -5  81.060   3.822
  -2   0  -5  69.991   3.393
   2   0   5  74.425   4.737
   2   0   5  72.044   2.563
   2   0   5  74.833   2.094
   2   0   5  70.178   3.466
  -2   0  -5  73.923   5.322
  -2   0  -5  61.139   6.762
   2   0   5  78.022   6.142
   2   0   5  78.268   6.181
  -3   0  -5  806.73   30.02
  -3   0  -5  785.10   31.65
  -3   0  -5  807.75   68.44
  -3   0  -5  820.49   51.99
  -3   0  -5  840.01   52.41
  -3   0  -5  807.62   41.32
  -3   0  -5  783.45   31.75
   3   0   5  774.14   20.67
   3   0   5  752.10   66.52
   3   0   5  767.19   31.24
   3   0   5  697.59   20.41
  -3   0  -5  778.08   27.71
  -3   0  -5  753.17   34.83
   3   0   5  765.55   32.83
   3   0   5  773.29   27.11
  -4   0  -5  14.648   1.894
  -4   0  -5  14.539   1.445
  -4   0  -5  15.227   1.577
  -4   0  -5  14.322   1.634
   4   0   5  14.586   0.958
   4   0   5  13.714   1.494
   4   0   5  10.432   1.368
  -4   0  -5  10.335   5.667
  -4   0  -5  13.224   5.478
   4   0   5  4.4523  4.5878
   4   0   5  -2.616   6.328
  -5   0  -5  1.7469  0.8904
  -5   0  -5  -1.394   2.190
  -5   0  -5  0.4752  0.8560
   5   0   5  1.2750  0.8018
   5   0   5  1.7044  0.7556
  -5   0  -5  6.4498  7.9836
   5   0   5  0.1558  8.5297
   5   0   5  -7.710   6.563
  -6   0  -5  144.91   11.92
  -6   0  -5  158.65    8.86
  -6   0  -5  159.29    8.09
   6   0   5  154.23    7.91
   6   0   5  158.31   16.36
  -7   0  -5  40.808   2.773
  -7   0  -5  30.266   2.958
  -7   0  -5  35.698   3.412
   7   0   5  42.847   3.144
   7   0   5  27.745  11.433
   7  -1  -5  31.176   3.414
  -7   1   5  39.830   4.701
  -7   1   5  27.804   3.792
   7  -1  -5  25.838   9.035
   6  -1  -5  36.593   3.533
   6  -1  -5  42.619   3.079
   6  -1  -5  40.397   2.953
   6  -1  -5  43.569   3.723
  -6   1   5  45.438   3.450
  -6   1   5  40.601   3.677
   6  -1  -5  27.785   8.000
   5  -1  -5  38.447   3.478
   5  -1  -5  42.192   2.677
   5  -1  -5  41.858   3.266
   5  -1  -5  43.240   1.791
   5  -1  -5  48.229   3.000
   5  -1  -5  40.137   2.234
  -5   1   5  37.654   2.851
  -5   1   5  44.328   3.167
   5  -1  -5  54.810  10.850
   5  -1  -5  45.315   9.225
  -5   1   5  44.717  10.429
   4  -1  -5  37.367   2.218
   4  -1  -5  34.045   2.445
   4  -1  -5  35.015   2.578
   4  -1  -5  37.129   2.231
   4  -1  -5  35.741   1.774
   4  -1  -5  32.370   2.567
  -4   1   5  35.768   2.372
  -4   1   5  35.713   2.275
   4  -1  -5  30.356   6.886
  -4   1   5  19.765   7.276
   3  -1  -5  215.77    7.03
   3  -1  -5  200.24    5.43
   3  -1  -5  200.76   13.78
   3  -1  -5  204.59    6.85
   3  -1  -5  203.49    5.51
   3  -1  -5  198.63   11.62
  -3   1   5  207.42    5.28
  -3   1   5  204.87    7.31
  -3   1   5  207.06    6.57
  -3   1   5  217.85   11.19
   3  -1  -5  217.63   15.65
   3  -1  -5  186.11   10.34
  -3   1   5  206.43   12.61
  -3   1   5  251.54   15.44
   2  -1  -5  13.296   0.713
   2  -1  -5  12.532   0.847
   2  -1  -5  13.047   1.137
   2  -1  -5  13.378   0.691
   2  -1  -5  15.440   1.217
   2  -1  -5  14.446   0.811
  -2   1   5  12.530   0.999
  -2   1   5  14.466   0.839
  -2   1   5  14.705   1.025
  -2   1   5  13.444   1.127
   2  -1  -5  10.451   2.636
   2  -1  -5  13.209   3.502
  -2   1   5  6.8391  2.5042
  -2   1   5  16.377   4.122
   1  -1  -5  242.78   13.17
   1  -1  -5  243.99   20.37
   1  -1  -5  237.82    8.88
   1  -1  -5  242.64    9.85
   1  -1  -5  246.11    9.84
  -1   1   5  225.49    9.27
  -1   1   5  236.43   11.45
  -1   1   5  259.39    9.64
  -1   1   5  230.27    8.78
  -1   1   5  249.48   11.13
   1  -1  -5  229.91   12.96
   1  -1  -5  256.10   18.81
  -1   1   5  235.20   11.95
  -1   1   5  264.60   14.29
   0  -1  -5  109.27    5.82
   0  -1  -5  106.90    4.98
   0  -1  -5  113.72    4.39
   0  -1  -5  112.25    5.39
   0   1   5  102.83    4.38
   0   1   5  122.37    6.21
   0   1   5  110.72    5.58
   0   1   5  107.25    2.97
   0   1   5  110.62    5.33
   0  -1  -5  112.80    8.09
   0  -1  -5  96.730   6.328
   0   1   5  108.00    6.20
   0   1   5  86.653   4.781
  -1  -1  -5  345.62   23.03
  -1  -1  -5  338.79   15.77
  -1  -1  -5  321.03   18.33
  -1  -1  -5  326.79   16.42
  -1  -1  -5  317.39   11.26
   1   1   5  348.94   21.08
   1   1   5  299.41   11.70
   1   1   5  283.74   12.88
   1   1   5  333.94   24.29
   1   1   5  317.89   11.11
  -1  -1  -5  370.03   19.99
  -1  -1  -5  335.04   18.19
   1   1   5  333.62   11.71
   1   1   5  360.20   18.47
  -2  -1  -5  899.53   51.17
  -2  -1  -5  914.74   50.88
  -2  -1  -5  918.14   53.10
  -2  -1  -5  896.86   49.10
  -2  -1  -5  922.12   70.11
   2   1   5  917.88   63.19
   2   1   5  890.62   39.78
   2   1   5  853.82   22.82
   2   1   5  880.99   23.91
   2   1   5  902.00   56.95
  -2  -1  -5  883.46   49.51
  -2  -1  -5  951.86   41.51
   2   1   5  899.00   28.29
   2   1   5  959.42   40.01
  -3  -1  -5  125.60    5.09
  -3  -1  -5  119.48    6.49
  -3  -1  -5  117.21    5.88
  -3  -1  -5  125.20   10.98
  -3  -1  -5  123.80    4.75
  -3  -1  -5  127.04    5.94
   3   1   5  118.85    2.99
   3   1   5  115.02    7.59
   3   1   5  123.26    9.52
   3   1   5  119.77    4.92
  -3  -1  -5  112.64    8.50
  -3  -1  -5  121.05   10.56
   3   1   5  109.60    5.74
   3   1   5  124.19    9.42
  -4  -1  -5  2.4720  0.8247
  -4  -1  -5  1.5954  1.2165
  -4  -1  -5  1.6077  0.7034
  -4  -1  -5  3.1407  0.8523
  -4  -1  -5  2.7264  0.7734
   4   1   5  3.2584  0.7167
   4   1   5  2.9092  0.9215
   4   1   5  2.1855  0.9649
  -4  -1  -5  4.1939  4.2543
  -4  -1  -5  -1.601   4.668
   4   1   5  4.7226  4.9245
   4   1   5  1.9801  4.8475
  -5  -1  -5  2.8993  1.0746
  -5  -1  -5  1.3844  1.0270
  -5  -1  -5  1.8781  1.2861
  -5  -1  -5  2.8181  1.1302
  -5  -1  -5  1.3764  1.0678
   5   1   5  1.3964  0.7935
  -5  -1  -5  7.7927  7.2718
   5   1   5 -0.8283  7.1749
   5   1   5  5.1318  6.9388
  -6  -1  -5  164.20    9.44
  -6  -1  -5  182.87   11.44
  -6  -1  -5  172.88   12.35
   6   1   5  179.91    9.72
   6   1   5  173.44   15.03
  -6  -1  -5  139.37   17.46
   6   1   5  144.85   15.67
  -7  -1  -5  105.66    6.13
  -7  -1  -5  108.38    7.12
  -7  -1  -5  117.72    8.28
   7   1   5  118.55    8.20
   7  -2  -5  40.137   3.829
  -7   2   5  40.179   3.813
  -7   2   5  36.921   3.620
   7  -2  -5  35.964  11.803
   6  -2  -5  7.5492  1.9571
   6  -2  -5  7.1525  1.5341
  -6   2   5  13.900   2.809
  -6   2   5  11.177   1.877
   6  -2  -5  4.2396  7.0004
   5  -2  -5  0.9160  0.8635
   5  -2  -5  1.6097  1.2661
   5  -2  -5  0.6246  0.5558
   5  -2  -5  1.7776  1.1685
  -5   2   5  0.7122  1.6022
  -5   2   5  0.7964  1.4995
   5  -2  -5  4.9934  4.5376
   4  -2  -5  714.06   40.46
   4  -2  -5  663.64   26.44
   4  -2  -5  684.40   18.99
   4  -2  -5  666.07   29.62
  -4   2   5  722.17   29.73
  -4   2   5  683.14   43.92
   4  -2  -5  750.03   28.24
   4  -2  -5  776.95   38.57
  -4   2   5  776.38   26.61
   3  -2  -5  179.85    5.72
   3  -2  -5  177.59    9.84
   3  -2  -5  192.87    4.68
   3  -2  -5  186.10    5.23
   3  -2  -5  187.03    9.87
  -3   2   5  189.56    7.83
  -3   2   5  184.45    5.01
  -3   2   5  184.35    9.56
   3  -2  -5  193.88   12.77
  -3   2   5  182.61   12.76
   2  -2  -5  222.03    5.89
   2  -2  -5  226.24   13.77
   2  -2  -5  223.50    8.48
   2  -2  -5  220.93    8.39
  -2   2   5  224.50    8.67
  -2   2   5  221.53    6.36
  -2   2   5  219.79   10.12
  -2   2   5  223.54    8.67
  -2   2   5  226.69    9.67
   2  -2  -5  220.75    9.71
  -2   2   5  221.05   15.42
  -2   2   5  242.96   14.23
   1  -2  -5  317.66   10.31
   1  -2  -5  325.57    9.98
   1  -2  -5  314.99   10.49
   1  -2  -5  331.20   13.43
  -1   2   5  304.57   12.42
  -1   2   5  302.35   12.10
  -1   2   5  324.52   17.27
  -1   2   5  304.59   15.47
  -1   2   5  299.31    9.83
  -1   2   5  306.94    9.96
  -1   2   5  336.93   10.90
   1  -2  -5  310.65   19.26
   1  -2  -5  314.31   15.61
  -1   2   5  294.87   17.79
  -1   2   5  330.45   18.16
   0  -2  -5  1.1107  0.5148
   0  -2  -5  1.5357  0.4642
   0  -2  -5  1.8779  0.5394
   0  -2  -5  1.8246  0.5770
   0   2   5  2.0928  0.3855
   0   2   5  2.2251  0.6442
   0   2   5  2.0761  0.3126
   0   2   5  2.7645  0.5694
   0   2   5  2.2448  0.2113
   0  -2  -5  2.7695  1.8395
   0  -2  -5  1.1191  1.3186
   0   2   5  0.7669  1.3242
   0   2   5  2.8410  1.8307
  -1  -2  -5  364.67   19.73
  -1  -2  -5  345.82   13.51
  -1  -2  -5  340.77   17.79
   1   2   5  352.63   10.28
   1   2   5  353.35    9.73
   1   2   5  335.33    7.02
   1   2   5  376.97   13.37
   1   2   5  384.07   18.25
  -1  -2  -5  321.88   19.94
   1   2   5  353.29   14.60
   1   2   5  328.14   17.15
  -2  -2  -5 1478.64   88.97
  -2  -2  -5 1363.31   72.78
  -2  -2  -5 1450.86   51.69
  -2  -2  -5 1485.55   88.53
  -2  -2  -5 1438.65   73.53
   2   2   5 1444.76  131.10
   2   2   5 1392.42   36.64
   2   2   5 1345.72   40.45
   2   2   5 1199.11   47.97
   2   2   5 1364.99   69.40
  -2  -2  -5 1413.14   82.93
  -2  -2  -5 1497.45   92.96
   2   2   5 1365.87   52.93
   2   2   5 1547.01   66.87
  -3  -2  -5  174.26    7.61
  -3  -2  -5  173.49    8.03
  -3  -2  -5  174.53   11.44
  -3  -2  -5  174.43   13.51
  -3  -2  -5  179.44   12.12
  -3  -2  -5  168.06    7.43
   3   2   5  152.99    5.03
   3   2   5  163.14    5.47
   3   2   5  155.77   11.78
   3   2   5  170.91    6.68
   3   2   5  174.25   10.98
  -3  -2  -5  180.16   10.60
  -3  -2  -5  149.08   10.08
   3   2   5  187.26   14.23
   3   2   5  168.36   10.00
  -4  -2  -5  97.527   4.989
  -4  -2  -5  101.46    3.73
  -4  -2  -5  107.95    4.86
  -4  -2  -5  101.12    8.65
  -4  -2  -5  100.44    4.82
  -4  -2  -5  98.827   6.260
   4   2   5  99.750   3.267
   4   2   5  95.008   3.635
   4   2   5  94.602   3.109
  -4  -2  -5  99.446   7.769
  -4  -2  -5  95.947   7.388
   4   2   5  88.952   8.562
   4   2   5  83.999  11.025
  -5  -2  -5  388.21   12.38
  -5  -2  -5  414.49   26.23
  -5  -2  -5  448.64   18.25
  -5  -2  -5  428.26   13.32
  -5  -2  -5  434.60   15.54
   5   2   5  414.94   13.37
   5   2   5  427.92   12.14
  -5  -2  -5  384.73   20.25
  -5  -2  -5  442.02   32.10
   5   2   5  400.87   25.63
  -6  -2  -5  44.359   2.905
  -6  -2  -5  39.653   3.839
  -6  -2  -5  42.638   2.893
   6   2   5  42.278   3.499
   6   2   5  45.395   2.388
  -6  -2  -5  29.406   8.285
   6   2   5  16.529   8.127
  -7  -2  -5  1.2518  2.2533
  -7  -2  -5  -1.123   2.275
  -7  -2  -5  8.8036  2.3864
   7   2   5  2.8982  1.5483
   7  -3  -5  11.732   3.162
  -7   3   5  13.036   3.559
  -7   3   5  18.292   3.879
   7  -3  -5  12.193  15.704
   6  -3  -5  12.780   2.062
  -6   3   5  8.6843  2.5028
  -6   3   5  10.500   2.540
   6  -3  -5  2.2149  7.9975
   5  -3  -5  47.104   2.504
   5  -3  -5  47.519   3.389
   5  -3  -5  42.865   4.492
   5  -3  -5  49.206   2.747
  -5   3   5  46.097   3.491
  -5   3   5  47.388   3.824
   5  -3  -5  41.530   7.229
   4  -3  -5 2476.34  161.21
  -4   3   5 2652.11  130.42
   3  -3  -5  139.69    7.21
   3  -3  -5  143.48    6.59
   3  -3  -5  148.83    5.71
   3  -3  -5  139.44    4.91
   3  -3  -5  150.44    7.82
  -3   3   5  144.49    5.69
  -3   3   5  147.51    8.11
   3  -3  -5  150.25   11.44
   3  -3  -5  147.85   10.08
  -3   3   5  136.92    9.57
   2  -3  -5  74.572   2.098
   2  -3  -5  69.234   2.405
   2  -3  -5  71.515   2.619
  -2   3   5  71.354   3.773
  -2   3   5  70.540   2.966
  -2   3   5  70.927   3.354
  -2   3   5  72.607   4.091
  -2   3   5  71.899   2.890
   2  -3  -5  69.795   5.648
   2  -3  -5  65.837   5.356
  -2   3   5  65.508   7.142
  -2   3   5  72.180   6.835
   1  -3  -5  1.9091  0.6206
   1  -3  -5  2.8277  0.7129
   1  -3  -5  1.5947  0.6158
  -1   3   5  2.6860  0.4886
  -1   3   5  3.4618  0.7786
  -1   3   5  2.9088  0.5517
  -1   3   5  3.0678  0.3277
  -1   3   5  2.7068  0.7204
  -1   3   5  3.2233  0.3661
  -1   3   5  2.8037  0.5605
   1  -3  -5  1.8318  1.5719
   1  -3  -5  2.3182  2.0437
  -1   3   5  2.7873  2.1132
  -1   3   5  4.1483  1.8024
   0  -3  -5 1403.66   32.55
   0  -3  -5 1315.33   51.44
   0  -3  -5 1452.17   46.47
   0  -3  -5 1460.45   41.34
   0   3   5 1601.54   85.48
   0   3   5 1465.03   34.36
   0   3   5 1380.17   48.21
   0  -3  -5 1515.47   64.05
   0  -3  -5 1519.30   52.99
   0   3   5 1557.09   52.03
   0   3   5 1538.79   99.28
  -1  -3  -5  49.056   1.838
  -1  -3  -5  47.690   3.006
  -1  -3  -5  50.082   3.561
  -1  -3  -5  49.027   2.469
   1   3   5  48.357   3.375
   1   3   5  48.031   1.971
   1   3   5  45.308   1.714
   1   3   5  48.323   3.620
   1   3   5  46.385   2.039
   1   3   5  51.853   3.438
  -1  -3  -5  45.661   3.896
  -1  -3  -5  45.208   4.771
   1   3   5  45.560   4.059
   1   3   5  41.624   4.118
  -2  -3  -5  13.936   1.101
  -2  -3  -5  14.361   0.759
  -2  -3  -5  15.819   0.843
  -2  -3  -5  15.714   0.910
  -2  -3  -5  16.608   1.185
  -2  -3  -5  14.277   1.252
   2   3   5  17.128   1.425
   2   3   5  17.195   1.016
   2   3   5  14.885   1.544
   2   3   5  16.095   1.253
   2   3   5  17.010   0.951
  -2  -3  -5  7.9331  3.0721
  -2  -3  -5  12.328   2.981
   2   3   5  13.803   3.514
   2   3   5  10.475   3.254
  -3  -3  -5  577.69   36.36
  -3  -3  -5  562.52   19.66
  -3  -3  -5  610.06   43.18
  -3  -3  -5  620.10   21.08
  -3  -3  -5  583.42   22.19
  -3  -3  -5  587.38   25.14
   3   3   5  551.76   46.47
   3   3   5  596.67   25.16
   3   3   5  612.11   24.53
  -3  -3  -5  635.17   30.87
  -3  -3  -5  642.46   42.96
   3   3   5  703.65   35.67
   3   3   5  634.66   29.24
  -4  -3  -5  199.50   11.46
  -4  -3  -5  188.23    8.05
  -4  -3  -5  183.82   11.80
  -4  -3  -5  193.37    8.82
  -4  -3  -5  183.45   14.00
  -4  -3  -5  177.40    9.70
  -4  -3  -5  185.73   11.00
   4   3   5  182.47    7.63
   4   3   5  200.23    8.18
  -4  -3  -5  194.15   13.63
  -4  -3  -5  198.13   12.81
   4   3   5  178.55   13.08
  -5  -3  -5  383.41   13.69
  -5  -3  -5  360.59   12.21
  -5  -3  -5  381.05   19.06
  -5  -3  -5  356.03   15.14
  -5  -3  -5  368.84   20.30
   5   3   5  346.94   14.82
   5   3   5  362.53   12.52
   5   3   5  372.56   12.38
  -5  -3  -5  370.15   30.06
  -5  -3  -5  396.65   30.67
   5   3   5  389.91   22.51
  -6  -3  -5 1091.06   58.65
  -6  -3  -5 1030.36   48.31
  -6  -3  -5 1107.89   47.13
   6   3   5 1059.83   57.34
   6   3   5 1142.93   58.63
   6   3   5 1108.72   44.87
  -6  -3  -5 1290.72  108.35
  -7  -3  -5  5.2285  2.9153
  -7  -3  -5  6.5707  2.2722
  -7  -3  -5  7.4238  1.8938
   7   3   5  6.5957  1.7739
   7   3   5  4.5395  1.7602
  -7  -3  -5   1.029  10.344
   6  -4  -5  27.392   2.713
  -6   4   5  28.265   3.595
  -6   4   5  28.181   2.793
   6  -4  -5  25.517  10.163
   5  -4  -5  202.91    7.86
   5  -4  -5  197.49    7.76
  -5   4   5  191.45    9.95
  -5   4   5  189.66    9.70
   5  -4  -5  225.22   16.17
   4  -4  -5  1.0640  0.4702
   4  -4  -5  1.3827  0.4976
   4  -4  -5  0.2098  0.6394
   4  -4  -5  1.1472  0.9110
   4  -4  -5  0.4888  0.9862
  -4   4   5  0.8188  0.5149
  -4   4   5  0.8933  1.1617
   4  -4  -5  6.9170  5.2545
   4  -4  -5 -0.4323  5.4969
   3  -4  -5  836.25   52.62
   3  -4  -5  890.00   22.36
   3  -4  -5  904.00   47.02
   3  -4  -5  851.13   26.55
  -3   4   5  880.16   41.83
  -3   4   5  891.30   30.57
   3  -4  -5  969.87   43.54
   3  -4  -5  930.22   61.28
  -3   4   5  970.53   58.20
   2  -4  -5 1092.62   65.69
   2  -4  -5 1193.46   79.31
   2  -4  -5 1145.62   36.30
   2  -4  -5 1122.30   22.63
  -2   4   5 1155.06   44.44
  -2   4   5 1160.12   47.38
  -2   4   5 1144.24   54.60
   2  -4  -5 1275.86   50.62
  -2   4   5 1266.20   69.68
   1  -4  -5  46.627   1.900
   1  -4  -5  46.513   1.930
   1  -4  -5  47.388  11.657
  -1   4   5  47.380   2.511
  -1   4   5  52.283   2.683
  -1   4   5  44.506   1.711
  -1   4   5  50.674   1.757
  -1   4   5  47.979   2.351
  -1   4   5  48.651   2.181
  -1   4   5  46.808   2.259
  -1   4   5  45.792   2.253
   1  -4  -5  37.901   3.698
   1  -4  -5  51.743   4.536
  -1   4   5  44.803   4.724
  -1   4   5  45.796   4.210
   0  -4  -5 1588.64   32.64
   0  -4  -5 1609.25   61.50
   0  -4  -5 1561.04   38.82
   0  -4  -5 1556.71   38.84
   0   4   5 1681.86   64.22
   0   4   5 1661.19   63.53
   0   4   5 1624.03   78.52
   0   4   5 1559.87   72.20
   0   4   5 1633.48   54.38
   0   4   5 1623.06  106.15
   0  -4  -5 1544.93   92.97
   0  -4  -5 1598.60  117.19
   0   4   5 1692.90   85.50
   0   4   5 1631.43   52.37
  -1  -4  -5 1091.21   52.97
  -1  -4  -5 1119.24   44.60
  -1  -4  -5 1107.11   79.23
  -1  -4  -5 1102.18   65.15
   1   4   5 1120.61   46.41
   1   4   5 1116.07   36.80
   1   4   5 1074.44   54.33
   1   4   5 1137.17   35.20
   1   4   5 1098.37   38.73
  -1  -4  -5 1118.78   53.88
  -1  -4  -5 1183.20   74.85
   1   4   5 1222.14   92.27
   1   4   5 1164.52   95.14
  -2  -4  -5  17.540   1.171
  -2  -4  -5  17.730   1.024
  -2  -4  -5  15.515   1.088
  -2  -4  -5  16.292   1.007
  -2  -4  -5  16.427   0.868
   2   4   5  16.610   1.155
   2   4   5  19.644   1.634
   2   4   5  20.297   0.962
   2   4   5  18.679   1.704
   2   4   5  15.574   1.207
   2   4   5  18.251   0.856
  -2  -4  -5  16.666   3.334
  -2  -4  -5  16.011   3.339
   2   4   5  15.106   3.371
   2   4   5  16.341   4.215
  -3  -4  -5  165.02    7.66
  -3  -4  -5  157.29    8.17
  -3  -4  -5  165.79    6.68
   3   4   5  172.92    8.95
   3   4   5  161.88    6.23
   3   4   5  151.30   10.46
  -3  -4  -5  139.73    8.68
  -3  -4  -5  166.47    8.79
   3   4   5  145.61   11.28
  -4  -4  -5  52.364   2.996
  -4  -4  -5  47.677   3.610
  -4  -4  -5  47.781   2.788
  -4  -4  -5  49.884   3.055
   4   4   5  50.132   2.041
   4   4   5  56.739   3.039
  -4  -4  -5  57.381   7.923
  -4  -4  -5  43.105   7.077
   4   4   5  42.581   8.392
  -5  -4  -5  61.007   4.152
  -5  -4  -5  64.714   4.361
  -5  -4  -5  65.689   3.765
   5   4   5  65.131   3.243
   5   4   5  69.907   3.449
  -5  -4  -5  56.389   9.944
  -6  -4  -5  228.76   10.49
  -6  -4  -5  228.56   13.07
  -6  -4  -5  233.64   10.06
   6   4   5  232.68    9.91
   6   4   5  224.78    9.39
   6   4   5  258.28    9.31
  -6  -4  -5  237.57   23.13
  -7  -4  -5  42.293   3.598
  -7  -4  -5  44.407   4.223
  -7  -4  -5  43.442   3.358
   7   4   5  52.887   3.610
   7   4   5  52.453   3.983
   7   4   5  48.420   3.575
  -7  -4  -5  31.173  10.988
   6  -5  -5  2.5538  2.3724
  -6   5   5  0.7298  2.6515
  -6   5   5  1.3725  1.7288
   6  -5  -5  -10.40   10.83
   5  -5  -5  189.90   10.79
  -5   5   5  193.82   11.46
  -5   5   5  173.52   10.66
   5  -5  -5  205.16   16.93
   4  -5  -5  235.72   18.75
   4  -5  -5  235.08    7.67
   4  -5  -5  233.87   22.97
  -4   5   5  239.07    7.78
   4  -5  -5  238.68   20.96
   4  -5  -5  238.20   13.61
   3  -5  -5  524.26   39.65
   3  -5  -5  483.24    9.41
   3  -5  -5  467.20   25.14
   3  -5  -5  485.44   13.44
  -3   5   5  494.30   12.92
  -3   5   5  502.78   27.94
   3  -5  -5  529.84   23.99
   3  -5  -5  552.13   32.01
   2  -5  -5  65.506   2.607
   2  -5  -5  64.394   3.207
   2  -5  -5  74.719   3.178
   2  -5  -5  64.527   4.645
  -2   5   5  67.230   4.317
  -2   5   5  66.939   3.262
  -2   5   5  69.948   3.729
   2  -5  -5  62.984   5.411
   2  -5  -5  70.108   5.398
  -2   5   5  54.938   7.056
   1  -5  -5  22.306   1.889
   1  -5  -5  21.260   1.382
   1  -5  -5  26.868   1.412
  -1   5   5  20.383   1.423
  -1   5   5  24.203   1.291
  -1   5   5  20.906   1.495
  -1   5   5  22.053   1.112
   1  -5  -5  20.752   2.445
  -1   5   5  15.304   3.167
   0  -5  -5  4.4730  1.0553
   0  -5  -5  4.8495  0.9115
   0  -5  -5  6.9883  1.0267
   0  -5  -5  5.3734  0.8285
   0   5   5  6.9060  0.9250
   0   5   5  4.1793  0.7719
   0   5   5  7.1628  0.8715
   0   5   5  5.4457  0.5371
   0   5   5  6.3926  0.8130
   0   5   5  7.1543  0.9898
   0  -5  -5  6.2614  1.4591
   0  -5  -5  6.3800  1.4927
   0   5   5  5.9244  1.7238
  -1  -5  -5  21.261   1.468
  -1  -5  -5  23.616   1.458
  -1  -5  -5  24.260   1.444
   1   5   5  20.951   1.475
   1   5   5  21.858   1.032
   1   5   5  19.402   1.168
   1   5   5  23.330   1.830
   1   5   5  22.002   1.481
  -1  -5  -5  22.031   2.837
  -1  -5  -5  22.463   2.823
   1   5   5  21.155   3.361
  -2  -5  -5  56.316   2.177
  -2  -5  -5  49.826   2.218
  -2  -5  -5  48.744   1.775
  -2  -5  -5  49.184   2.134
   2   5   5  48.816   2.332
   2   5   5  50.413   3.985
   2   5   5  51.815   2.455
   2   5   5  50.844   2.406
  -2  -5  -5  53.412   5.176
  -2  -5  -5  42.416   3.887
   2   5   5  41.185   4.566
  -3  -5  -5  156.52    7.06
  -3  -5  -5  138.34    8.65
  -3  -5  -5  161.52   10.11
   3   5   5  161.43    5.50
   3   5   5  155.77    7.58
  -3  -5  -5  162.89    9.69
  -3  -5  -5  142.69    9.43
   3   5   5  145.65   11.66
  -4  -5  -5  72.703   3.997
  -4  -5  -5  65.888   4.078
  -4  -5  -5  78.521   4.066
   4   5   5  73.999   3.026
   4   5   5  77.421   3.523
  -4  -5  -5  64.822   6.872
  -4  -5  -5  89.848   9.647
  -5  -5  -5  45.739   3.047
  -5  -5  -5  42.894   2.992
  -5  -5  -5  46.284   3.279
   5   5   5  39.046   2.383
   5   5   5  42.097   2.764
  -5  -5  -5  45.857   7.060
  -6  -5  -5  98.872   5.066
  -6  -5  -5  93.583   5.865
  -6  -5  -5  106.73    5.45
   6   5   5  109.60    5.84
   6   5   5  102.40    4.45
  -6  -5  -5  77.436  12.062
  -7  -5  -5  368.95   23.29
  -7  -5  -5  369.42   29.06
  -7  -5  -5  366.81   19.80
   7   5   5  380.85   25.84
   7   5   5  402.89   17.93
   7   5   5  425.08   22.61
  -7  -5  -5  433.47   27.00
   5  -6  -5  6.7078  2.8461
  -5   6   5  7.7103  1.8906
   5  -6  -5  0.4107  7.9676
   4  -6  -5  158.65    6.63
  -4   6   5  172.22    9.69
   4  -6  -5  192.13   11.95
   3  -6  -5  59.694   2.985
   3  -6  -5  63.696   3.713
  -3   6   5  58.420   3.724
  -3   6   5  54.446   3.123
   3  -6  -5  54.547   7.781
   3  -6  -5  67.763   6.841
   2  -6  -5  5.7397  1.2342
   2  -6  -5  6.1589  0.8811
  -2   6   5  6.0095  1.4696
  -2   6   5  4.8295  1.0266
  -2   6   5  4.5563  0.8526
  -2   6   5  3.6762  0.9179
   2  -6  -5  5.7327  2.5751
   2  -6  -5  5.4432  2.5960
   1  -6  -5  262.17   10.60
   1  -6  -5  299.01   12.39
  -1   6   5  306.34   18.31
  -1   6   5  291.96   16.06
  -1   6   5  305.84    8.89
  -1   6   5  297.65   10.64
   1  -6  -5  316.83   17.57
   1  -6  -5  312.45   13.69
   0  -6  -5  10.635   1.109
   0  -6  -5  8.9976  0.8020
   0   6   5  6.7935  1.1170
   0   6   5  6.8470  1.2041
   0   6   5  8.2532  0.8834
   0   6   5  9.1929  1.1084
  -1  -6  -5  49.364   2.183
  -1  -6  -5  49.182   2.497
   1   6   5  45.982   2.493
   1   6   5  45.059   2.211
   1   6   5  45.385   2.291
   1   6   5  44.021   1.837
  -1  -6  -5  48.400   4.138
  -1  -6  -5  42.409   3.415
   1   6   5  36.504   4.101
  -2  -6  -5  190.31    6.95
  -2  -6  -5  177.56    7.22
  -2  -6  -5  175.86    7.78
   2   6   5  184.10   10.93
   2   6   5  179.76    5.98
   2   6   5  192.60   13.22
  -2  -6  -5  185.39   12.34
  -2  -6  -5  193.34   11.06
   2   6   5  178.82   11.57
  -3  -6  -5  109.71    6.52
  -3  -6  -5  119.48    5.80
  -3  -6  -5  98.285   5.861
   3   6   5  105.87    4.09
   3   6   5  108.88    5.01
  -3  -6  -5  117.47    8.04
  -3  -6  -5  114.54   10.41
   3   6   5  91.007  10.724
  -4  -6  -5  49.198   3.834
  -4  -6  -5  52.357   3.590
   4   6   5  58.427   3.756
   4   6   5  47.061   2.511
  -4  -6  -5  42.640   7.452
  -4  -6  -5  47.876   7.475
  -5  -6  -5  332.29   14.05
  -5  -6  -5  343.14   14.02
   5   6   5  357.83   15.03
   5   6   5  320.96   16.55
  -5  -6  -5  310.57   21.91
  -6  -6  -5  48.734   3.875
  -6  -6  -5  38.009   3.364
   6   6   5  53.259   4.361
   6   6   5  46.246   3.140
  -6  -6  -5  27.880  12.411
  -7  -6  -5  45.176   4.471
  -7  -6  -5  39.824   5.350
   7   6   5  45.090   4.693
  -7  -6  -5  36.445  13.030
   5  -7  -5  31.063   3.597
  -5   7   5  32.140   4.586
   5  -7  -5  27.821   9.361
   4  -7  -5  7.1547  2.4640
  -4   7   5  8.2095  1.8384
   4  -7  -5  10.320   5.619
   3  -7  -5  337.84   25.55
   3  -7  -5  316.16   12.79
  -3   7   5  328.64   17.39
   3  -7  -5  360.07   36.30
   3  -7  -5  362.63   22.89
   2  -7  -5  3.1277  1.0893
   2  -7  -5  1.6849  1.1789
  -2   7   5  3.6314  1.0044
  -2   7   5  0.7687  1.1648
   2  -7  -5  1.1956  1.7940
   2  -7  -5  1.2213  1.6587
   1  -7  -5  1.5932  0.7960
  -1   7   5  2.2090  1.1045
  -1   7   5  4.2137  1.3972
  -1   7   5  2.7820  0.7318
   0  -7  -5  0.6051  0.8478
   0  -7  -5  0.9868  1.0638
   0   7   5  1.1831  1.0509
   0   7   5  0.7585  1.1122
   0   7   5  0.0276  0.9000
  -1  -7  -5  34.174   2.229
  -1  -7  -5  38.160   1.729
   1   7   5  30.302   2.422
   1   7   5  32.386   2.206
   1   7   5  41.536   2.383
   1   7   5  35.769   1.971
  -2  -7  -5  5.7949  0.6005
  -2  -7  -5  5.4092  1.0690
   2   7   5  6.1558  1.6143
   2   7   5  5.3060  0.7974
  -2  -7  -5  6.1808  2.5323
  -2  -7  -5  4.7795  2.2772
  -3  -7  -5  86.411   3.747
  -3  -7  -5  82.586   6.139
   3   7   5  85.206   3.695
   3   7   5  92.255   4.308
  -4  -7  -5  17.711   2.289
  -4  -7  -5  14.703   2.294
   4   7   5  17.290   1.438
   4   7   5  22.402   2.502
  -4  -7  -5  15.062   5.851
  -5  -7  -5  22.501   3.571
  -5  -7  -5  30.812   3.354
   5   7   5  26.559   2.657
   5   7   5  20.977   1.918
  -5  -7  -5  26.144   9.228
  -6  -7  -5  7.5825  2.0539
  -6  -7  -5  7.9887  2.2515
   6   7   5  12.449   2.122
  -6  -7  -5  10.821  11.468
   4  -8  -5  0.5047  2.2498
  -4   8   5  4.4441  1.7598
   4  -8  -5  0.7448  4.1978
   3  -8  -5  13.159   1.915
  -3   8   5  11.800   2.455
   3  -8  -5  16.459   3.791
   3  -8  -5  13.295   3.361
   2  -8  -5  31.707   2.962
  -2   8   5  32.383   2.531
  -2   8   5  34.765   3.059
   1  -8  -5 -0.1952  1.1058
  -1   8   5  3.0512  0.9295
  -1   8   5  1.7113  1.4078
  -1   8   5  0.1833  1.0780
   0  -8  -5  214.59    6.17
   0   8   5  198.31    9.22
   0   8   5  209.97    8.43
   0   8   5  201.16   15.97
  -1  -8  -5  150.70    8.50
  -1  -8  -5  148.33    6.56
   1   8   5  137.82    7.90
   1   8   5  135.95    5.71
   1   8   5  138.16    8.52
  -2  -8  -5  23.100   2.407
   2   8   5  24.992   3.111
   2   8   5  20.451   1.535
  -2  -8  -5  28.623   3.106
  -2  -8  -5  23.900   3.422
  -3  -8  -5  16.817   2.541
  -3  -8  -5  16.345   2.026
   3   8   5  16.348   1.404
   3   8   5  17.341   1.842
  -3  -8  -5  21.650   5.255
  -3  -8  -5  20.176   5.019
  -4  -8  -5  44.461   4.065
  -4  -8  -5  52.711   3.962
   4   8   5  58.576   4.239
   4   8   5  47.128   3.535
  -4  -8  -5  57.548   8.609
  -5  -8  -5  54.518   4.969
  -5  -8  -5  57.910   4.862
   5   8   5  62.458   5.160
  -5  -8  -5  63.076  10.560
  -6  -8  -5  -1.740   1.776
  -6  -8  -5  1.3600  1.8941
   6   8   5  0.1476  2.0373
  -6  -8  -5  -2.010  11.824
   3  -9  -5  351.61   18.66
  -3   9   5  343.67   21.67
   2  -9  -5  102.81    6.00
  -2   9   5  99.803   7.198
  -2   9   5  97.222   6.101
   1  -9  -5  12.857   1.973
  -1   9   5  12.891   1.948
  -1   9   5  13.527   2.437
  -1   9   5  13.430   2.088
   0  -9  -5  18.854   1.751
   0   9   5  19.393   2.182
   0   9   5  18.996   1.902
   0   9   5  14.275   2.329
  -1  -9  -5  1.4785  1.1143
   1   9   5  1.0922  1.2811
   1   9   5  0.0931  1.2687
   1   9   5 -0.3074  1.8257
  -2  -9  -5  22.903   2.671
   2   9   5  24.438   3.198
   2   9   5  24.799   2.296
   2   9   5  21.079   2.557
  -3  -9  -5  3.3160  1.4890
   3   9   5  1.9895  2.4388
  -3  -9  -5  -4.087   3.351
  -3  -9  -5  0.4658  4.6509
  -4  -9  -5  33.782   3.227
  -4  -9  -5  34.374   3.048
   4   9   5  27.528   3.840
  -4  -9  -5  31.086   6.672
  -5  -9  -5  39.363   4.693
  -5  -9  -5  38.008   4.209
   5   9   5  50.953   4.720
  -5  -9  -5  28.490   8.891
   2 -10  -5  29.180   3.645
  -2  10   5  23.841   3.719
  -2  10   5  24.705   2.630
   1 -10  -5  73.341   4.913
  -1  10   5  60.025   5.087
  -1  10   5  66.126   5.233
   0  10   5  116.49    7.30
   0  10   5  104.27    6.02
   0  10   5  104.02    8.69
  -1 -10  -5  22.158   2.709
   1  10   5  22.027   3.056
  -2 -10  -5  14.108   2.733
   2  10   5  16.232   2.347
  -3 -10  -5  -2.885   1.735
   3  10   5  1.1013  2.1367
  -4 -10  -5  2.2005  2.0078
  -4 -10  -5 -0.2264  1.7840
   4  10   5  9.8269  3.2255
  -4 -10  -5  4.8827  5.2359
   3   9  -6  1.7509  1.9312
  -3  -9   6   6.461  10.236
   2   9  -6  7.0845  2.5903
  -2  -9   6  9.4459  2.3998
  -2  -9   6  -2.082   9.986
   1   9  -6  95.163   6.783
  -1  -9   6  89.701   6.998
  -1  -9   6  83.125  11.367
   0   9  -6  6.9537  2.1225
   0  -9   6  2.2248  2.2373
   0  -9   6  10.437   6.355
  -1   9  -6  229.25   12.57
   1  -9   6  220.80   19.67
   1  -9   6  265.29   18.52
   2  -9   6  185.57   15.79
   4   8  -6  568.74   27.04
  -4  -8   6  529.88   27.08
  -4  -8   6  654.42   58.34
   3   8  -6  259.85   15.61
  -3  -8   6  259.11   18.02
  -3  -8   6  231.16   16.59
  -3  -8   6  308.80   24.99
   2   8  -6  -1.364   1.640
  -2  -8   6  -3.693   2.579
  -2  -8   6  1.2616  6.6226
   1   8  -6  8.3601  1.8794
  -1  -8   6  9.3250  2.9184
  -1  -8   6  21.395   6.637
   0   8  -6  33.458   2.852
   0  -8   6  39.414   3.186
   0  -8   6  31.405   7.491
  -1   8  -6  8.6728  1.9188
   1  -8   6  5.4436  1.8125
   1  -8   6  9.1370  2.6138
   1  -8   6  8.8825  5.9332
  -2   8  -6  8.0027  2.0468
   2  -8   6  7.8489  2.1328
   2  -8   6  9.0124  2.1215
   2  -8   6  6.4384  4.9935
  -3   8  -6  25.941   3.270
  -3   8  -6  21.420   3.553
   3  -8   6  31.176   3.262
   3  -8   6  31.467   3.178
   3  -8   6  19.273   7.724
   5   7  -6  0.8767  1.5356
  -5  -7   6 -0.1442  1.7561
  -5  -7   6 -0.3252  1.9775
  -5  -7   6   1.215  13.349
   4   7  -6  3.1249  1.9922
  -4  -7   6  3.1000  1.3161
  -4  -7   6  1.4105  1.7777
  -4  -7   6  -7.706  10.941
   3   7  -6  39.431   3.586
   3   7  -6  47.739   3.567
  -3  -7   6  51.626   3.042
  -3  -7   6  48.243   2.671
  -3  -7   6  56.730  11.770
   2   7  -6  4.7468  2.0301
  -2  -7   6  2.0101  1.1735
  -2  -7   6  1.7007  0.7286
  -2  -7   6 -0.0206  1.8018
  -2  -7   6  1.6920  6.2551
   1   7  -6  211.60   15.78
  -1  -7   6  198.87   17.70
  -1  -7   6  208.20   12.74
  -1  -7   6  214.32   12.39
  -1  -7   6  237.38   17.83
  -1  -7   6  215.20   15.50
   0   7  -6  303.35   11.02
   0  -7   6  313.54   15.86
   0  -7   6  342.65   28.09
   0  -7   6  349.05   26.81
  -1   7  -6  89.271   6.098
  -1   7  -6  85.788   4.344
   1  -7   6  87.714   4.174
   1  -7   6  90.706   4.998
   1  -7   6  106.66   12.29
   1  -7   6  89.604  10.112
  -2   7  -6  0.4657  1.5572
  -2   7  -6 -0.3600  1.1939
   2  -7   6  1.0472  1.2575
   2  -7   6  0.5925  1.7902
   2  -7   6  -3.835   4.233
  -3   7  -6  27.211   2.968
  -3   7  -6  24.758   2.382
   3  -7   6  26.195   2.933
   3  -7   6  27.629   3.203
   3  -7   6  24.275   5.752
  -4   7  -6 -0.9965  3.1219
  -4   7  -6  2.0291  1.6399
   4  -7   6  1.8275  2.3867
   4  -7   6  3.5677  2.1722
   4  -7   6  -3.765   7.152
   6   6  -6  13.502   2.610
  -6  -6   6  14.102   3.151
  -6  -6   6  13.509   2.909
  -6  -6   6  -6.401  12.002
   5   6  -6  72.096   4.175
  -5  -6   6  66.554   5.092
  -5  -6   6  62.080   3.882
  -5  -6   6  55.699  14.019
   4   6  -6  68.593   4.482
  -4  -6   6  60.071   3.664
  -4  -6   6  61.762   4.078
  -4  -6   6  60.976  12.391
   3   6  -6  15.393   1.705
   3   6  -6  13.278   1.522
  -3  -6   6  13.321   1.952
  -3  -6   6  14.799   1.543
  -3  -6   6  15.458   1.420
  -3  -6   6  9.2887  7.9235
   2   6  -6  70.891   3.914
   2   6  -6  68.140   4.197
  -2  -6   6  70.289   5.013
  -2  -6   6  70.469   4.657
  -2  -6   6  77.360   5.093
  -2  -6   6  51.289   6.800
   1   6  -6  72.520   3.910
  -1  -6   6  69.386   3.861
  -1  -6   6  71.992   4.290
  -1  -6   6  77.333   3.827
  -1  -6   6  61.599   7.417
  -1  -6   6  77.275   8.303
   0   6  -6  132.81    9.07
   0   6  -6  132.14    4.66
   0  -6   6  126.04    9.40
   0  -6   6  132.15    5.13
   0  -6   6  139.54    5.49
   0  -6   6  131.23   10.57
   0  -6   6  130.69    9.66
  -1   6  -6  73.487   4.918
  -1   6  -6  68.449   3.411
   1  -6   6  74.499   3.675
   1  -6   6  74.163   4.437
   1  -6   6  71.565   8.522
   1  -6   6  80.540   8.109
  -2   6  -6  97.388   5.192
  -2   6  -6  100.21    5.83
   2  -6   6  103.43    5.18
   2  -6   6  110.32    4.53
   2  -6   6  113.51   10.68
   2  -6   6  112.46    9.76
  -3   6  -6  2.6363  1.1743
  -3   6  -6 -0.3494  1.5141
   3  -6   6  2.1177  1.2507
   3  -6   6  0.9410  1.1733
   3  -6   6  3.6475  6.2609
  -4   6  -6  4.1754  2.5592
   4  -6   6 -0.6259  2.1241
   4  -6   6  2.8901  2.2094
   4  -6   6  5.0083  7.7350
  -5   6  -6  2.6870  3.1260
   5  -6   6  0.7446  2.0714
   5  -6   6  -3.255   1.983
   5  -6   6   2.295  10.053
   6   5  -6  24.011   3.532
  -6  -5   6  18.876   3.352
  -6  -5   6  18.455   3.080
  -6  -5   6   4.802  14.702
   5   5  -6  26.100   2.929
  -5  -5   6  25.451   3.139
  -5  -5   6  29.437   3.015
  -5  -5   6  19.720   9.304
   4   5  -6  11.058   1.264
   4   5  -6  13.459   1.684
  -4  -5   6  10.439   2.024
  -4  -5   6  14.297   1.509
  -4  -5   6  11.834   9.368
   3   5  -6  2.2871  0.9263
   3   5  -6  2.2220  0.9983
  -3  -5   6  2.4576  1.0762
  -3  -5   6  0.8684  0.7865
  -3  -5   6  1.1196  1.1450
  -3  -5   6 -0.4142  3.9262
  -3  -5   6  -1.146   6.224
   2   5  -6  125.21    9.95
   2   5  -6  128.92    4.90
   2   5  -6  138.15    5.51
  -2  -5   6  140.52    7.59
  -2  -5   6  131.21    5.96
  -2  -5   6  130.44    4.44
   2   5  -6  126.25   13.71
  -2  -5   6  144.96   10.54
  -2  -5   6  120.40    8.47
   1   5  -6  84.777   9.240
   1   5  -6  97.807   4.289
   1   5  -6  112.76    6.62
  -1  -5   6  100.59    4.99
  -1  -5   6  96.086   6.770
  -1  -5   6  97.257   6.726
   1   5  -6  74.182   9.181
  -1  -5   6  94.371   9.230
  -1  -5   6  92.463   7.850
   0   5  -6  27.179   2.286
   0   5  -6  25.111   1.289
   0   5  -6  23.207   2.079
   0  -5   6  25.333   1.995
   0  -5   6  19.595   1.704
   0  -5   6  24.382   1.836
   0  -5   6  24.290   2.047
   0   5  -6  13.484   4.761
   0  -5   6  18.100   4.466
   0  -5   6  28.292   5.399
  -1   5  -6  39.208   2.225
  -1   5  -6  40.779   2.019
   1  -5   6  41.614   3.014
   1  -5   6  38.086   2.369
   1  -5   6  43.750   2.421
  -1   5  -6  33.085   6.464
   1  -5   6  27.876   5.206
   1  -5   6  41.091   5.425
  -2   5  -6  83.171   3.881
  -2   5  -6  89.984   3.605
  -2   5  -6  74.635   6.675
   2  -5   6  97.994   5.193
   2  -5   6  91.495   4.392
   2  -5   6  77.903   8.306
   2  -5   6  107.75   10.03
  -3   5  -6  605.10   22.36
  -3   5  -6  621.21   23.25
   3  -5   6  566.65   18.55
   3  -5   6  597.70   21.97
   3  -5   6  685.84   38.70
   3  -5   6  655.35   35.25
  -4   5  -6  300.77   15.31
   4  -5   6  301.96   14.93
   4  -5   6  297.34   11.80
   4  -5   6  347.89   19.18
  -5   5  -6  125.10    8.65
   5  -5   6  128.28    8.66
   5  -5   6  124.04    8.68
   5  -5   6  116.81   13.15
  -6   5  -6  37.930   3.961
   6  -5   6  35.523   4.200
   6  -5   6  34.270   4.350
   6  -5   6  22.375  10.861
   7   4  -6  27.347   3.408
  -7  -4   6  18.947   4.318
  -7  -4   6  18.569   3.542
  -7  -4   6  -25.71   19.95
   6   4  -6  75.441   4.815
  -6  -4   6  68.365   7.394
  -6  -4   6  47.756  14.143
   5   4  -6  6.0659  1.0733
   5   4  -6  6.3295  1.2062
   5   4  -6  6.9545  1.6839
  -5  -4   6  9.6836  1.7828
  -5  -4   6  -3.835  10.390
   4   4  -6  76.597   4.156
   4   4  -6  84.435   3.412
  -4  -4   6  73.712   3.984
  -4  -4   6  67.361  11.826
   3   4  -6  28.997   1.681
   3   4  -6  29.209   1.955
  -3  -4   6  30.107   2.060
   3   4  -6  21.208   5.718
  -3  -4   6  19.113   6.746
  -3  -4   6  23.814   6.427
   2   4  -6  265.89    9.93
   2   4  -6  283.06   10.40
   2   4  -6  281.17   20.18
  -2  -4   6  296.95   15.49
  -2  -4   6  309.59   20.39
  -2  -4   6  296.83   16.46
   2   4  -6  290.92   18.53
  -2  -4   6  303.46   18.25
   1   4  -6  11.919   1.067
   1   4  -6  9.1267  0.9460
  -1  -4   6  12.280   1.242
  -1  -4   6  13.074   0.988
  -1  -4   6  13.557   0.995
  -1  -4   6  10.248   1.400
   1   4  -6 -0.5159  3.9189
  -1  -4   6  8.4037  4.2369
  -1  -4   6  11.911   4.242
   0   4  -6  204.94    6.80
   0   4  -6  210.62    5.91
   0  -4   6  211.03    8.63
   0  -4   6  220.85   13.67
   0  -4   6  189.43   11.25
   0  -4   6  207.52   10.13
   0  -4   6  191.50   11.25
   0   4  -6  193.89   14.09
   0  -4   6  194.09   14.21
   0  -4   6  230.92   13.01
  -1   4  -6  140.78    7.30
  -1   4  -6  143.42    3.93
  -1   4  -6  125.95    8.93
   1  -4   6  133.87    4.48
   1  -4   6  127.40    3.91
   1  -4   6  134.61    6.67
  -1   4  -6  130.48   11.32
   1  -4   6  142.08    9.21
   1  -4   6  152.64   10.48
  -2   4  -6  20.109   1.655
  -2   4  -6  20.093   1.808
  -2   4  -6  15.744   2.070
   2  -4   6  18.793   1.187
   2  -4   6  18.936   1.436
  -2   4  -6  10.580   3.403
   2  -4   6  14.777   3.619
   2  -4   6  25.069   5.414
  -3   4  -6  50.195   2.512
   3  -4   6  55.107   3.145
   3  -4   6  52.731   2.676
   3  -4   6  55.145   8.955
   3  -4   6  48.375   6.932
  -4   4  -6  48.119   3.496
   4  -4   6  56.942   3.457
   4  -4   6  52.288   3.419
   4  -4   6  51.524   8.840
  -5   4  -6  98.550   6.401
   5  -4   6  93.816   5.342
   5  -4   6  108.83    6.68
   5  -4   6  96.435  12.123
  -6   4  -6 -0.1715  2.1856
   6  -4   6  0.8479  1.6286
   6  -4   6  -10.61   11.85
   7   3  -6  101.11    5.93
  -7  -3   6  97.635   6.786
   6   3  -6  34.952   3.268
  -6  -3   6  36.221   2.970
  -6  -3   6  13.150  14.006
   5   3  -6  3.8126  1.1654
   5   3  -6  6.3371  1.6233
   5   3  -6  4.7777  1.0223
  -5  -3   6  5.6768  0.8822
  -5  -3   6  6.1628  1.9812
  -5  -3   6  13.224   7.744
   4   3  -6  18.606   1.420
   4   3  -6  20.542   1.594
   4   3  -6  17.487   1.677
  -4  -3   6  19.524   1.789
  -4  -3   6  19.715   1.262
  -4  -3   6  14.113   8.809
  -4  -3   6  17.046   7.052
   3   3  -6  16.451   1.231
   3   3  -6  16.315   1.114
  -3  -3   6  18.119   1.496
   3   3  -6  10.863   4.723
  -3  -3   6  17.462   6.272
  -3  -3   6  8.5011  4.7830
   2   3  -6  49.123   2.153
   2   3  -6  47.460   1.861
   2   3  -6  42.071   5.512
   2   3  -6  44.832   4.434
  -2  -3   6  49.264   2.285
  -2  -3   6  50.495   2.294
   2   3  -6  45.531   6.359
  -2  -3   6  37.870   5.453
  -2  -3   6  30.473   4.822
   1   3  -6  195.18   11.54
   1   3  -6  204.96   16.36
   1   3  -6  184.34    6.22
   1   3  -6  193.64   17.81
  -1  -3   6  167.09    8.77
  -1  -3   6  163.73   13.45
  -1  -3   6  190.39   12.36
  -1  -3   6  191.99   12.54
  -1  -3   6  159.54    5.49
   1   3  -6  170.58   12.09
   1   3  -6  190.29   13.77
  -1  -3   6  185.88   13.30
  -1  -3   6  164.77    9.66
   0   3  -6  1.0799  1.0083
   0   3  -6  0.5627  0.8957
   0   3  -6  1.2027  0.8505
   0   3  -6  0.4480  0.6587
   0   3  -6  0.2539  0.4066
   0  -3   6  0.3291  0.6215
   0  -3   6 -0.3994  0.5715
   0  -3   6  0.4631  0.3940
   0  -3   6  0.1731  0.6414
   0  -3   6  0.6798  0.2483
   0  -3   6  0.7229  0.2580
   0   3  -6 -0.9498  2.8662
   0   3  -6  -2.369   2.375
   0  -3   6  1.4736  2.7768
   0  -3   6  0.0221  2.5751
  -1   3  -6  342.57   12.14
  -1   3  -6  338.03    8.81
  -1   3  -6  322.51   14.44
   1  -3   6  329.93   12.33
   1  -3   6  341.62   16.90
   1  -3   6  325.62   12.44
  -1   3  -6  351.09   27.18
   1  -3   6  326.79   22.06
   1  -3   6  361.09   15.44
  -2   3  -6  230.37   15.19
  -2   3  -6  248.70   11.42
   2  -3   6  247.65    8.64
   2  -3   6  246.00    6.40
   2  -3   6  233.26   14.18
   2  -3   6  222.97    7.83
  -2   3  -6  223.49   17.98
   2  -3   6  227.09   16.87
   2  -3   6  216.14   14.95
  -3   3  -6  58.957   3.739
  -3   3  -6  70.096   3.551
  -3   3  -6  58.531   4.112
  -3   3  -6  57.297   3.666
   3  -3   6  61.864   2.460
   3  -3   6  63.262   2.762
  -3   3  -6  50.793   6.083
   3  -3   6  54.982   5.900
  -4   3  -6  38.423   2.962
  -4   3  -6  43.062   3.349
  -4   3  -6  46.479   3.241
   4  -3   6  44.295   2.829
   4  -3   6  45.186   2.971
   4  -3   6  45.227   9.798
   4  -3   6  41.346   7.630
  -5   3  -6  -2.234   1.992
   5  -3   6  0.2094  1.6453
   5  -3   6  -1.251   1.557
   5  -3   6  -3.623   4.839
  -6   3  -6  36.791   4.487
   6  -3   6  42.319   3.821
   6  -3   6  43.101   3.271
   6  -3   6  27.552  10.690
   7  -3   6  31.312   3.765
   7  -3   6  39.683   4.028
   7  -3   6  27.613  13.688
   7   2  -6  2.8181  1.6082
  -7  -2   6  3.7565  2.1361
   6   2  -6  24.705   2.871
   6   2  -6  20.184   2.642
   6   2  -6  20.933   2.020
  -6  -2   6  22.726   2.258
  -6  -2   6  19.780   2.869
  -6  -2   6   7.011  12.309
   5   2  -6  97.940   3.827
   5   2  -6  105.94    5.06
   5   2  -6  93.524   5.099
  -5  -2   6  101.33    5.56
  -5  -2   6  101.57    6.80
   5   2  -6  106.40   12.69
  -5  -2   6  72.964  13.375
   4   2  -6 1161.32   76.06
   4   2  -6 1154.84   63.79
   4   2  -6 1106.43   26.06
  -4  -2   6 1078.79   28.77
  -4  -2   6 1139.45   61.10
  -4  -2   6 1353.37   69.05
   3   2  -6  209.57    5.80
   3   2  -6  220.29    7.96
   3   2  -6  212.73   13.53
   3   2  -6  210.23   19.23
  -3  -2   6  219.13   14.57
  -3  -2   6  220.47   11.22
  -3  -2   6  188.15    8.64
   3   2  -6  215.39   17.94
   3   2  -6  206.13   14.73
  -3  -2   6  247.49   17.89
  -3  -2   6  200.29   13.33
   2   2  -6  299.44   13.97
   2   2  -6  279.92    8.73
   2   2  -6  289.46   14.26
   2   2  -6  299.46   18.09
   2   2  -6  310.28   15.17
  -2  -2   6  309.14   15.56
  -2  -2   6  312.03   10.86
  -2  -2   6  256.01   17.12
  -2  -2   6  304.16   12.57
  -2  -2   6  326.91   20.23
   2   2  -6  300.94   29.04
   2   2  -6  327.84   18.95
  -2  -2   6  303.65   20.26
  -2  -2   6  344.93   16.92
   1   2  -6  55.314   3.990
   1   2  -6  51.107   3.221
   1   2  -6  52.788   2.935
   1   2  -6  51.078   1.864
   1   2  -6  52.342   3.096
  -1  -2   6  52.264   2.897
  -1  -2   6  51.544   3.054
  -1  -2   6  47.381   2.415
  -1  -2   6  46.858   1.955
  -1  -2   6  52.514   1.879
  -1  -2   6  48.775   3.031
   1   2  -6  46.254   6.353
   1   2  -6  42.953   4.982
  -1  -2   6  58.204   6.327
  -1  -2   6  43.457   5.460
   0   2  -6  4.0570  0.7980
   0   2  -6  2.4117  0.6490
   0   2  -6  4.7609  0.9254
   0   2  -6  3.1991  0.5112
   0  -2   6  3.2963  0.6838
   0  -2   6  3.2823  0.8747
   0  -2   6  3.8548  0.5225
   0  -2   6  3.8868  0.3546
   0  -2   6  3.4819  0.9487
   0  -2   6  3.6715  0.5534
   0   2  -6  0.0648  1.6897
   0   2  -6  2.1810  2.5979
   0  -2   6  1.7946  1.8191
   0  -2   6  2.8490  2.7519
  -1   2  -6  2.6546  0.6687
  -1   2  -6  3.3363  0.7533
  -1   2  -6  1.6856  0.9088
  -1   2  -6  4.8242  0.5829
   1  -2   6  4.5288  0.8519
   1  -2   6  3.5579  0.6622
   1  -2   6  3.8580  0.8145
   1  -2   6  3.9347  0.7711
  -1   2  -6 -0.6107  1.8842
  -1   2  -6  1.8571  3.3610
   1  -2   6  7.5189  3.1121
   1  -2   6  3.5767  1.8836
  -2   2  -6  454.05   23.87
  -2   2  -6  506.12   16.55
  -2   2  -6  484.36   34.58
   2  -2   6  475.89   30.53
   2  -2   6  450.36   16.38
   2  -2   6  489.47   21.81
   2  -2   6  493.03   12.89
  -2   2  -6  508.51   34.59
  -2   2  -6  511.98   43.23
   2  -2   6  535.26   25.06
   2  -2   6  550.69   22.02
  -3   2  -6  22.653   1.641
  -3   2  -6  23.292   2.627
  -3   2  -6  17.522   1.450
  -3   2  -6  18.409   1.663
   3  -2   6  25.867   1.854
   3  -2   6  23.856   1.410
   3  -2   6  22.103   1.533
  -3   2  -6  19.754   5.597
   3  -2   6  22.987   5.887
   3  -2   6  27.690   6.392
  -4   2  -6  6.7362  0.7627
  -4   2  -6  10.215   1.988
  -4   2  -6  8.1858  1.0742
  -4   2  -6  7.6314  1.0637
   4  -2   6  7.7571  1.2946
   4  -2   6  8.4181  0.8720
  -4   2  -6 -0.2121  6.5148
   4  -2   6  3.7930  5.9993
   4  -2   6  1.7367  7.8791
  -5   2  -6  2.9183  1.1994
  -5   2  -6  3.8608  1.2124
  -5   2  -6  5.5244  1.5754
   5  -2   6  4.9895  1.5051
   5  -2   6  3.8983  5.2779
  -6   2  -6  0.6624  1.5437
   6  -2   6  1.2599  1.8229
   6  -2   6  -3.298   9.750
  -7   2  -6  22.786   2.988
   7  -2   6  22.507   2.190
   7  -2   6  26.362   2.849
   7  -2   6  -0.340  16.594
   7   1  -6  23.329   3.173
  -7  -1   6  23.017   3.489
   6   1  -6  76.544   5.359
   6   1  -6  78.959   4.629
   6   1  -6  72.406   5.183
  -6  -1   6  79.436   6.911
  -6  -1   6  65.835   6.773
   6   1  -6  63.239  10.367
   5   1  -6  8.8021  1.5798
   5   1  -6  11.342   1.809
   5   1  -6  9.2663  1.6191
  -5  -1   6  12.864   1.310
  -5  -1   6  10.014   1.766
   5   1  -6  11.813   6.057
  -5  -1   6  6.1570  6.7614
   4   1  -6  53.438   3.842
   4   1  -6  57.015   2.461
   4   1  -6  58.328   2.434
   4   1  -6  53.490   2.265
  -4  -1   6  55.122   2.841
  -4  -1   6  57.453   4.156
   4   1  -6  53.408   9.563
  -4  -1   6  46.071   6.939
  -4  -1   6  52.908   8.606
   3   1  -6  54.699   2.590
   3   1  -6  49.757   2.793
   3   1  -6  52.396   3.679
   3   1  -6  55.372   2.978
   3   1  -6  54.532   2.594
   3   1  -6  54.883   2.163
  -3  -1   6  56.772   3.353
  -3  -1   6  55.621   4.180
  -3  -1   6  51.257   2.920
   3   1  -6  49.032   5.395
   3   1  -6  58.348   8.292
  -3  -1   6  61.314   7.792
   2   1  -6  12.738   1.011
   2   1  -6  13.053   1.330
   2   1  -6  11.208   0.901
   2   1  -6  13.216   1.103
   2   1  -6  10.840   0.736
  -2  -1   6  13.740   1.169
  -2  -1   6  11.859   0.993
  -2  -1   6  10.494   1.189
  -2  -1   6  12.637   1.079
  -2  -1   6  12.809   0.931
  -2  -1   6  12.001   0.854
   2   1  -6  10.400   3.533
   2   1  -6  5.6060  3.5221
  -2  -1   6  12.688   3.675
  -2  -1   6  3.6121  4.1288
   1   1  -6  37.350   2.608
   1   1  -6  34.203   1.773
   1   1  -6  32.836   1.761
   1   1  -6  36.802   2.142
  -1  -1   6  34.099   1.575
  -1  -1   6  36.994   1.292
  -1  -1   6  34.085   1.967
  -1  -1   6  33.630   1.355
  -1  -1   6  36.368   2.200
  -1  -1   6  34.985   1.790
   1   1  -6  37.597   3.511
   1   1  -6  30.854   4.281
  -1  -1   6  32.824   4.009
  -1  -1   6  32.563   4.505
   0   1  -6  4.1938  0.4372
   0   1  -6  4.3171  0.8935
   0   1  -6  5.3408  0.9127
   0   1  -6  6.2623  0.7973
   0  -1   6  5.0860  0.5858
   0  -1   6  3.9806  0.5108
   0  -1   6  5.1086  0.7759
   0  -1   6  4.0151  0.7411
   0  -1   6  3.8655  0.7625
   0   1  -6  8.6314  2.2418
   0   1  -6  6.7526  2.4193
   0  -1   6  7.6198  2.2931
   0  -1   6  1.3495  2.6704
  -1   1  -6  157.27   11.02
  -1   1  -6  153.93    5.92
  -1   1  -6  146.42   15.62
  -1   1  -6  155.50    5.35
   1  -1   6  133.65    6.32
   1  -1   6  154.44    9.63
   1  -1   6  134.01    5.57
   1  -1   6  148.74    5.39
   1  -1   6  143.24    5.48
   1  -1   6  150.89    8.20
  -1   1  -6  155.28   10.27
  -1   1  -6  153.43    7.05
   1  -1   6  141.84    8.48
   1  -1   6  158.99   11.12
  -2   1  -6  47.293   2.303
  -2   1  -6  44.621   2.387
  -2   1  -6  47.740   3.377
  -2   1  -6  46.222   1.772
  -2   1  -6  41.865   1.575
   2  -1   6  45.318   2.271
   2  -1   6  43.832   1.701
   2  -1   6  40.332   1.999
   2  -1   6  47.752   1.928
  -2   1  -6  44.498   4.917
  -2   1  -6  37.198   4.657
   2  -1   6  35.076   5.133
   2  -1   6  44.702   5.695
  -3   1  -6  84.278   3.810
  -3   1  -6  92.870   3.798
  -3   1  -6  86.517   6.021
  -3   1  -6  95.523   3.980
  -3   1  -6  89.988   4.233
   3  -1   6  89.503   5.812
   3  -1   6  84.623   3.646
   3  -1   6  85.976   3.496
  -3   1  -6  74.448   9.737
  -3   1  -6  72.545   8.989
   3  -1   6  78.745   7.476
   3  -1   6  84.332   8.946
  -4   1  -6  57.008   3.995
  -4   1  -6  52.618   4.758
  -4   1  -6  50.984   3.287
  -4   1  -6  52.695   3.090
   4  -1   6  53.193   2.305
   4  -1   6  58.571   2.889
   4  -1   6  50.397   2.452
  -4   1  -6  51.653   7.826
   4  -1   6  42.144   7.403
   4  -1   6  45.065   7.597
  -5   1  -6  178.01    9.30
  -5   1  -6  183.68   12.21
  -5   1  -6  181.51   10.04
   5  -1   6  185.09    7.05
   5  -1   6  182.13   14.97
  -5   1  -6  172.78   14.73
   5  -1   6  183.88   15.03
  -6   1  -6  266.35   18.70
  -6   1  -6  254.99   20.13
  -6   1  -6  261.23   12.83
   6  -1   6  252.11   10.43
   6  -1   6  269.12   24.02
  -7   1  -6  0.9634  3.2095
   7  -1   6  6.7374  2.4533
   7  -1   6   3.766  10.395
   7   0  -6  6.5754  2.0302
   7   0  -6  4.8512  1.5636
   7   0  -6  7.1498  2.1475
  -7   0   6  3.4225  2.9760
  -7   0   6  7.6114  2.1422
   6   0  -6  4.5046  1.1129
   6   0  -6  3.3676  1.6920
   6   0  -6  6.8177  1.7628
   6   0  -6  5.9004  2.2012
  -6   0   6  5.7183  1.9285
  -6   0   6  4.9277  1.8359
   6   0  -6   7.282  10.296
   5   0  -6  584.54   15.74
   5   0  -6  585.79   22.37
   5   0  -6  601.89   21.75
  -5   0   6  622.70   45.93
  -5   0   6  596.66   49.37
   5   0  -6  632.76   37.74
  -5   0   6  626.17   39.69
   4   0  -6  120.39    7.05
   4   0  -6  113.21    6.39
   4   0  -6  117.61    9.73
   4   0  -6  119.75    3.64
   4   0  -6  116.40    3.05
  -4   0   6  121.33    8.11
  -4   0   6  117.68    6.53
   4   0  -6  123.18   15.61
  -4   0   6  87.870  10.775
  -4   0   6  118.03   14.21
   3   0  -6  185.25    7.66
   3   0  -6  179.29    5.36
   3   0  -6  182.94    6.05
   3   0  -6  176.05    6.41
   3   0  -6  179.32   11.42
   3   0  -6  177.31   12.73
  -3   0   6  180.05    6.28
  -3   0   6  158.99    8.00
  -3   0   6  179.01    4.22
  -3   0   6  184.80    7.10
   3   0  -6  185.42   11.43
   3   0  -6  167.19   11.95
  -3   0   6  156.74   12.17
  -3   0   6  180.55   12.71
   2   0  -6  184.93   11.23
   2   0  -6  178.04    6.05
   2   0  -6  182.70    9.32
   2   0  -6  189.43   11.62
   2   0  -6  176.68   10.60
  -2   0   6  194.91    5.56
  -2   0   6  183.91    9.55
  -2   0   6  195.55    6.97
  -2   0   6  185.21    7.69
  -2   0   6  176.29    8.89
   2   0  -6  176.25   11.13
   2   0  -6  172.22   12.23
  -2   0   6  183.13    9.96
  -2   0   6  187.43   12.28
   1   0  -6  17.094   1.726
   1   0  -6  16.604   1.298
   1   0  -6  15.627   1.021
   1   0  -6  15.667   1.222
   1   0  -6  16.294   0.755
  -1   0   6  16.557   0.999
  -1   0   6  16.889   1.172
  -1   0   6  13.500   0.709
  -1   0   6  13.778   0.891
  -1   0   6  16.570   1.252
   1   0  -6  11.836   3.116
   1   0  -6  17.245   3.530
  -1   0   6  10.773   3.234
  -1   0   6  10.906   3.043
   0   0  -6  910.72   49.97
   0   0  -6  858.85   50.27
   0   0  -6  906.74   59.50
   0   0  -6  841.31   36.67
   0   0   6  971.80   47.16
   0   0   6  900.54   37.61
   0   0   6  911.90   27.42
   0   0   6  874.25   42.47
   0   0   6  910.08   35.24
   0   0   6  862.84   29.20
   0   0  -6  928.98   42.02
   0   0  -6  959.51   56.03
   0   0   6  969.27   39.77
   0   0   6  937.15   33.29
  -1   0  -6 4024.63  211.03
  -1   0  -6 4579.93  349.16
   1   0   6 4635.38  155.06
   1   0   6 4134.56  148.48
  -2   0  -6  766.71   34.21
  -2   0  -6  857.89   32.17
  -2   0  -6  809.68   35.28
  -2   0  -6  862.26   33.54
  -2   0  -6  941.00   62.92
   2   0   6  840.99   25.66
   2   0   6  857.04   24.88
   2   0   6  866.07   52.48
   2   0   6  873.51   59.01
   2   0   6  837.31   46.54
  -2   0  -6  930.57   49.93
  -2   0  -6  920.24   60.95
   2   0   6  954.20   38.71
   2   0   6  955.40   42.64
  -3   0  -6  217.05   15.28
  -3   0  -6  193.30    9.18
  -3   0  -6  221.10   15.38
  -3   0  -6  210.53   13.69
  -3   0  -6  232.58   15.00
   3   0   6  210.10    5.91
   3   0   6  210.26    8.39
   3   0   6  195.71   10.08
  -3   0  -6  171.10   10.12
  -3   0  -6  226.74   10.06
   3   0   6  174.58   10.72
   3   0   6  208.62   10.25
  -4   0  -6  350.78   14.74
  -4   0  -6  375.74   26.50
  -4   0  -6  374.78   13.70
  -4   0  -6  361.66   18.16
  -4   0  -6  355.29   19.75
   4   0   6  354.60   21.83
   4   0   6  328.90   10.10
   4   0   6  350.26   15.62
  -4   0  -6  334.67   24.28
  -4   0  -6  381.27   17.93
   4   0   6  417.68   17.03
   4   0   6  384.70   26.07
  -5   0  -6  75.461   4.241
  -5   0  -6  73.250   5.717
  -5   0  -6  69.566   5.201
   5   0   6  75.071   3.560
   5   0   6  74.044   5.524
  -5   0  -6  55.060   7.599
   5   0   6  59.399   8.602
  -6   0  -6  7.6158  1.9892
  -6   0  -6  5.9720  2.1366
  -6   0  -6  6.2561  1.9006
   6   0   6  6.3787  1.3906
   6   0   6  3.3966  8.8349
  -7   0  -6  3.3167  1.7232
  -7   0  -6  3.6125  1.8359
  -7   0  -6  4.0125  2.1864
   7   0   6  5.5355  1.7881
   7   0   6  1.1633  8.8520
   7  -1  -6  48.357   4.062
   7  -1  -6  46.863   4.290
   7  -1  -6  47.783   4.007
  -7   1   6  50.994   4.262
  -7   1   6  49.612   5.044
   7  -1  -6  14.255  12.120
   6  -1  -6  88.722   5.160
   6  -1  -6  82.254   4.146
   6  -1  -6  95.500   4.970
  -6   1   6  97.046   4.448
  -6   1   6  87.277   4.623
   6  -1  -6  72.453  13.499
   5  -1  -6 1298.97   43.50
   5  -1  -6 1269.01   43.79
   5  -1  -6 1380.54   71.93
  -5   1   6 1346.96   39.09
  -5   1   6 1360.31   46.37
   5  -1  -6 1470.31   88.81
   4  -1  -6  15.212   1.807
   4  -1  -6  13.385   1.752
   4  -1  -6  17.820   1.209
   4  -1  -6  18.052   1.548
   4  -1  -6  16.452   1.224
   4  -1  -6  11.720   1.462
  -4   1   6  14.366   1.458
  -4   1   6  12.730   1.668
   4  -1  -6  12.245   7.059
  -4   1   6  -4.087   5.664
   3  -1  -6  84.308   2.637
   3  -1  -6  83.769   2.643
   3  -1  -6  83.680   5.987
   3  -1  -6  80.851   2.991
   3  -1  -6  81.039   5.226
   3  -1  -6  81.702   4.070
  -3   1   6  77.991   5.189
  -3   1   6  84.395   2.691
   3  -1  -6  79.011   8.903
   3  -1  -6  78.103   7.728
  -3   1   6  81.927   9.042
  -3   1   6  81.199   9.302
   2  -1  -6  301.00   24.86
   2  -1  -6  294.38   15.37
   2  -1  -6  317.81   10.62
   2  -1  -6  300.69   16.28
   2  -1  -6  309.87   12.70
   2  -1  -6  312.55   10.85
  -2   1   6  326.74   10.22
  -2   1   6  314.11   16.30
  -2   1   6  295.23   13.31
  -2   1   6  320.67   10.17
   2  -1  -6  359.27   15.33
   2  -1  -6  307.76   19.67
  -2   1   6  350.07   14.78
  -2   1   6  314.37   15.90
   1  -1  -6  3.8416  0.4176
   1  -1  -6  4.9547  0.6353
   1  -1  -6  3.6721  0.7973
   1  -1  -6  3.5302  0.3648
  -1   1   6  3.6704  0.4993
  -1   1   6  4.7515  0.3622
  -1   1   6  3.3121  0.3211
  -1   1   6  4.8224  0.6947
  -1   1   6  4.4110  0.6065
   1  -1  -6  1.8984  1.9920
   1  -1  -6  3.5701  2.5105
  -1   1   6  6.1600  2.6135
  -1   1   6  2.8310  2.6216
   0  -1  -6  199.59   11.54
   0  -1  -6  204.06    8.68
   0  -1  -6  191.59    8.98
   0  -1  -6  193.91    7.69
   0   1   6  184.56    5.71
   0   1   6  185.53    7.28
   0   1   6  191.10    8.22
   0   1   6  199.21   10.31
   0   1   6  207.49   11.11
   0  -1  -6  186.91   11.31
   0  -1  -6  209.37   15.27
   0   1   6  191.62   11.62
   0   1   6  192.83    8.22
  -1  -1  -6 1234.88   55.92
  -1  -1  -6 1447.23   98.67
  -1  -1  -6 1470.88   85.95
  -1  -1  -6 1266.75   58.90
  -1  -1  -6 1489.38   80.44
  -1  -1  -6 1436.84   57.19
   1   1   6 1467.85   54.35
   1   1   6 1290.96   45.36
   1   1   6 1481.60  113.50
   1   1   6 1438.16   88.19
   1   1   6 1514.04   73.83
  -1  -1  -6 1466.86   70.57
  -1  -1  -6 1292.27   64.01
   1   1   6 1309.82   44.83
   1   1   6 1546.12   57.75
  -2  -1  -6  137.40    6.63
  -2  -1  -6  140.62    8.10
  -2  -1  -6  134.76    6.90
  -2  -1  -6  142.78    6.95
  -2  -1  -6  140.73   10.15
   2   1   6  127.79    4.49
   2   1   6  119.86    5.70
   2   1   6  121.68    3.63
   2   1   6  131.73    6.40
   2   1   6  136.91    5.49
  -2  -1  -6  151.14    9.44
  -2  -1  -6  132.63   10.68
   2   1   6  133.93    9.70
   2   1   6  127.76    7.76
  -3  -1  -6  187.54   10.41
  -3  -1  -6  184.47    7.90
  -3  -1  -6  189.96   10.34
  -3  -1  -6  181.91   11.35
  -3  -1  -6  183.26   13.52
   3   1   6  175.84    5.61
   3   1   6  188.27   10.81
   3   1   6  167.59    5.49
  -3  -1  -6  203.84   11.58
  -3  -1  -6  199.62   14.43
   3   1   6  159.37   11.61
   3   1   6  205.58   10.13
  -4  -1  -6  803.09   59.98
  -4  -1  -6  824.26   41.18
  -4  -1  -6  810.45   29.45
  -4  -1  -6  851.14   50.57
  -4  -1  -6  883.69   56.50
  -4  -1  -6  862.13   41.49
   4   1   6  819.97   28.33
   4   1   6  787.25   51.60
   4   1   6  778.31   31.68
  -4  -1  -6  878.21   57.20
  -4  -1  -6  895.54   35.00
   4   1   6  829.07   50.49
   4   1   6  915.53   47.63
  -5  -1  -6 1762.97  117.61
  -5  -1  -6 1699.30  110.79
   5   1   6 1634.91   57.03
   5   1   6 1735.08   55.35
  -5  -1  -6 1806.20  115.51
   5   1   6 1823.63  124.10
  -6  -1  -6  0.0041  1.1095
  -6  -1  -6 -0.9292  1.5035
  -6  -1  -6  -3.835   2.256
   6   1   6  0.4336  0.6985
   6   1   6  -1.035   1.525
  -6  -1  -6  -3.403  10.207
   6   1   6  3.5658  8.8167
  -7  -1  -6 -0.3360  1.4263
  -7  -1  -6  -1.160   1.779
  -7  -1  -6 -0.6268  1.4512
   7   1   6  -1.959   1.398
   7  -2  -6  1.5679  1.4541
   7  -2  -6  3.3983  2.2785
  -7   2   6  3.7040  2.0795
  -7   2   6  5.1500  3.2753
   7  -2  -6  -0.199  12.870
   6  -2  -6  66.056   3.840
   6  -2  -6  67.850   4.513
  -6   2   6  70.680   6.140
  -6   2   6  67.476   4.166
   6  -2  -6  63.163  13.880
   5  -2  -6  27.051   1.908
   5  -2  -6  33.530   2.294
   5  -2  -6  31.859   2.940
   5  -2  -6  29.809   2.656
  -5   2   6  26.952   2.215
  -5   2   6  27.071   2.893
   5  -2  -6  14.709   7.132
   4  -2  -6  328.38   19.82
   4  -2  -6  343.41   18.87
   4  -2  -6  340.08    8.36
   4  -2  -6  339.21   14.85
   4  -2  -6  341.39   27.27
   4  -2  -6  331.32   10.86
  -4   2   6  335.59    8.47
  -4   2   6  341.71    9.79
  -4   2   6  340.51   27.01
   4  -2  -6  326.91   31.45
   4  -2  -6  371.29   17.31
  -4   2   6  379.07   22.56
   3  -2  -6  693.80   19.96
   3  -2  -6  705.75   20.43
   3  -2  -6  666.43   21.16
   3  -2  -6  682.82   18.74
  -3   2   6  704.02   22.83
  -3   2   6  690.53   42.52
   3  -2  -6  749.34   55.59
   3  -2  -6  753.63   33.33
  -3   2   6  805.54   31.71
   2  -2  -6  38.237   2.551
   2  -2  -6  41.626   1.937
   2  -2  -6  45.009   2.163
   2  -2  -6  43.752   1.796
  -2   2   6  41.533   1.548
  -2   2   6  43.661   2.191
  -2   2   6  41.299   2.430
  -2   2   6  41.764   1.918
   2  -2  -6  35.622   4.072
   2  -2  -6  35.373   5.182
  -2   2   6  40.391   6.303
  -2   2   6  31.280   4.858
   1  -2  -6 2181.82  114.67
   1  -2  -6 2249.03  164.86
   1  -2  -6 2169.39   71.67
  -1   2   6 1967.36   86.89
  -1   2   6 2274.21   70.00
   1  -2  -6 2203.21   91.70
  -1   2   6 2236.17   76.19
  -1   2   6 2503.86   95.36
   0  -2  -6 1047.81   46.95
   0  -2  -6 1106.16   94.54
   0  -2  -6  997.01   59.02
   0   2   6 1099.51   37.24
   0   2   6 1007.54   38.36
   0   2   6 1044.14   69.83
   0   2   6 1008.32   30.35
   0  -2  -6 1057.77   36.95
   0   2   6 1149.43   77.68
   0   2   6 1151.96   36.69
  -1  -2  -6  189.71   10.23
  -1  -2  -6  174.92   10.87
  -1  -2  -6  187.30   13.23
   1   2   6  184.51    9.95
   1   2   6  170.29    4.62
   1   2   6  184.67    7.62
   1   2   6  190.44    6.11
   1   2   6  187.75   12.17
   1   2   6  189.82    9.66
  -1  -2  -6  185.43    9.78
  -1  -2  -6  174.17   10.21
   1   2   6  180.63   10.35
   1   2   6  194.47    9.88
  -2  -2  -6  239.45    7.98
  -2  -2  -6  244.66   15.05
  -2  -2  -6  233.39   12.81
  -2  -2  -6  241.75   16.97
  -2  -2  -6  232.68    9.54
  -2  -2  -6  235.53   15.51
   2   2   6  248.73   13.59
   2   2   6  240.41   17.40
   2   2   6  235.97    8.30
   2   2   6  235.95   13.77
   2   2   6  233.27   12.20
  -2  -2  -6  245.70   17.03
  -2  -2  -6  217.31   10.92
   2   2   6  247.53   14.84
   2   2   6  236.23   10.94
  -3  -2  -6  21.466   1.733
  -3  -2  -6  25.018   1.387
  -3  -2  -6  26.313   1.932
  -3  -2  -6  23.414   2.255
  -3  -2  -6  22.949   1.727
  -3  -2  -6  23.061   1.974
   3   2   6  21.747   1.696
   3   2   6  26.789   1.629
   3   2   6  22.769   1.493
   3   2   6  25.347   1.565
  -3  -2  -6  21.613   4.926
  -3  -2  -6  16.070   3.632
   3   2   6  20.216   3.796
   3   2   6  15.066   4.205
  -4  -2  -6  44.313   2.910
  -4  -2  -6  40.759   2.285
  -4  -2  -6  45.713   2.257
  -4  -2  -6  43.986   1.885
  -4  -2  -6  42.684   2.797
   4   2   6  44.471   2.258
   4   2   6  39.586   1.827
  -4  -2  -6  35.509   6.906
  -4  -2  -6  41.068   7.626
   4   2   6  31.868   6.827
   4   2   6  41.202   8.505
  -5  -2  -6  598.36   30.02
  -5  -2  -6  628.74   31.59
  -5  -2  -6  563.90   25.48
  -5  -2  -6  530.09   17.92
  -5  -2  -6  575.76   25.59
   5   2   6  588.96   23.39
   5   2   6  584.74   17.47
  -5  -2  -6  635.16   48.71
  -5  -2  -6  634.87   32.66
   5   2   6  626.60   44.96
  -6  -2  -6  5.1601  2.0008
  -6  -2  -6  4.9418  1.6633
  -6  -2  -6  2.7692  1.9552
   6   2   6  3.8727  1.2421
   6   2   6  2.7584  1.2296
  -6  -2  -6  0.7886  6.2054
  -7  -2  -6  1.6141  2.5933
  -7  -2  -6  -1.732   2.441
  -7  -2  -6  3.7866  2.4229
   7   2   6 -0.2640  1.4201
   7  -3  -6  1.1064  1.9304
  -7   3   6  1.6837  1.9064
  -7   3   6  3.1866  2.1607
   7  -3  -6  9.6479  9.9998
   6  -3  -6  176.95    8.90
   6  -3  -6  181.64    7.67
  -6   3   6  186.24   10.69
  -6   3   6  152.64   10.77
   6  -3  -6  156.23   17.87
   5  -3  -6  473.86   15.76
   5  -3  -6  470.55   27.73
  -5   3   6  484.96   38.17
  -5   3   6  466.75   19.79
   5  -3  -6  510.74   27.72
   4  -3  -6  195.56   13.18
   4  -3  -6  197.70   11.81
   4  -3  -6  194.49   10.56
   4  -3  -6  197.27   13.27
   4  -3  -6  198.75    6.49
   4  -3  -6  198.20   12.22
  -4   3   6  208.06    6.63
  -4   3   6  192.63   19.98
   4  -3  -6  218.69   22.72
   4  -3  -6  215.30   15.48
   3  -3  -6  47.128   2.567
   3  -3  -6  45.218   1.663
   3  -3  -6  46.978   2.902
  -3   3   6  51.897   2.108
  -3   3   6  47.113   2.449
   3  -3  -6  45.221   7.970
  -3   3   6  29.231   6.352
   2  -3  -6  61.881   2.439
   2  -3  -6  61.389   2.290
   2  -3  -6  55.891   2.577
  -2   3   6  57.301   2.951
  -2   3   6  60.545   2.450
  -2   3   6  55.294   3.768
   2  -3  -6  53.948   5.069
   2  -3  -6  52.689   5.436
  -2   3   6  51.631   6.095
   1  -3  -6  522.78   22.31
   1  -3  -6  520.46   15.84
   1  -3  -6  508.69   13.70
  -1   3   6  500.97   19.19
  -1   3   6  517.42   19.13
  -1   3   6  516.31   16.95
  -1   3   6  529.15   17.34
  -1   3   6  513.17   28.23
  -1   3   6  508.27   16.45
  -1   3   6  506.12   31.11
   1  -3  -6  554.61   39.02
   1  -3  -6  536.44   45.63
  -1   3   6  542.05   23.26
  -1   3   6  577.83   31.57
   0  -3  -6  15.786   1.316
   0  -3  -6  15.111   0.884
   0  -3  -6  17.985   0.878
   0  -3  -6  17.077   1.087
   0   3   6  14.260   0.717
   0   3   6  17.564   1.251
   0   3   6  16.466   0.793
   0   3   6  16.601   1.085
   0  -3  -6  12.074   2.344
   0  -3  -6  13.841   2.203
   0   3   6  12.757   2.147
   0   3   6  12.864   2.742
  -1  -3  -6  197.17    6.64
  -1  -3  -6  188.51    7.28
  -1  -3  -6  200.40    7.63
  -1  -3  -6  194.33    6.36
   1   3   6  201.42    7.65
   1   3   6  207.61   15.05
   1   3   6  186.28    5.05
   1   3   6  189.25    8.86
   1   3   6  205.93    6.05
  -1  -3  -6  204.65    9.28
  -1  -3  -6  198.16   13.13
   1   3   6  179.92   11.41
   1   3   6  192.13   15.92
  -2  -3  -6  38.257   2.258
  -2  -3  -6  41.201   2.873
  -2  -3  -6  40.339   1.956
  -2  -3  -6  41.522   1.705
  -2  -3  -6  39.670   2.248
   2   3   6  44.283   2.328
   2   3   6  40.934   2.855
   2   3   6  41.982   2.832
   2   3   6  41.578   2.148
   2   3   6  42.461   2.144
  -2  -3  -6  36.978   3.780
   2   3   6  38.408   3.901
   2   3   6  35.791   5.581
  -3  -3  -6  4.4860  1.0946
  -3  -3  -6  4.5779  1.0886
  -3  -3  -6  2.6184  0.9118
  -3  -3  -6  4.2210  1.3508
  -3  -3  -6  3.8909  0.4214
  -3  -3  -6  3.8777  0.4963
   3   3   6  4.0798  0.6343
   3   3   6  3.7627  0.8242
  -3  -3  -6  3.4085  3.0266
  -3  -3  -6  1.6302  2.8134
   3   3   6 -0.3570  2.3945
   3   3   6  1.7779  3.8818
  -4  -3  -6  51.993   2.415
  -4  -3  -6  61.501   3.818
  -4  -3  -6  58.942   2.483
  -4  -3  -6  56.578   3.306
  -4  -3  -6  58.374   2.091
  -4  -3  -6  60.611   3.741
   4   3   6  53.994   3.077
   4   3   6  52.075   2.764
   4   3   6  64.624   2.667
  -4  -3  -6  47.443   6.524
  -4  -3  -6  66.938   8.741
   4   3   6  55.803   6.782
  -5  -3  -6  1.0320  0.4782
  -5  -3  -6  -1.082   1.115
  -5  -3  -6 -0.4951  1.3608
  -5  -3  -6  0.2551  0.4770
  -5  -3  -6  0.4707  0.9931
  -5  -3  -6  1.2736  0.4436
   5   3   6  0.3157  0.8744
   5   3   6  0.7370  0.9176
   5   3   6  -1.895   0.915
  -5  -3  -6  -3.578   6.001
  -5  -3  -6  -2.059   4.889
   5   3   6 -0.8899  5.1929
  -6  -3  -6  303.51   15.16
  -6  -3  -6  281.38   10.23
  -6  -3  -6  293.95   13.21
   6   3   6  301.44   11.46
   6   3   6  298.50   18.02
  -6  -3  -6  301.33   30.70
  -7  -3  -6  35.919   3.891
  -7  -3  -6  36.360   3.293
  -7  -3  -6  41.525   4.205
   7   3   6  44.206   4.592
   7   3   6  46.625   3.460
  -7  -3  -6  39.764  12.068
   6  -4  -6  34.147   3.210
  -6   4   6  36.405   3.705
  -6   4   6  40.853   3.773
   6  -4  -6  27.365  12.603
   5  -4  -6  1.4740  1.7848
   5  -4  -6  2.1975  1.1875
  -5   4   6  5.0488  1.9155
   5  -4  -6  2.8941  7.0464
   4  -4  -6  31.538   2.732
   4  -4  -6  26.112   3.846
   4  -4  -6  30.671   2.083
   4  -4  -6  31.120   1.905
  -4   4   6  26.878   1.829
  -4   4   6  28.079   2.460
   4  -4  -6  35.307   6.328
   4  -4  -6  24.756   5.166
   3  -4  -6  65.899   2.814
   3  -4  -6  68.728   2.834
   3  -4  -6  63.567   4.032
  -3   4   6  64.803   3.073
  -3   4   6  66.793   3.026
   3  -4  -6  68.095   8.195
   3  -4  -6  71.803   7.060
   2  -4  -6  515.70   14.17
   2  -4  -6  532.20   12.44
   2  -4  -6  520.20   33.05
  -2   4   6  553.91   23.40
  -2   4   6  536.23   20.29
  -2   4   6  543.07   15.43
  -2   4   6  542.96   21.89
   2  -4  -6  550.79   26.56
   2  -4  -6  562.54   30.90
  -2   4   6  598.62   25.80
   1  -4  -6  87.097   2.745
   1  -4  -6  84.288   3.010
   1  -4  -6  86.759   3.279
  -1   4   6  84.973   5.551
  -1   4   6  86.916   3.652
  -1   4   6  85.661   3.710
  -1   4   6  82.784   5.370
  -1   4   6  87.370   4.020
  -1   4   6  82.466   2.766
   1  -4  -6  86.554   6.974
   1  -4  -6  76.890   6.700
  -1   4   6  80.956   6.541
   0  -4  -6  790.50   21.80
   0  -4  -6  781.75   30.55
   0  -4  -6  767.25   29.22
   0  -4  -6  764.58   27.98
   0   4   6  792.16   53.40
   0   4   6  746.07   32.51
   0   4   6  784.70   35.83
   0   4   6  825.27   50.41
   0   4   6  740.54   32.33
   0   4   6  778.78   19.52
   0  -4  -6  826.23   53.70
   0  -4  -6  803.53   42.69
   0   4   6  846.01   33.28
   0   4   6  800.86   32.31
  -1  -4  -6  835.36   28.48
  -1  -4  -6  795.45   24.16
  -1  -4  -6  782.53   37.56
  -1  -4  -6  787.35   23.74
   1   4   6  814.45   43.12
   1   4   6  843.89   50.04
   1   4   6  878.41   29.66
   1   4   6  782.25   14.78
   1   4   6  858.55   42.59
  -1  -4  -6  886.75   41.53
  -1  -4  -6  857.48   49.56
   1   4   6  927.75   34.89
   1   4   6  850.53   67.86
  -2  -4  -6  49.650   2.409
  -2  -4  -6  56.634   2.798
  -2  -4  -6  49.751   2.653
  -2  -4  -6  52.416   2.802
  -2  -4  -6  55.182   2.153
   2   4   6  59.118   2.627
   2   4   6  54.280   2.687
   2   4   6  50.323   3.558
   2   4   6  55.892   2.575
  -2  -4  -6  45.480   5.038
  -2  -4  -6  44.056   4.039
   2   4   6  37.331   4.673
  -3  -4  -6  28.645   1.513
  -3  -4  -6  26.702   1.431
  -3  -4  -6  28.720   1.354
  -3  -4  -6  34.376   2.443
  -3  -4  -6  26.566   1.832
   3   4   6  32.344   2.076
   3   4   6  28.136   1.360
  -3  -4  -6  15.430   3.123
  -3  -4  -6  21.343   5.419
   3   4   6  24.192   5.137
  -4  -4  -6  524.76   17.46
  -4  -4  -6  506.02   27.73
  -4  -4  -6  490.31   17.04
   4   4   6  495.59   17.83
   4   4   6  512.38   20.37
  -4  -4  -6  582.68   26.71
  -4  -4  -6  563.07   24.94
   4   4   6  580.71   26.58
  -5  -4  -6  104.66    4.96
  -5  -4  -6  110.44    4.81
  -5  -4  -6  102.87    5.59
   5   4   6  104.98    5.29
   5   4   6  118.65    4.83
  -5  -4  -6  101.47   10.21
  -6  -4  -6  24.927   2.378
  -6  -4  -6  24.416   2.912
  -6  -4  -6  18.032   2.172
   6   4   6  24.312   2.302
   6   4   6  20.471   1.813
   6   4   6  20.989   2.295
  -6  -4  -6  18.183  11.042
  -7  -4  -6  5.4304  2.5421
  -7  -4  -6 -0.6167  2.6504
  -7  -4  -6 -0.5153  1.7565
   7   4   6 -0.0653  2.3789
   7   4   6  0.8275  1.3360
   7   4   6 -0.1900  1.9212
  -7  -4  -6  -11.37    7.98
   6  -5  -6  18.460   2.409
  -6   5   6  16.545   3.661
  -6   5   6  12.748   3.690
   6  -5  -6  19.600   8.111
   5  -5  -6  11.480   1.958
  -5   5   6  7.5175  1.5481
   5  -5  -6  1.9356  6.8540
   4  -5  -6  115.94    3.93
   4  -5  -6  112.96    4.76
  -4   5   6  122.21    5.49
   4  -5  -6  141.73   10.49
   3  -5  -6  40.024   2.775
   3  -5  -6  34.822   2.719
   3  -5  -6  40.794   2.457
  -3   5   6  42.411   2.994
  -3   5   6  46.830   2.393
   3  -5  -6  48.366   6.401
   3  -5  -6  41.656   6.802
   2  -5  -6  60.679   3.978
   2  -5  -6  59.292   3.696
   2  -5  -6  65.884   2.895
  -2   5   6  65.175   2.750
  -2   5   6  63.583   3.406
  -2   5   6  63.563   2.436
   2  -5  -6  52.236   5.654
  -2   5   6  49.544   6.167
   1  -5  -6  264.14   10.02
   1  -5  -6  266.62    6.72
   1  -5  -6  271.50    5.81
  -1   5   6  275.06   11.77
  -1   5   6  278.79   13.79
  -1   5   6  282.68   11.74
  -1   5   6  282.42   11.17
  -1   5   6  275.32    9.07
   1  -5  -6  282.92   20.75
   1  -5  -6  267.33   19.69
  -1   5   6  297.78   14.71
   0  -5  -6  164.55    6.64
   0  -5  -6  154.51    5.70
   0  -5  -6  164.72    9.88
   0   5   6  161.95    6.08
   0   5   6  159.54    9.66
   0   5   6  170.70    9.47
   0   5   6  166.86    6.24
   0   5   6  160.19    4.02
   0  -5  -6  172.34    8.84
   0  -5  -6  171.92   10.63
   0   5   6  171.09   10.80
  -1  -5  -6  293.89   17.84
  -1  -5  -6  287.61   15.54
  -1  -5  -6  294.31   16.50
   1   5   6  273.52    5.80
   1   5   6  293.21   12.71
   1   5   6  283.04   14.22
   1   5   6  286.39   10.70
  -1  -5  -6  281.61   14.00
  -1  -5  -6  294.43   20.36
   1   5   6  302.86   15.72
  -2  -5  -6  182.76   10.94
  -2  -5  -6  189.26    9.14
  -2  -5  -6  179.06    8.71
  -2  -5  -6  190.36    9.65
  -2  -5  -6  193.75   13.20
   2   5   6  198.58    8.25
   2   5   6  186.48    5.52
   2   5   6  184.24    5.55
  -2  -5  -6  207.34   11.82
  -2  -5  -6  189.75   12.57
   2   5   6  204.15   14.49
  -3  -5  -6  18.057   0.531
  -3  -5  -6  16.755   1.489
  -3  -5  -6  17.305   1.343
  -3  -5  -6  22.257   1.437
   3   5   6  16.180   0.989
   3   5   6  19.612   1.588
  -3  -5  -6  16.211   4.578
  -3  -5  -6  7.9310  4.0834
   3   5   6  14.982   4.986
  -4  -5  -6  22.856   1.901
  -4  -5  -6  18.538   1.918
  -4  -5  -6  20.336   1.643
   4   5   6  23.863   2.022
   4   5   6  17.819   1.287
  -4  -5  -6  20.802   5.714
  -4  -5  -6  15.777   4.360
  -5  -5  -6  13.249   1.994
  -5  -5  -6  9.0662  1.6672
  -5  -5  -6  10.090   1.806
   5   5   6  11.900   1.639
   5   5   6  9.7486  1.2071
  -5  -5  -6  11.964   7.595
  -6  -5  -6  89.592   6.852
  -6  -5  -6  96.598   5.518
  -6  -5  -6  89.413   5.827
   6   5   6  101.59    5.16
   6   5   6  98.269   5.445
  -6  -5  -6  85.775  12.381
  -7  -5  -6 -0.1582  1.8356
  -7  -5  -6  0.1693  1.9219
  -7  -5  -6  1.4797  2.0504
   7   5   6  0.6473  2.2005
   7   5   6  1.5168  1.7177
  -7  -5  -6 -0.6041  8.1028
   5  -6  -6  2.6132  2.1146
  -5   6   6  6.4140  2.1655
   5  -6  -6  14.788   7.868
   4  -6  -6  35.520   3.207
  -4   6   6  32.172   3.569
   4  -6  -6  40.559   7.452
   3  -6  -6  6.9201  1.3586
   3  -6  -6  4.7242  1.4391
  -3   6   6  5.4734  1.9110
  -3   6   6  5.0827  0.9373
   3  -6  -6  8.5941  4.2592
   3  -6  -6  5.3141  4.3723
   2  -6  -6  18.744   1.738
   2  -6  -6  18.668   1.675
  -2   6   6  19.226   2.002
  -2   6   6  19.289   2.338
   2  -6  -6  16.362   3.122
   2  -6  -6  13.646   3.095
  -2   6   6  8.3119  5.3091
   1  -6  -6  140.78    3.61
   1  -6  -6  140.42    4.14
  -1   6   6  137.03    9.32
  -1   6   6  139.89    4.79
  -1   6   6  137.36    6.55
  -1   6   6  137.34    9.86
   1  -6  -6  146.55   10.49
   1  -6  -6  132.49   11.66
  -1   6   6  127.90   11.09
   0  -6  -6  67.140   3.713
   0  -6  -6  63.583   2.573
   0  -6  -6  66.796   2.054
   0   6   6  61.306   2.485
   0   6   6  61.898   5.127
   0   6   6  61.307   5.246
   0   6   6  69.320   3.130
   0  -6  -6  57.462   3.809
   0  -6  -6  59.290   4.250
   0   6   6  58.302   5.945
  -1  -6  -6  108.47    5.52
  -1  -6  -6  104.50    6.27
  -1  -6  -6  109.09    4.00
   1   6   6  109.75    5.26
   1   6   6  104.43    4.31
   1   6   6  100.48    3.49
   1   6   6  105.19    4.50
  -1  -6  -6  119.81    6.52
  -1  -6  -6  114.53    9.32
   1   6   6  86.909   8.177
  -2  -6  -6  321.26   13.27
  -2  -6  -6  324.25   13.69
  -2  -6  -6  311.49   11.07
   2   6   6  301.87    9.53
   2   6   6  307.12   11.20
   2   6   6  317.20   16.90
  -2  -6  -6  325.93   18.46
  -2  -6  -6  339.60   18.35
   2   6   6  305.97   16.47
  -3  -6  -6  166.42    6.34
  -3  -6  -6  156.44    6.09
  -3  -6  -6  144.32    5.91
   3   6   6  161.12    6.10
   3   6   6  152.52    8.00
  -3  -6  -6  172.80   11.94
  -3  -6  -6  170.77   12.10
  -4  -6  -6  74.388   4.238
  -4  -6  -6  70.897   3.831
   4   6   6  69.128   2.903
   4   6   6  69.928   3.545
  -4  -6  -6  81.504   9.481
  -4  -6  -6  56.621   7.117
  -5  -6  -6  10.667   1.700
  -5  -6  -6  16.403   2.242
   5   6   6  13.266   1.456
   5   6   6  17.810   2.675
  -5  -6  -6  0.9661  7.0207
  -6  -6  -6  152.44    8.49
  -6  -6  -6  140.15    6.38
   6   6   6  162.99    9.52
   6   6   6  133.73    8.60
  -6  -6  -6  136.07   19.19
  -7  -6  -6  18.274   3.350
  -7  -6  -6  20.219   3.877
  -7  -6  -6  16.277  15.349
   5  -7  -6  132.68    9.02
  -5   7   6  136.02   11.90
   5  -7  -6  126.32   13.98
   4  -7  -6  322.00   16.25
  -4   7   6  337.94   17.09
   4  -7  -6  326.44   25.42
   3  -7  -6  110.76    5.38
  -3   7   6  116.23    6.90
   3  -7  -6  147.95   14.94
   3  -7  -6  120.81   10.04
   2  -7  -6  1.3809  1.0541
  -2   7   6 -0.0639  0.9070
  -2   7   6  0.9267  1.6460
   2  -7  -6  1.6588  1.9713
   2  -7  -6 -0.4162  1.9183
   1  -7  -6  173.38    7.67
  -1   7   6  180.76    6.82
  -1   7   6  175.01    7.37
  -1   7   6  169.53    6.91
   0  -7  -6  8.1391  1.3813
   0  -7  -6  8.1823  1.3962
   0   7   6  5.0651  1.0510
   0   7   6  6.4834  1.1619
   0   7   6  6.9075  1.2337
  -1  -7  -6  112.21    4.75
  -1  -7  -6  109.86    4.52
   1   7   6  107.90    6.16
   1   7   6  102.46    6.23
   1   7   6  126.48    4.30
   1   7   6  111.56    6.60
  -1  -7  -6  119.19    9.42
  -2  -7  -6  111.57    5.54
  -2  -7  -6  114.07    5.93
   2   7   6  113.80    5.85
   2   7   6  109.06    4.67
  -2  -7  -6  111.03    7.88
  -2  -7  -6  118.26   11.31
  -3  -7  -6 -0.1834  1.0731
  -3  -7  -6  1.6258  1.0235
   3   7   6  1.4312  1.1761
   3   7   6 -0.8275  0.6691
  -3  -7  -6  3.2587  3.7299
  -3  -7  -6 -0.1092  3.6235
  -4  -7  -6  71.138   4.238
  -4  -7  -6  73.254   4.047
   4   7   6  82.179   5.809
   4   7   6  68.555   3.204
  -4  -7  -6  68.653   8.620
  -5  -7  -6  12.374   2.047
  -5  -7  -6  12.953   2.608
   5   7   6  10.480   1.882
  -5  -7  -6  14.317   7.487
  -6  -7  -6  20.388   2.969
  -6  -7  -6  21.979   2.984
   6   7   6  20.552   3.123
  -6  -7  -6  14.298  11.807
   4  -8  -6  19.653   2.664
  -4   8   6  15.077   2.384
   4  -8  -6  14.656   5.463
   3  -8  -6  8.6002  2.5040
  -3   8   6  5.0502  2.4232
   3  -8  -6  6.3153  3.0200
   3  -8  -6  6.5310  3.6163
   2  -8  -6  94.572   4.113
  -2   8   6  87.093   7.010
  -2   8   6  93.660   5.749
   1  -8  -6  318.64   11.41
  -1   8   6  310.36   12.12
  -1   8   6  313.17   14.51
  -1   8   6  303.57   16.09
   0  -8  -6  12.173   1.498
   0   8   6  12.181   1.412
   0   8   6  14.615   1.779
   0   8   6  9.8252  1.1600
  -1  -8  -6  3.0187  0.8882
  -1  -8  -6  2.3980  1.1678
   1   8   6  4.1138  1.2651
   1   8   6  3.9714  1.0579
  -2  -8  -6  45.130   2.229
  -2  -8  -6  50.959   4.260
   2   8   6  49.622   3.448
   2   8   6  58.076   4.219
  -2  -8  -6  50.054   5.335
  -2  -8  -6  63.483   6.242
  -3  -8  -6  18.264   2.468
  -3  -8  -6  18.825   2.300
   3   8   6  19.898   1.726
   3   8   6  19.829   2.692
  -3  -8  -6  30.346   5.779
  -3  -8  -6  24.250   5.679
  -4  -8  -6  1.1885  1.1602
  -4  -8  -6  0.6258  1.3581
   4   8   6  1.3418  2.0223
  -4  -8  -6  -1.646   5.169
  -5  -8  -6  88.597   9.851
  -5  -8  -6  102.24    6.72
   5   8   6  98.460   7.247
  -5  -8  -6  86.250  11.606
  -6  -8  -6  58.582   5.842
  -6  -8  -6  62.171   5.781
   6   8   6  65.622   6.388
  -6  -8  -6  71.511  13.274
   3  -9  -6 -0.7019  1.9213
  -3   9   6 -0.5912  1.8286
   2  -9  -6  52.468   4.152
  -2   9   6  59.111   4.197
  -2   9   6  60.774   4.926
   1  -9  -6  72.817   4.894
  -1   9   6  69.486   4.931
  -1   9   6  61.230   3.930
  -1   9   6  70.494   4.295
   0  -9  -6  363.65   14.60
   0   9   6  351.34   15.91
   0   9   6  356.58   22.02
   0   9   6  366.69   20.58
  -1  -9  -6  284.23   11.94
  -1  -9  -6  258.79   16.27
   1   9   6  259.98   20.65
   1   9   6  275.67   19.32
   1   9   6  259.57   20.02
  -2  -9  -6  27.510   2.660
   2   9   6  24.249   2.759
  -3  -9  -6  14.121   1.963
   3   9   6  16.514   2.561
  -3  -9  -6  9.8338  4.2118
  -3  -9  -6  21.947   5.697
  -4  -9  -6  3.9284  1.7481
  -4  -9  -6  2.7433  1.6180
   4   9   6  3.2899  1.8494
  -4  -9  -6  9.5248  5.1509
  -5  -9  -6  -5.307   2.279
  -5  -9  -6  -1.327   2.832
   5   9   6  0.7665  2.2106
  -5  -9  -6  3.7134  5.7649
   2 -10  -6  40.598   4.506
  -2  10   6  41.612   4.754
   1 -10  -6  27.447   3.066
  -1  10   6  21.630   2.942
   0 -10  -6  48.161   3.521
   0  10   6  40.520   3.870
   0  10   6  36.350   4.217
  -1 -10  -6  108.89    6.71
   1  10   6  106.24    8.78
   1  10   6  109.97    6.74
  -2 -10  -6  2.5697  1.5076
   2  10   6  2.8113  2.4772
   2  10   6  2.8291  1.2764
  -3 -10  -6  51.062   3.954
   3  10   6  67.577   5.274
  -4 -10  -6  270.98   20.53
   4  10   6  332.21   20.91
  -4 -10  -6  295.91   33.11
   2   9  -7  14.858   2.560
  -2  -9   7  15.784   3.926
  -2  -9   7   3.410  12.244
   1   9  -7  108.69    6.10
  -1  -9   7  105.74    9.44
  -1  -9   7  100.72   13.07
   0   9  -7  36.709   4.964
   0  -9   7  46.991   5.138
   0  -9   7  42.908   8.720
  -1   9  -7  0.2295  2.6473
   1  -9   7  1.3942  2.9122
   1  -9   7  -4.632   6.149
   4   8  -7 -0.2263  1.6783
  -4  -8   7  1.5132  3.2794
  -4  -8   7  -7.409  12.261
   3   8  -7  5.1936  1.9270
  -3  -8   7  -11.05    9.61
   2   8  -7  47.373   3.695
   2   8  -7  53.097   3.369
  -2  -8   7  53.691   4.397
  -2  -8   7  37.484   9.623
   1   8  -7  216.42   13.56
  -1  -8   7  181.30   10.21
  -1  -8   7  230.59   22.43
   0   8  -7  156.81   11.04
   0  -8   7  154.77   10.64
   0  -8   7  180.79   14.31
  -1   8  -7  83.877   5.232
   1  -8   7  76.074   5.235
   1  -8   7  84.570   6.494
   1  -8   7  68.839   9.724
  -2   8  -7  1.9213  1.6076
   2  -8   7  0.5804  2.3088
   2  -8   7  1.4853  2.6181
   2  -8   7  2.3023  6.9912
  -3   8  -7  7.3546  2.1657
   3  -8   7  2.0887  2.8627
   3  -8   7  4.3983  1.9146
   3  -8   7 -0.3201  8.8102
   5   7  -7  2.0396  1.8886
  -5  -7   7  0.1258  1.5755
  -5  -7   7  1.2312  1.6688
  -5  -7   7  -21.62   14.47
   4   7  -7  64.043   3.641
  -4  -7   7  62.611   3.889
  -4  -7   7  58.961   6.105
  -4  -7   7  55.664  11.904
   3   7  -7  184.27    9.74
   3   7  -7  170.32   10.55
  -3  -7   7  171.73    9.58
  -3  -7   7  191.78   12.67
  -3  -7   7  165.79   14.26
  -3  -7   7  189.09   20.04
   2   7  -7  39.339   3.107
   2   7  -7  39.336   3.115
  -2  -7   7  47.613   2.971
  -2  -7   7  39.859   3.536
  -2  -7   7  41.618   3.041
  -2  -7   7  35.604   9.812
   1   7  -7  17.594   2.349
  -1  -7   7  18.546   2.872
  -1  -7   7  16.039   7.490
   0   7  -7  65.657   4.253
   0  -7   7  57.676   3.842
   0  -7   7  70.995   9.240
  -1   7  -7  102.21    4.33
   1  -7   7  108.90    6.46
   1  -7   7  112.16    6.66
   1  -7   7  86.852  12.445
  -2   7  -7  200.24    9.02
  -2   7  -7  184.33   11.71
   2  -7   7  199.01   11.46
   2  -7   7  187.59    9.97
   2  -7   7  197.20   16.92
  -3   7  -7  7.3384  2.0585
  -3   7  -7  10.246   2.065
   3  -7   7  12.608   2.451
   3  -7   7  12.891   2.150
   3  -7   7  13.323   7.579
  -4   7  -7  13.217   3.581
  -4   7  -7  11.840   2.309
   4  -7   7  15.000   2.729
   4  -7   7  14.752   3.162
   4  -7   7  10.362   9.492
   5   6  -7  2.0208  1.5450
  -5  -6   7  -3.395   1.934
  -5  -6   7  1.8084  2.0672
  -5  -6   7  -15.82   12.71
   4   6  -7  12.782   2.204
  -4  -6   7  10.733   1.914
  -4  -6   7  9.1790  1.9463
  -4  -6   7  15.234  10.225
   3   6  -7  62.431   3.904
   3   6  -7  59.791   3.807
  -3  -6   7  57.520   5.415
  -3  -6   7  63.705   2.779
  -3  -6   7  63.055   3.751
  -3  -6   7  62.356   9.836
   2   6  -7  25.143   2.022
   2   6  -7  22.321   2.009
  -2  -6   7  28.847   2.266
  -2  -6   7  28.010   2.370
  -2  -6   7  26.743   1.899
  -2  -6   7  11.489   6.767
   1   6  -7  274.91   14.00
  -1  -6   7  241.41   16.02
  -1  -6   7  245.90   18.30
  -1  -6   7  266.96   15.07
  -1  -6   7  266.34   19.16
  -1  -6   7  276.88   20.43
   0   6  -7  321.04    9.47
   0   6  -7  301.59   17.80
   0  -6   7  307.12   12.82
   0  -6   7  273.00   10.72
   0  -6   7  318.63   17.15
   0  -6   7  358.23   26.40
   0  -6   7  357.50   21.96
  -1   6  -7  23.432   2.178
  -1   6  -7  17.770   2.164
   1  -6   7  26.030   2.589
   1  -6   7  21.084   2.167
   1  -6   7  21.342   6.174
   1  -6   7  24.150   6.374
  -2   6  -7  112.31    5.01
  -2   6  -7  111.71    5.42
   2  -6   7  113.26    5.64
   2  -6   7  118.34    5.38
   2  -6   7  132.29   11.62
  -3   6  -7  262.34   17.25
  -3   6  -7  257.84   17.18
   3  -6   7  264.42   11.14
   3  -6   7  255.35   11.17
   3  -6   7  298.78   21.86
  -4   6  -7  3.3738  2.5681
  -4   6  -7  3.1465  1.5258
   4  -6   7  3.2936  2.3236
   4  -6   7 -0.1155  2.0872
   4  -6   7  -1.024   7.598
  -5   6  -7  11.139   3.796
   5  -6   7  11.393   2.893
   5  -6   7  10.392   2.984
   5  -6   7  5.2045  9.3382
   6   5  -7  -2.054   2.139
  -6  -5   7  3.9146  2.7254
  -6  -5   7 -0.0545  1.6748
  -6  -5   7  15.281  10.444
   5   5  -7  -2.490   1.620
  -5  -5   7 -0.3270  1.4449
  -5  -5   7 -0.2655  1.4449
  -5  -5   7   1.899  11.158
   4   5  -7  7.8297  1.4243
   4   5  -7  6.4571  1.1765
  -4  -5   7  9.4270  1.4867
  -4  -5   7  8.4939  1.8738
  -4  -5   7  5.3978  7.6472
   3   5  -7  57.626   2.997
   3   5  -7  57.435   2.877
  -3  -5   7  57.081   3.760
  -3  -5   7  59.907   4.387
  -3  -5   7  60.531   5.422
  -3  -5   7  38.378   8.558
   2   5  -7  14.960   1.550
   2   5  -7  11.297   1.285
  -2  -5   7  13.895   1.324
  -2  -5   7  12.616   1.360
  -2  -5   7  12.017   2.014
  -2  -5   7  11.163   6.446
  -2  -5   7  1.2114  6.0450
   1   5  -7  21.155   2.025
  -1  -5   7  21.905   2.087
  -1  -5   7  19.942   1.534
  -1  -5   7  18.031   1.986
  -1  -5   7  19.422   5.273
  -1  -5   7  12.514   4.120
   0   5  -7  20.966   1.289
   0   5  -7  23.507   2.351
   0  -5   7  20.847   0.959
   0  -5   7  23.622   1.942
   0  -5   7  24.910   2.212
   0  -5   7  20.627   1.694
   0   5  -7  18.685   6.248
   0  -5   7  16.731   5.883
   0  -5   7  22.825   4.178
  -1   5  -7  2.5614  0.8280
  -1   5  -7  4.2574  1.3657
   1  -5   7  1.4470  1.2658
   1  -5   7  3.4164  1.4724
   1  -5   7  -4.561   4.850
   1  -5   7  3.8679  4.4489
  -2   5  -7  13.738   1.299
  -2   5  -7  12.899   1.583
   2  -5   7  16.822   2.341
   2  -5   7  10.763   1.411
   2  -5   7  7.1218  4.0409
   2  -5   7  9.7331  4.7833
  -3   5  -7  101.36    5.85
  -3   5  -7  93.755   5.713
   3  -5   7  97.489   5.237
   3  -5   7  97.211   4.300
   3  -5   7  70.189   9.866
  -4   5  -7  2.3061  1.5894
   4  -5   7  2.4451  1.4745
   4  -5   7  2.8933  1.4367
   4  -5   7  0.5876  7.3722
  -5   5  -7  47.727   4.713
   5  -5   7  52.123   4.136
   5  -5   7  60.671   4.495
   5  -5   7  41.342   9.941
   6   4  -7  39.269   4.678
  -6  -4   7  41.211   3.848
  -6  -4   7  42.306  16.683
   5   4  -7  284.37   13.01
   5   4  -7  270.68   21.81
   5   4  -7  261.98   17.23
  -5  -4   7  292.55   12.46
  -5  -4   7  247.68   23.70
   4   4  -7  11.226   1.497
   4   4  -7  9.8357  1.2875
  -4  -4   7  9.4004  1.3352
  -4  -4   7  3.8259  6.4997
   3   4  -7  61.802   3.266
   3   4  -7  61.180   2.275
  -3  -4   7  64.054   4.854
  -3  -4   7  65.734   4.973
   3   4  -7  56.915  11.484
  -3  -4   7  59.091   9.488
  -3  -4   7  69.931  10.218
   2   4  -7  2.3434  0.8859
   2   4  -7  1.6549  0.8097
  -2  -4   7  1.8438  0.7875
  -2  -4   7  0.9886  1.3917
   2   4  -7  1.5252  3.0569
  -2  -4   7 -0.1300  3.4413
  -2  -4   7  0.3192  3.0557
   1   4  -7  125.38    5.51
  -1  -4   7  130.06    8.97
  -1  -4   7  128.74    6.94
  -1  -4   7  131.09    5.89
  -1  -4   7  134.15    7.30
  -1  -4   7  118.10    5.33
   1   4  -7  108.37   10.72
  -1  -4   7  120.11   11.14
  -1  -4   7  114.13   10.15
   0   4  -7  5.4569  0.8638
   0   4  -7  4.2192  1.3314
   0  -4   7  6.2409  1.2529
   0  -4   7  5.8376  1.1180
   0  -4   7  4.9724  0.7342
   0  -4   7  4.4950  0.4265
   0  -4   7  4.5488  0.4743
   0   4  -7  1.6546  2.5311
   0  -4   7  0.9957  2.7521
   0  -4   7  4.2147  3.4687
  -1   4  -7  519.24   38.08
  -1   4  -7  524.76   17.00
   1  -4   7  539.92   19.63
   1  -4   7  555.04   28.60
   1  -4   7  520.02   33.20
  -1   4  -7  571.84   42.34
   1  -4   7  596.92   30.16
   1  -4   7  587.46   35.71
  -2   4  -7  20.303   2.382
  -2   4  -7  24.154   2.378
  -2   4  -7  25.295   2.409
   2  -4   7  28.703   1.643
   2  -4   7  26.562   1.784
  -2   4  -7  23.813   4.926
   2  -4   7  27.082   6.630
   2  -4   7  22.393   6.148
  -3   4  -7  136.71    6.03
   3  -4   7  143.83    5.18
   3  -4   7  143.57    5.87
   3  -4   7  154.15   10.68
   3  -4   7  126.55    9.96
  -4   4  -7  6.9664  2.3731
   4  -4   7  5.2504  1.6332
   4  -4   7  5.4193  2.1092
   4  -4   7  7.3786  7.3512
  -5   4  -7  13.495   2.826
   5  -4   7  8.8207  2.1017
   5  -4   7  10.740   2.159
   5  -4   7  18.404   9.135
  -6   4  -7  13.479   3.010
   6  -4   7  11.842   2.554
   6  -4   7  17.781   3.084
   6  -4   7  13.803  10.354
   7   3  -7  31.713   4.304
  -7  -3   7  20.819   4.459
   6   3  -7  6.4002  1.8465
  -6  -3   7  4.3736  1.5831
  -6  -3   7  17.742  14.804
   5   3  -7  0.4802  1.2087
   5   3  -7  0.4961  0.8265
   5   3  -7  0.9531  1.4385
  -5  -3   7  2.8630  1.2415
  -5  -3   7  -1.943   9.812
   4   3  -7  135.56    4.90
   4   3  -7  134.87    4.52
  -4  -3   7  130.49   11.33
  -4  -3   7  137.96    7.00
   4   3  -7  121.01   15.61
  -4  -3   7  102.07   14.68
  -4  -3   7  155.22   17.62
   3   3  -7  167.37    6.67
   3   3  -7  175.07    5.36
  -3  -3   7  185.46   12.46
  -3  -3   7  182.55    5.01
   3   3  -7  176.96   12.84
  -3  -3   7  166.72   12.66
  -3  -3   7  184.26   13.92
   2   3  -7  93.326   3.326
   2   3  -7  87.896   3.899
  -2  -3   7  90.719   3.949
  -2  -3   7  92.265   5.025
   2   3  -7  79.312   8.170
  -2  -3   7  84.958   6.985
  -2  -3   7  91.897   6.468
   1   3  -7  14.416   0.960
   1   3  -7  12.241   1.307
  -1  -3   7  15.686   0.981
  -1  -3   7  11.762   1.019
  -1  -3   7  14.769   1.135
  -1  -3   7  13.239   0.943
   1   3  -7  13.350   3.406
  -1  -3   7  11.034   3.436
  -1  -3   7  13.544   4.988
   0   3  -7  43.189   2.026
   0   3  -7  41.419   2.747
   0   3  -7  41.951   3.019
   0  -3   7  40.765   2.619
   0  -3   7  46.151   3.326
   0  -3   7  43.858   2.731
   0  -3   7  48.059   3.033
   0  -3   7  43.589   2.346
   0   3  -7  35.773   4.596
   0  -3   7  30.990   4.124
   0  -3   7  31.780   4.233
  -1   3  -7  11.462   1.025
  -1   3  -7  9.2231  0.9238
  -1   3  -7  8.8929  0.9390
   1  -3   7  11.345   1.350
   1  -3   7  8.5551  1.1078
   1  -3   7  10.401   1.078
   1  -3   7  9.7813  1.1732
  -1   3  -7  6.3502  2.3297
   1  -3   7  6.8011  2.5503
   1  -3   7  -1.816   2.128
  -2   3  -7  13.821   1.250
  -2   3  -7  9.4899  1.1140
  -2   3  -7  10.268   1.190
   2  -3   7  11.945   1.236
   2  -3   7  13.022   1.285
   2  -3   7  14.300   1.748
  -2   3  -7  3.6626  3.2639
   2  -3   7  2.8023  3.4229
   2  -3   7  12.795   3.514
  -3   3  -7  20.076   0.843
  -3   3  -7  24.762   2.140
  -3   3  -7  20.857   1.979
  -3   3  -7  19.226   0.791
  -3   3  -7  19.386   0.875
   3  -3   7  21.179   1.903
   3  -3   7  22.497   2.005
   3  -3   7  24.005   1.781
  -3   3  -7  18.366   5.604
   3  -3   7  18.329   5.566
   3  -3   7  27.258   7.281
  -4   3  -7  22.056   2.004
   4  -3   7  19.353   1.934
   4  -3   7  19.041   1.959
   4  -3   7  6.6756  5.8354
  -5   3  -7  16.255   2.181
   5  -3   7  18.830   1.941
   5  -3   7  19.255   2.204
   5  -3   7  15.425   6.995
  -6   3  -7 -0.7126  2.1509
   6  -3   7  -2.174   2.041
   6  -3   7  1.2828  1.5927
   6  -3   7  10.694   7.989
   7   2  -7  7.1563  2.2035
  -7  -2   7  -1.566   2.654
   6   2  -7  53.525   3.262
   6   2  -7  53.872   2.841
   6   2  -7  60.881   4.888
  -6  -2   7  42.105   4.619
  -6  -2   7  40.657  12.880
   5   2  -7  0.6262  1.2155
   5   2  -7  0.3010  1.1254
   5   2  -7 -0.3160  1.1563
  -5  -2   7 -0.0391  0.7525
  -5  -2   7  1.6595  1.1874
   5   2  -7  -14.04    8.12
  -5  -2   7  -5.832   9.279
   4   2  -7  19.296   1.608
   4   2  -7  18.671   1.772
   4   2  -7  16.480   1.531
  -4  -2   7  20.074   1.941
  -4  -2   7  20.853   1.306
   4   2  -7  17.068   8.384
  -4  -2   7  6.1817  9.0066
  -4  -2   7  12.831   7.349
   3   2  -7  332.44   19.63
   3   2  -7  324.70   30.85
   3   2  -7  332.95    9.58
   3   2  -7  357.14   35.45
  -3  -2   7  350.85   23.62
  -3  -2   7  327.73   18.62
   3   2  -7  345.48   24.74
   3   2  -7  364.05   17.69
  -3  -2   7  324.73   22.31
  -3  -2   7  330.46   28.64
   2   2  -7  23.977   1.614
   2   2  -7  25.689   1.220
   2   2  -7  23.622   1.701
   2   2  -7  24.939   2.056
  -2  -2   7  24.269   1.609
  -2  -2   7  23.469   1.447
  -2  -2   7  22.189   1.095
  -2  -2   7  27.024   1.445
   2   2  -7  12.767   3.161
   2   2  -7  23.137   5.305
  -2  -2   7  11.453   5.188
   1   2  -7 1197.23   65.32
   1   2  -7 1242.91   60.47
   1   2  -7 1204.61   80.28
   1   2  -7 1196.04   89.30
   1   2  -7 1314.51   69.25
  -1  -2   7 1176.06   72.78
  -1  -2   7 1149.75   44.14
  -1  -2   7 1154.25   45.72
  -1  -2   7 1118.46   58.09
  -1  -2   7 1202.23   56.44
  -1  -2   7 1180.57   41.98
   1   2  -7 1312.39   74.75
   1   2  -7 1154.72   53.78
  -1  -2   7 1192.10   37.03
  -1  -2   7 1359.89   75.79
   0   2  -7 3603.14  340.97
   0   2  -7 3568.69  246.20
   0  -2   7 3563.28  160.97
   0  -2   7 3663.92  155.22
  -1   2  -7  914.21   50.98
  -1   2  -7  876.95   68.97
  -1   2  -7  905.29   46.62
  -1   2  -7  869.30   31.97
   1  -2   7  772.86   34.91
   1  -2   7  891.33   38.27
   1  -2   7  847.63   25.93
   1  -2   7  838.15   34.67
  -1   2  -7  886.72   50.06
  -1   2  -7  939.56   65.76
   1  -2   7  895.75   36.53
   1  -2   7  944.50   49.20
  -2   2  -7  120.05    4.86
  -2   2  -7  110.64    8.28
   2  -2   7  108.15    8.19
   2  -2   7  110.75    3.39
   2  -2   7  117.47    3.66
   2  -2   7  114.84    5.62
  -2   2  -7  96.749   8.969
  -2   2  -7  102.01    8.59
   2  -2   7  108.63    6.95
   2  -2   7  96.461   8.921
  -3   2  -7  163.19   10.32
  -3   2  -7  159.30   11.04
  -3   2  -7  166.82    6.20
  -3   2  -7  162.31   10.62
   3  -2   7  159.08    7.20
   3  -2   7  169.56    6.94
   3  -2   7  175.34    4.88
  -3   2  -7  168.44   12.16
   3  -2   7  150.71   10.01
   3  -2   7  163.98   11.34
  -4   2  -7  98.119   4.487
  -4   2  -7  92.100   6.181
  -4   2  -7  86.968   4.276
   4  -2   7  89.416   3.966
   4  -2   7  90.733   6.138
   4  -2   7  88.067   4.851
  -4   2  -7  87.611   9.350
   4  -2   7  105.25   12.17
   4  -2   7  92.176  10.220
  -5   2  -7  28.128   3.420
  -5   2  -7  19.846   2.216
  -5   2  -7  18.551   2.279
   5  -2   7  24.883   2.656
   5  -2   7  24.259   2.263
   5  -2   7  17.204   8.148
  -6   2  -7  12.499   2.839
   6  -2   7  13.115   2.107
   6  -2   7  14.799   9.357
  -7   2  -7  63.730   5.092
   7  -2   7  73.507   5.431
   7  -2   7  78.068   5.430
   7  -2   7  55.441  14.973
   7   1  -7  29.943   2.800
  -7  -1   7  25.530   2.929
   6   1  -7  876.08   49.82
   6   1  -7  865.26   48.55
   6   1  -7  886.72   39.23
  -6  -1   7  880.30   41.80
   5   1  -7  87.392   3.419
   5   1  -7  83.645   3.871
   5   1  -7  90.498   4.708
  -5  -1   7  73.039   3.556
  -5  -1   7  86.063   5.791
   5   1  -7  82.848  11.517
  -5  -1   7  68.388  12.677
   4   1  -7  151.01    7.99
   4   1  -7  143.65    4.76
   4   1  -7  146.15    8.27
   4   1  -7  146.11    6.13
   4   1  -7  141.20    8.09
  -4  -1   7  154.57    8.67
  -4  -1   7  155.67    7.96
  -4  -1   7  94.631  12.067
  -4  -1   7  132.51   16.31
   3   1  -7  140.40    3.41
   3   1  -7  145.54    9.43
   3   1  -7  139.46    8.61
   3   1  -7  148.32   11.45
  -3  -1   7  140.93    9.07
  -3  -1   7  140.62    3.51
   3   1  -7  131.94    9.71
   3   1  -7  121.10   10.41
  -3  -1   7  138.28   10.94
  -3  -1   7  153.46   12.96
   2   1  -7  24.409   1.650
   2   1  -7  24.247   1.455
   2   1  -7  21.554   1.506
   2   1  -7  22.312   1.252
   2   1  -7  21.481   1.108
  -2  -1   7  21.809   1.922
  -2  -1   7  25.758   1.161
  -2  -1   7  25.311   1.413
  -2  -1   7  21.777   1.780
  -2  -1   7  19.409   1.163
  -2  -1   7  25.047   1.462
   2   1  -7  20.271   5.758
   2   1  -7  19.852   4.138
  -2  -1   7  21.094   5.329
  -2  -1   7  19.315   4.433
   1   1  -7  109.46    6.44
   1   1  -7  115.78    4.20
   1   1  -7  109.08    4.51
   1   1  -7  120.18    5.50
   1   1  -7  119.31    7.34
  -1  -1   7  119.90    4.96
  -1  -1   7  104.37    4.96
  -1  -1   7  117.07    3.64
  -1  -1   7  111.16    3.85
  -1  -1   7  114.42    4.31
   1   1  -7  125.08    8.28
   1   1  -7  112.49    7.96
  -1  -1   7  116.82    7.20
  -1  -1   7  102.84    8.50
   0   1  -7  680.51   30.26
   0   1  -7  620.76   39.03
   0   1  -7  736.97   55.17
   0   1  -7  670.03   21.71
   0  -1   7  687.57   31.50
   0  -1   7  649.47   33.51
   0  -1   7  687.84   36.15
   0  -1   7  687.41   28.67
   0  -1   7  673.85   26.27
   0   1  -7  709.54   45.20
   0   1  -7  678.87   34.39
   0  -1   7  641.34   23.67
   0  -1   7  744.40   35.69
  -1   1  -7  147.95    4.66
  -1   1  -7  150.20    6.32
  -1   1  -7  145.24   12.86
  -1   1  -7  160.85    7.56
   1  -1   7  127.87    4.33
   1  -1   7  143.55    6.49
   1  -1   7  137.97    5.09
   1  -1   7  132.47    5.33
   1  -1   7  149.95    6.25
   1  -1   7  145.76    7.65
  -1   1  -7  140.79    9.18
  -1   1  -7  141.22    8.28
   1  -1   7  150.97    7.96
   1  -1   7  137.71    7.75
  -2   1  -7  3.8808  0.4515
  -2   1  -7  5.6524  1.1293
  -2   1  -7  3.5160  0.9003
  -2   1  -7  3.8770  0.7092
   2  -1   7  5.5890  0.5230
   2  -1   7  4.2444  0.8253
   2  -1   7  5.4683  0.7888
   2  -1   7  4.1065  1.0365
  -2   1  -7  2.4105  2.6962
  -2   1  -7  6.8776  3.1063
   2  -1   7  4.7074  4.2774
   2  -1   7  4.5977  2.9753
  -3   1  -7  128.33    5.15
  -3   1  -7  121.11    4.28
  -3   1  -7  147.56    6.06
  -3   1  -7  144.32    7.23
   3  -1   7  128.78    5.56
   3  -1   7  126.74    5.89
   3  -1   7  134.90    8.62
  -3   1  -7  131.57   11.59
  -3   1  -7  131.53    9.91
   3  -1   7  155.56    9.99
   3  -1   7  128.30    9.55
  -4   1  -7 1001.67   89.74
  -4   1  -7 1012.02   60.36
  -4   1  -7 1001.98   73.52
  -4   1  -7 1010.28   44.60
   4  -1   7  980.95   44.26
   4  -1   7  989.66   50.90
  -4   1  -7 1136.08   44.02
   4  -1   7 1109.39   49.31
   4  -1   7 1108.11   61.38
  -5   1  -7 -0.2351  1.0780
  -5   1  -7  2.0462  0.9998
  -5   1  -7  -1.991   1.442
   5  -1   7 -0.6425  0.8831
   5  -1   7  0.0610  0.5660
   5  -1   7  0.7773  7.9091
  -6   1  -7  11.569   1.774
  -6   1  -7  5.6167  3.0291
  -6   1  -7  10.787   2.030
   6  -1   7  12.702   2.478
   6  -1   7   7.269  10.771
  -7   1  -7  54.345   5.945
   7  -1   7  50.442   4.441
   7  -1   7  24.392  15.724
   7   0  -7  7.7798  2.1375
   7   0  -7  12.158   2.779
   7   0  -7  6.0546  2.0109
  -7   0   7  12.361   2.681
  -7   0   7  9.8425  2.8078
   6   0  -7  145.76    7.13
   6   0  -7  148.01    8.36
   6   0  -7  148.61    7.27
  -6   0   7  153.15   10.75
  -6   0   7  146.50   13.36
   6   0  -7  138.46   17.09
   5   0  -7  50.270   2.490
   5   0  -7  48.934   2.783
   5   0  -7  53.007   3.235
  -5   0   7  54.609   2.795
  -5   0   7  51.296   3.550
   5   0  -7  30.699   9.157
  -5   0   7  33.492  11.061
   4   0  -7  192.09    7.28
   4   0  -7  188.07   13.07
   4   0  -7  187.64   11.01
   4   0  -7  187.55    5.21
   4   0  -7  190.97    6.12
  -4   0   7  185.51    7.87
  -4   0   7  182.48    6.29
   4   0  -7  197.09   12.70
   4   0  -7  218.73   15.19
  -4   0   7  188.82   12.79
   3   0  -7  2.9481  1.0602
   3   0  -7  4.6001  1.1946
   3   0  -7  3.0768  0.8691
   3   0  -7  3.8643  0.7373
   3   0  -7  3.1416  0.7012
   3   0  -7  3.6789  0.9772
  -3   0   7  3.4089  0.7341
  -3   0   7  2.3038  1.1175
  -3   0   7  3.1178  0.7843
   3   0  -7  7.3355  4.8430
   3   0  -7  2.3441  5.3907
  -3   0   7  7.0702  5.6132
  -3   0   7  -2.000   3.519
   2   0  -7 1015.51   56.96
   2   0  -7  957.47   58.01
   2   0  -7  907.94   51.29
   2   0  -7  999.03   96.00
   2   0  -7  984.31   74.47
  -2   0   7 1033.36   37.79
  -2   0   7  984.79   43.14
  -2   0   7  896.61   45.76
  -2   0   7  982.03   47.08
  -2   0   7 1056.52   34.56
   2   0  -7 1036.62   50.92
   2   0  -7 1110.19   38.67
  -2   0   7 1060.49   52.09
  -2   0   7 1086.19   45.81
   1   0  -7  448.17   16.11
   1   0  -7  468.62   25.41
   1   0  -7  465.76   19.68
   1   0  -7  473.99   28.24
   1   0  -7  467.07   29.14
  -1   0   7  430.05   15.32
  -1   0   7  462.13   20.20
  -1   0   7  412.15   15.67
  -1   0   7  427.50   15.49
  -1   0   7  478.34   22.88
   1   0  -7  437.92   23.13
   1   0  -7  488.67   36.46
  -1   0   7  439.45   19.73
  -1   0   7  406.10   21.06
   0   0  -7  10.337   0.677
   0   0  -7  10.637   0.841
   0   0  -7  9.6015  1.1846
   0   0  -7  12.125   0.699
   0   0   7  11.736   0.699
   0   0   7  10.555   0.897
   0   0   7  13.733   1.184
   0   0   7  10.343   0.947
   0   0   7  11.736   0.897
   0   0   7  10.355   0.667
   0   0  -7  6.0326  3.2625
   0   0  -7  9.8847  2.5940
   0   0   7  8.2683  3.2427
   0   0   7  5.7532  2.5047
  -1   0  -7  150.70   14.55
  -1   0  -7  148.51    8.70
  -1   0  -7  147.99    4.47
  -1   0  -7  141.49    6.24
  -1   0  -7  142.75    5.67
   1   0   7  137.00    4.95
   1   0   7  140.91    4.98
   1   0   7  146.58    6.96
   1   0   7  150.27    6.10
   1   0   7  150.79    8.69
  -1   0  -7  142.82    9.67
  -1   0  -7  136.24    8.71
   1   0   7  132.21    7.64
   1   0   7  141.48    8.18
  -2   0  -7  17.316   1.706
  -2   0  -7  17.371   1.262
  -2   0  -7  17.076   1.180
  -2   0  -7  17.415   1.727
  -2   0  -7  14.989   1.269
   2   0   7  17.153   0.788
   2   0   7  17.899   1.048
   2   0   7  15.109   1.183
   2   0   7  17.270   1.213
   2   0   7  19.172   1.253
  -2   0  -7  15.458   3.598
  -2   0  -7  9.9145  4.3455
   2   0   7  12.393   4.499
   2   0   7  14.861   3.573
  -3   0  -7  476.70   43.03
  -3   0  -7  473.54   23.06
  -3   0  -7  485.76   29.55
  -3   0  -7  497.22   32.31
  -3   0  -7  467.79   31.09
   3   0   7  462.72   14.25
   3   0   7  452.50   40.82
   3   0   7  417.10    9.50
  -3   0  -7  492.04   20.67
  -3   0  -7  467.38   35.98
   3   0   7  495.51   22.11
   3   0   7  478.74   24.22
  -4   0  -7 2794.71  227.91
  -4   0  -7 2872.55  199.74
   4   0   7 2747.08  151.41
   4   0   7 2475.98   85.39
  -5   0  -7  36.570   3.966
  -5   0  -7  37.393   3.606
  -5   0  -7  34.903   3.182
   5   0   7  39.513   2.097
   5   0   7  43.523   2.468
  -5   0  -7  23.897   7.686
   5   0   7  22.897   7.391
  -6   0  -7  0.0081  1.1061
  -6   0  -7  2.3855  2.1986
  -6   0  -7  1.8442  1.2585
   6   0   7  2.4239  1.3391
   6   0   7  -1.199   9.893
  -7   0  -7  20.817   2.695
  -7   0  -7  19.343   3.104
  -7   0  -7  23.836   3.625
   7   0   7  28.601   2.941
   7  -1  -7  193.91   14.19
   7  -1  -7  194.41   11.71
   7  -1  -7  186.79   12.72
  -7   1   7  193.08    9.86
  -7   1   7  202.18   12.67
   7  -1  -7  205.99   20.53
   6  -1  -7  300.20   11.84
   6  -1  -7  316.04   15.13
   6  -1  -7  298.32   12.93
  -6   1   7  315.87   11.88
  -6   1   7  295.62   25.96
   6  -1  -7  297.93   28.99
   5  -1  -7  391.79   27.54
   5  -1  -7  385.06   12.98
   5  -1  -7  405.78   14.79
   5  -1  -7  408.34   13.66
  -5   1   7  394.54   30.43
  -5   1   7  393.41   12.33
   5  -1  -7  422.99   22.88
   4  -1  -7  167.36   11.00
   4  -1  -7  183.95   11.03
   4  -1  -7  185.74    5.94
   4  -1  -7  177.29   11.08
   4  -1  -7  186.52   13.30
   4  -1  -7  178.56   11.41
   4  -1  -7  181.18    5.16
  -4   1   7  180.41    8.66
  -4   1   7  165.65    7.59
  -4   1   7  179.78    5.89
   4  -1  -7  198.77   16.82
  -4   1   7  175.59   11.32
   3  -1  -7  112.45    8.06
   3  -1  -7  116.86    4.03
   3  -1  -7  115.98    5.78
   3  -1  -7  111.47    5.06
   3  -1  -7  114.10    6.50
   3  -1  -7  111.43    5.65
  -3   1   7  121.08    7.31
  -3   1   7  104.89    6.69
   3  -1  -7  102.35    8.22
   3  -1  -7  94.942   9.409
  -3   1   7  86.415   9.408
  -3   1   7  108.01    9.62
   2  -1  -7  361.44   15.93
   2  -1  -7  347.18   17.97
   2  -1  -7  366.74   20.80
   2  -1  -7  364.08   14.22
   2  -1  -7  364.06   13.51
   2  -1  -7  355.86   20.38
  -2   1   7  377.15   13.67
  -2   1   7  362.26   19.43
  -2   1   7  386.80   15.75
  -2   1   7  364.27   20.00
   2  -1  -7  382.97   35.41
   2  -1  -7  386.95   19.18
  -2   1   7  356.19   18.00
  -2   1   7  382.05   20.09
   1  -1  -7  27.516   1.295
   1  -1  -7  26.487   1.373
   1  -1  -7  27.074   1.145
   1  -1  -7  25.933   1.607
  -1   1   7  29.267   1.570
  -1   1   7  24.686   1.139
  -1   1   7  27.706   1.406
  -1   1   7  23.723   0.833
  -1   1   7  27.183   1.770
   1  -1  -7  23.936   3.391
   1  -1  -7  33.689   4.580
  -1   1   7  23.404   3.547
  -1   1   7  28.657   4.318
   0  -1  -7  206.56    9.54
   0  -1  -7  228.35   10.40
   0  -1  -7  229.70    7.61
   0  -1  -7  223.26   15.89
   0   1   7  228.25    7.80
   0   1   7  235.79    7.87
   0   1   7  224.19    9.36
   0   1   7  215.38   13.12
   0   1   7  250.63    8.15
   0   1   7  233.30   11.72
   0  -1  -7  237.00   14.16
   0  -1  -7  231.94   10.33
   0   1   7  226.01   11.49
   0   1   7  230.75    9.72
  -1  -1  -7  32.062   1.534
  -1  -1  -7  35.911   2.158
  -1  -1  -7  35.266   1.819
  -1  -1  -7  36.642   1.978
  -1  -1  -7  34.208   2.338
  -1  -1  -7  32.135   2.907
   1   1   7  38.502   2.364
   1   1   7  37.718   2.311
   1   1   7  35.464   1.825
   1   1   7  36.269   1.914
   1   1   7  34.903   1.324
  -1  -1  -7  33.857   4.140
  -1  -1  -7  34.714   3.864
   1   1   7  30.505   3.867
   1   1   7  31.788   4.443
  -2  -1  -7  320.01   19.94
  -2  -1  -7  322.82   21.92
  -2  -1  -7  324.58   23.64
  -2  -1  -7  333.00   16.99
  -2  -1  -7  325.45   16.95
  -2  -1  -7  328.14   14.33
   2   1   7  320.16   18.87
   2   1   7  280.58    9.43
   2   1   7  283.59   10.90
   2   1   7  298.55    7.89
   2   1   7  317.33   21.39
  -2  -1  -7  349.15   25.51
  -2  -1  -7  333.93   12.62
   2   1   7  372.61   20.28
   2   1   7  334.03   14.37
  -3  -1  -7  8.3945  1.2045
  -3  -1  -7  6.7833  0.9709
  -3  -1  -7  8.0234  0.8433
  -3  -1  -7  5.3267  0.9782
  -3  -1  -7  4.5388  0.8007
   3   1   7  6.1691  0.9691
   3   1   7  5.9919  0.7616
   3   1   7  7.3416  0.7419
  -3  -1  -7 -0.1231  4.4019
  -3  -1  -7  6.0354  4.2628
   3   1   7  -1.391   5.266
   3   1   7  4.3287  4.2657
  -4  -1  -7  35.152   2.744
  -4  -1  -7  36.399   3.417
  -4  -1  -7  39.539   2.267
  -4  -1  -7  43.659   2.632
  -4  -1  -7  37.761   2.086
  -4  -1  -7  40.713   3.463
   4   1   7  38.164   1.963
   4   1   7  39.262   2.152
  -4  -1  -7  39.369   6.647
  -4  -1  -7  31.480   7.454
   4   1   7  22.233   5.789
   4   1   7  29.351   6.399
  -5  -1  -7  328.20   19.94
  -5  -1  -7  350.66   17.77
  -5  -1  -7  348.33   13.07
   5   1   7  356.98   15.15
   5   1   7  357.30   13.71
  -5  -1  -7  363.20   22.41
   5   1   7  367.50   24.70
  -6  -1  -7  70.144   4.915
  -6  -1  -7  76.838   4.656
  -6  -1  -7  83.361   4.782
   6   1   7  88.309   4.617
   6   1   7  86.485   5.618
  -6  -1  -7  50.314  13.083
   6   1   7  43.561  12.957
  -7  -1  -7  81.049   6.188
  -7  -1  -7  75.056   7.864
  -7  -1  -7  82.585   6.980
   7   1   7  89.712   6.429
   7  -2  -7  29.639   3.733
   7  -2  -7  30.677   3.059
  -7   2   7  30.065   3.455
  -7   2   7  39.835   4.342
   7  -2  -7  24.212  15.213
   6  -2  -7  1.2381  1.6284
   6  -2  -7  1.0636  1.2322
   6  -2  -7  -1.933   1.534
  -6   2   7  -1.808   2.335
  -6   2   7  0.6452  2.3859
   6  -2  -7  7.3854  7.7914
   5  -2  -7  10.295   1.785
   5  -2  -7  11.262   1.882
   5  -2  -7  7.3590  1.4445
  -5   2   7  9.2093  2.0017
  -5   2   7  7.3307  1.8824
   5  -2  -7  6.8250  8.5000
   4  -2  -7  52.251   3.607
   4  -2  -7  59.721   2.739
   4  -2  -7  53.542   3.913
   4  -2  -7  55.353   2.524
   4  -2  -7  55.344   3.566
   4  -2  -7  55.642   2.370
   4  -2  -7  59.887   2.564
   4  -2  -7  56.193   2.633
  -4   2   7  54.702   3.109
  -4   2   7  62.874   4.783
   4  -2  -7  65.513  10.278
  -4   2   7  43.694   8.774
   3  -2  -7  17.120   1.714
   3  -2  -7  15.879   1.669
   3  -2  -7  16.112   1.564
   3  -2  -7  16.718   1.183
  -3   2   7  15.556   1.275
  -3   2   7  15.679   1.294
   3  -2  -7  16.242   5.134
   3  -2  -7  15.839   4.793
  -3   2   7  21.325   6.183
   2  -2  -7  16.468   1.303
   2  -2  -7  13.377   1.288
   2  -2  -7  15.048   1.190
   2  -2  -7  14.850   1.070
  -2   2   7  14.967   1.293
  -2   2   7  14.855   1.199
  -2   2   7  15.668   1.030
   2  -2  -7  18.032   4.554
   2  -2  -7  8.3689  3.7251
  -2   2   7  10.308   3.832
  -2   2   7  13.323   4.655
   1  -2  -7  143.74    5.18
   1  -2  -7  149.38    5.55
   1  -2  -7  144.24    5.02
   1  -2  -7  151.42   12.31
  -1   2   7  137.75    4.56
  -1   2   7  142.67    5.18
  -1   2   7  129.64    5.89
  -1   2   7  151.55    4.61
  -1   2   7  149.38    7.72
   1  -2  -7  166.54    8.55
   1  -2  -7  140.71   10.02
  -1   2   7  159.88    9.73
  -1   2   7  159.70   10.19
   0  -2  -7  628.94   29.22
   0  -2  -7  623.36   24.45
   0  -2  -7  614.17   30.03
   0   2   7  630.54   29.20
   0   2   7  680.98   19.70
   0   2   7  607.47   19.21
   0   2   7  589.63   18.12
   0   2   7  647.86   31.71
   0  -2  -7  655.40   36.35
   0  -2  -7  585.77   30.50
   0   2   7  683.02   33.03
   0   2   7  695.84   31.16
  -1  -2  -7  115.77    4.49
  -1  -2  -7  120.59    9.25
  -1  -2  -7  120.30    5.19
   1   2   7  128.24    7.80
   1   2   7  121.32    3.04
   1   2   7  111.56    3.21
   1   2   7  126.76    6.96
   1   2   7  123.63    6.48
   1   2   7  125.51    6.24
  -1  -2  -7  114.35    8.75
  -1  -2  -7  120.26    7.11
   1   2   7  114.27    8.77
   1   2   7  99.349   6.970
  -2  -2  -7  67.775   3.167
  -2  -2  -7  64.962   2.539
  -2  -2  -7  76.229   5.136
  -2  -2  -7  68.089   4.123
  -2  -2  -7  65.502   2.398
  -2  -2  -7  70.383   3.649
   2   2   7  73.108   3.754
   2   2   7  68.313   3.790
   2   2   7  65.581   1.980
   2   2   7  70.868   4.214
   2   2   7  66.903   4.898
  -2  -2  -7  62.269   5.381
  -2  -2  -7  69.729   5.509
   2   2   7  59.007   5.825
   2   2   7  59.777   4.852
  -3  -2  -7  586.60   33.26
  -3  -2  -7  560.54   29.75
  -3  -2  -7  614.05   49.69
  -3  -2  -7  543.80   30.65
  -3  -2  -7  611.67   30.08
  -3  -2  -7  567.31   28.60
   3   2   7  570.28   14.27
   3   2   7  589.65   15.63
   3   2   7  582.56   42.10
   3   2   7  561.96   53.40
  -3  -2  -7  615.39   24.78
  -3  -2  -7  597.04   23.77
   3   2   7  568.70   30.09
   3   2   7  586.25   30.13
  -4  -2  -7  104.94    5.35
  -4  -2  -7  98.523   6.788
  -4  -2  -7  102.25    6.12
  -4  -2  -7  103.57    5.45
  -4  -2  -7  102.85    9.52
   4   2   7  98.627   4.249
   4   2   7  96.443   3.705
  -4  -2  -7  109.73   10.87
  -4  -2  -7  98.923   8.843
   4   2   7  86.721   9.167
   4   2   7  88.067  11.890
  -5  -2  -7  3.8417  1.5447
  -5  -2  -7  3.0775  1.5599
  -5  -2  -7  4.0980  1.4728
  -5  -2  -7  3.5664  1.1083
  -5  -2  -7  3.6347  0.8522
   5   2   7  2.2955  1.1429
   5   2   7  2.8653  1.1338
  -5  -2  -7  3.4202  7.0202
  -5  -2  -7  -2.284   7.630
   5   2   7  -6.952   6.848
  -6  -2  -7  18.536   2.230
  -6  -2  -7  22.522   2.756
  -6  -2  -7  20.470   2.701
   6   2   7  27.618   2.202
   6   2   7  22.859   2.544
  -6  -2  -7  15.542   7.575
  -7  -2  -7  2.0003  2.6258
  -7  -2  -7  4.9202  1.5433
  -7  -2  -7  5.1998  2.4066
   7   2   7  2.5514  2.0182
   6  -3  -7  16.104   2.472
   6  -3  -7  11.353   2.063
  -6   3   7  14.526   2.913
  -6   3   7  11.721   1.888
   6  -3  -7  18.582   9.054
   5  -3  -7  47.166   2.803
   5  -3  -7  51.735   3.212
  -5   3   7  54.957   5.359
  -5   3   7  50.572   4.696
   5  -3  -7  47.731  10.943
   4  -3  -7  5.4077  1.1362
   4  -3  -7  4.9014  1.2445
   4  -3  -7  3.2802  1.1795
  -4   3   7  5.5998  1.1428
  -4   3   7  5.2708  1.1362
   4  -3  -7  0.1634  5.7626
   4  -3  -7  9.8320  6.5554
   3  -3  -7  386.45   12.10
   3  -3  -7  384.04   19.59
   3  -3  -7  385.91    9.93
  -3   3   7  399.57   15.23
  -3   3   7  360.84   13.23
   3  -3  -7  407.50   24.74
  -3   3   7  431.77   20.12
   2  -3  -7  799.39   23.20
   2  -3  -7  783.88   21.63
   2  -3  -7  829.87   35.07
  -2   3   7  827.64   26.93
  -2   3   7  820.34   30.00
  -2   3   7  837.13   43.00
   2  -3  -7  791.79   47.01
   2  -3  -7  902.11   31.05
  -2   3   7  869.77   50.26
   1  -3  -7  261.79   10.83
   1  -3  -7  270.29    8.13
   1  -3  -7  264.80   15.71
  -1   3   7  262.30   14.55
  -1   3   7  262.03   11.71
  -1   3   7  273.26   13.84
  -1   3   7  274.27   12.85
  -1   3   7  265.66   15.41
  -1   3   7  283.84    9.23
   1  -3  -7  284.91   22.50
   1  -3  -7  287.17   22.11
  -1   3   7  277.55   14.35
  -1   3   7  280.92   17.77
   0  -3  -7  224.35   10.40
   0  -3  -7  224.35    6.48
   0  -3  -7  218.31   13.54
   0   3   7  242.73   13.61
   0   3   7  236.08    6.11
   0   3   7  216.27    6.00
   0   3   7  213.99   10.81
   0   3   7  214.78    6.92
   0  -3  -7  234.79   15.15
   0  -3  -7  235.80   12.32
   0   3   7  220.68    9.56
   0   3   7  221.30   16.62
  -1  -3  -7  385.70   16.77
  -1  -3  -7  378.74   25.12
  -1  -3  -7  373.68   17.31
  -1  -3  -7  398.18   22.50
   1   3   7  377.27   10.90
   1   3   7  403.54   10.34
   1   3   7  339.05   20.01
   1   3   7  378.08   11.21
   1   3   7  362.69   11.16
   1   3   7  408.39   42.88
  -1  -3  -7  407.67   28.83
  -1  -3  -7  401.69   20.38
   1   3   7  392.39   20.92
   1   3   7  421.32   32.83
  -2  -3  -7  12.116   1.122
  -2  -3  -7  11.638   0.996
  -2  -3  -7  11.914   1.065
  -2  -3  -7  12.714   0.917
  -2  -3  -7  12.826   0.825
   2   3   7  11.020   1.285
   2   3   7  13.576   1.077
   2   3   7  10.079   1.000
   2   3   7  14.027   1.478
   2   3   7  13.547   1.731
  -2  -3  -7  10.133   2.519
  -2  -3  -7  8.9155  2.5423
   2   3   7  5.0018  4.0243
   2   3   7  6.3253  3.4219
  -3  -3  -7  90.428   6.363
  -3  -3  -7  88.727   3.848
  -3  -3  -7  90.159   4.208
  -3  -3  -7  88.854   5.005
  -3  -3  -7  92.486   5.078
   3   3   7  79.988   3.348
   3   3   7  84.273   3.934
  -3  -3  -7  96.486   8.184
  -3  -3  -7  82.183   7.909
   3   3   7  58.982   6.899
  -4  -3  -7  7.0302  0.9989
  -4  -3  -7  9.3155  1.2142
  -4  -3  -7  10.395   0.775
  -4  -3  -7  5.7592  1.0317
  -4  -3  -7  7.6346  1.3176
  -4  -3  -7  9.2257  0.7443
   4   3   7  8.2518  1.3718
   4   3   7  10.474   1.086
  -4  -3  -7  1.0051  4.9005
  -4  -3  -7  11.911   7.437
   4   3   7  1.8930  4.2781
  -5  -3  -7  7.4689  1.6046
  -5  -3  -7  4.2084  1.1369
  -5  -3  -7  4.4910  0.7533
  -5  -3  -7  4.7365  1.2711
   5   3   7  5.7129  1.3620
   5   3   7  5.9836  1.6756
  -5  -3  -7  14.694   5.427
   5   3   7  -5.311   5.294
  -6  -3  -7  133.48    7.48
  -6  -3  -7  141.78    8.89
  -6  -3  -7  133.48    7.24
   6   3   7  136.46    5.68
   6   3   7  152.93    8.87
  -6  -3  -7  128.59   18.72
  -7  -3  -7  20.313   3.104
  -7  -3  -7  24.562   3.287
  -7  -3  -7  17.894   3.007
   7   3   7  23.039   2.773
  -7  -3  -7  11.933  13.350
   6  -4  -7  13.144   2.450
   6  -4  -7  8.2101  2.2880
  -6   4   7  11.016   2.541
  -6   4   7  7.5353  2.2705
   6  -4  -7  10.656   8.683
   5  -4  -7  3.2325  1.9138
   5  -4  -7  1.4737  1.3466
  -5   4   7  3.3169  1.5701
  -5   4   7  3.1034  1.4831
   5  -4  -7  4.6548  7.9563
   4  -4  -7  2.8955  1.3920
   4  -4  -7  4.6748  1.1003
  -4   4   7  3.1764  1.0075
  -4   4   7  5.6219  1.2702
   4  -4  -7  4.2118  3.9623
   3  -4  -7  331.87    8.95
   3  -4  -7  331.40   13.66
   3  -4  -7  325.23   18.87
  -3   4   7  330.21   17.79
  -3   4   7  351.64   11.55
   3  -4  -7  364.57   25.42
  -3   4   7  351.30   26.03
   2  -4  -7  5.7718  0.9948
   2  -4  -7  4.7419  1.0588
   2  -4  -7  4.3342  0.9955
  -2   4   7  5.0612  0.6808
  -2   4   7  5.7327  1.4741
   2  -4  -7  6.5630  3.5962
   2  -4  -7  2.2490  2.1033
  -2   4   7  5.6030  4.7745
   1  -4  -7  19.075   1.570
   1  -4  -7  17.890   1.507
   1  -4  -7  18.270   1.698
  -1   4   7  18.032   0.919
  -1   4   7  17.894   1.008
  -1   4   7  20.194   1.373
  -1   4   7  18.776   1.360
   1  -4  -7  23.704   3.598
   1  -4  -7  17.052   2.610
  -1   4   7  10.167   3.611
   0  -4  -7  288.92   21.06
   0  -4  -7  285.60    7.04
   0  -4  -7  281.34    6.57
   0   4   7  294.01   12.57
   0   4   7  295.21    9.60
   0   4   7  287.00   11.64
   0   4   7  296.10   11.05
   0  -4  -7  290.56   15.59
   0  -4  -7  251.38   13.23
   0   4   7  291.59   15.75
  -1  -4  -7  567.08   22.60
  -1  -4  -7  557.49   18.84
  -1  -4  -7  581.11   35.65
   1   4   7  523.13   24.42
   1   4   7  596.74   16.91
   1   4   7  541.73   23.84
   1   4   7  543.17   12.23
  -1  -4  -7  610.25   36.24
  -1  -4  -7  581.77   31.66
   1   4   7  618.49   22.14
  -2  -4  -7  144.34    8.21
  -2  -4  -7  134.68    7.90
  -2  -4  -7  142.10    5.29
  -2  -4  -7  144.64    6.70
  -2  -4  -7  153.41    6.10
   2   4   7  155.88    6.48
   2   4   7  149.78    6.57
   2   4   7  133.36    8.93
  -2  -4  -7  143.87   10.45
  -2  -4  -7  130.71    8.31
   2   4   7  134.47   10.20
  -3  -4  -7  158.34    6.65
  -3  -4  -7  166.48   10.04
  -3  -4  -7  169.72    8.85
  -3  -4  -7  176.03    7.01
  -3  -4  -7  157.13   10.28
   3   4   7  169.17    7.00
   3   4   7  166.12    8.98
  -4  -4  -7  56.836   2.385
  -4  -4  -7  53.398   3.291
  -4  -4  -7  58.027   3.070
  -4  -4  -7  55.208   2.373
  -4  -4  -7  57.634   2.465
  -4  -4  -7  50.051   3.433
  -4  -4  -7  51.242   3.463
   4   4   7  54.127   2.703
   4   4   7  51.688   2.815
  -4  -4  -7  53.568  11.312
  -4  -4  -7  47.629   6.442
   4   4   7  36.850   6.795
  -5  -4  -7  401.64   33.98
  -5  -4  -7  408.53   22.46
  -5  -4  -7  378.02   18.49
   5   4   7  404.50   19.56
   5   4   7  387.97   16.30
   5   4   7  406.27   19.57
  -5  -4  -7  431.52   21.43
  -6  -4  -7  125.66    6.70
  -6  -4  -7  122.71    8.42
  -6  -4  -7  125.39    7.56
   6   4   7  127.55    8.92
   6   4   7  135.05    7.00
  -6  -4  -7  98.849  15.544
  -7  -4  -7  21.251   2.848
  -7  -4  -7  20.905   3.631
  -7  -4  -7  22.331   3.712
   7   4   7  23.396   3.155
  -7  -4  -7  18.747  14.610
   6  -5  -7  108.85    6.52
  -6   5   7  111.70    6.79
  -6   5   7  109.78    9.30
   6  -5  -7  131.73   20.43
   5  -5  -7  547.58   31.86
   5  -5  -7  552.32   28.26
  -5   5   7  570.83   28.43
   5  -5  -7  638.53   45.90
   4  -5  -7  76.970   4.363
   4  -5  -7  80.319   5.262
  -4   5   7  83.605   3.858
   4  -5  -7  82.280   9.202
   3  -5  -7  42.671   3.285
   3  -5  -7  42.495   2.993
  -3   5   7  46.762   2.939
  -3   5   7  42.047   3.195
   3  -5  -7  52.335   7.041
   3  -5  -7  49.599   7.214
   2  -5  -7  149.44   10.23
   2  -5  -7  149.79    7.29
   2  -5  -7  157.91    4.77
  -2   5   7  152.41    5.17
  -2   5   7  151.63    8.71
  -2   5   7  154.30    9.78
  -2   5   7  155.29    5.42
   2  -5  -7  180.02    9.19
   2  -5  -7  158.13   11.77
  -2   5   7  180.60   14.47
   1  -5  -7  9.5537  1.2243
   1  -5  -7  11.831   1.234
  -1   5   7  10.497   0.817
  -1   5   7  9.2947  1.0950
  -1   5   7  10.646   1.085
  -1   5   7  10.369   1.443
  -1   5   7  10.530   1.140
   1  -5  -7  12.608   3.074
   1  -5  -7  7.2791  2.8188
   0  -5  -7  4.2452  0.8039
   0  -5  -7  3.9021  0.8151
   0  -5  -7  4.6994  1.0281
   0   5   7  3.7155  0.5835
   0   5   7  4.6464  0.8638
   0   5   7  3.1790  0.7611
   0   5   7  2.4172  0.3832
   0   5   7  3.6451  0.7725
   0  -5  -7  1.3951  2.0944
   0  -5  -7  5.5306  2.3181
   0   5   7  0.3345  2.9978
  -1  -5  -7  346.35    6.92
  -1  -5  -7  359.80   10.33
  -1  -5  -7  379.78   14.13
   1   5   7  365.75   17.20
   1   5   7  335.76    7.84
   1   5   7  375.52   21.13
   1   5   7  381.73   22.77
  -1  -5  -7  414.88   17.47
  -1  -5  -7  371.24   26.39
   1   5   7  384.56   18.32
  -2  -5  -7  125.38    6.06
  -2  -5  -7  126.21    7.24
  -2  -5  -7  130.30    6.41
  -2  -5  -7  133.26    4.76
   2   5   7  123.60    4.44
   2   5   7  125.88    6.48
   2   5   7  122.13    6.28
  -2  -5  -7  120.90    8.20
  -2  -5  -7  134.71    8.49
   2   5   7  123.07    9.48
  -3  -5  -7  5.5919  0.5435
  -3  -5  -7  6.8323  0.5604
  -3  -5  -7  7.0590  0.7517
  -3  -5  -7  6.0514  1.0386
  -3  -5  -7  7.0893  1.2548
   3   5   7  6.9212  1.5815
   3   5   7  7.1144  0.6713
  -3  -5  -7  4.1712  3.5466
  -3  -5  -7  6.9279  3.1785
   3   5   7  1.5847  3.4206
  -4  -5  -7  19.253   2.302
  -4  -5  -7  15.168   1.321
  -4  -5  -7  19.768   2.230
   4   5   7  20.092   1.849
   4   5   7  18.055   1.310
  -4  -5  -7  3.2094  6.3672
  -4  -5  -7  9.3038  5.7839
  -5  -5  -7  41.822   2.670
  -5  -5  -7  43.142   2.902
   5   5   7  41.819   2.504
   5   5   7  45.940   3.250
  -5  -5  -7  29.565   9.516
  -6  -5  -7  3.9394  1.4881
  -6  -5  -7  4.6360  1.8415
  -6  -5  -7  4.9058  1.6895
   6   5   7  6.2411  1.9436
   6   5   7  5.4807  1.8384
   6   5   7  3.4790  1.2021
  -6  -5  -7  -1.568   5.928
  -7  -5  -7 -0.8334  2.4780
  -7  -5  -7  0.0439  2.9509
  -7  -5  -7 -0.0850  2.0097
   7   5   7  -2.835   2.469
   7   5   7  -1.509   1.454
  -7  -5  -7  -4.232   9.284
   5  -6  -7  86.352   5.969
  -5   6   7  94.408   5.962
   5  -6  -7  99.656  14.748
   4  -6  -7  137.74    5.56
   4  -6  -7  135.86    5.92
  -4   6   7  149.31    8.81
   4  -6  -7  147.42   13.24
   3  -6  -7  15.016   2.059
   3  -6  -7  18.622   2.138
  -3   6   7  20.011   2.682
  -3   6   7  16.211   1.489
   3  -6  -7  11.283   5.175
   3  -6  -7  11.730   4.526
   2  -6  -7  176.40    6.07
   2  -6  -7  177.06    6.81
  -2   6   7  176.51    6.35
  -2   6   7  179.84    7.29
   2  -6  -7  170.69   11.42
   2  -6  -7  190.97   13.39
   1  -6  -7  4.6892  0.9675
   1  -6  -7  3.5493  1.0284
  -1   6   7  0.9766  1.1761
  -1   6   7  2.3189  0.7644
  -1   6   7  1.0501  0.7320
  -1   6   7  1.8450  0.7420
  -1   6   7  2.2884  1.0813
   1  -6  -7  4.3230  2.8871
   1  -6  -7  0.3220  2.2205
  -1   6   7 -0.4834  2.1090
   0  -6  -7  3.3942  1.1644
   0  -6  -7 -0.2628  1.0267
   0   6   7  1.7734  1.1064
   0   6   7  2.0261  0.5689
   0   6   7  1.0906  0.7503
   0   6   7  1.8638  0.8498
   0  -6  -7  3.1371  2.0367
   0  -6  -7  4.2115  2.0888
   0   6   7  -1.346   2.450
  -1  -6  -7  8.1025  1.0291
  -1  -6  -7  8.6811  0.8718
  -1  -6  -7  7.4285  1.2919
   1   6   7  9.6800  0.8898
   1   6   7  8.5155  1.5860
   1   6   7  8.3166  1.1695
  -1  -6  -7  10.312   2.601
  -1  -6  -7  7.9286  2.5802
   1   6   7  3.0468  3.2355
  -2  -6  -7  285.46   13.07
  -2  -6  -7  277.23   12.38
  -2  -6  -7  251.28    9.84
   2   6   7  270.72   16.65
   2   6   7  286.79   17.20
   2   6   7  277.10   19.57
  -2  -6  -7  291.18   17.13
  -2  -6  -7  298.61   22.30
   2   6   7  257.49   17.28
  -3  -6  -7  0.0403  1.2981
  -3  -6  -7  2.3421  1.3923
  -3  -6  -7  0.7229  0.5877
  -3  -6  -7  0.1107  0.3790
   3   6   7  1.4954  2.0385
   3   6   7  0.2284  0.4158
  -3  -6  -7  2.1223  4.1156
  -3  -6  -7  1.9783  4.4607
  -4  -6  -7  571.42   21.65
  -4  -6  -7  568.83   24.63
   4   6   7  564.46   33.36
   4   6   7  571.22   24.00
  -4  -6  -7  621.53   42.86
  -5  -6  -7  442.24   23.02
  -5  -6  -7  426.02   22.05
   5   6   7  407.35   23.74
   5   6   7  469.09   19.52
  -5  -6  -7  463.04   39.15
  -6  -6  -7  33.388   2.955
  -6  -6  -7  29.868   4.279
   6   6   7  33.630   3.360
  -6  -6  -7  26.118  12.405
  -7  -6  -7  6.3262  2.3316
  -7  -6  -7  7.5582  2.5921
   7   6   7  7.4534  3.0476
   7   6   7  8.4298  2.0808
  -7  -6  -7   6.866  12.710
   5  -7  -7  -1.284   1.893
  -5   7   7  1.9547  3.3970
   5  -7  -7   5.429  10.214
   4  -7  -7  38.431   3.862
  -4   7   7  42.559   4.063
   4  -7  -7  32.064   7.720
   3  -7  -7  181.74    7.06
  -3   7   7  181.23    9.67
   3  -7  -7  193.86   19.06
   3  -7  -7  179.63   14.15
   2  -7  -7  60.607   3.612
   2  -7  -7  51.132   3.450
  -2   7   7  57.442   3.434
  -2   7   7  49.905   4.441
   2  -7  -7  43.968   5.622
   2  -7  -7  53.941   5.190
   1  -7  -7  495.88   15.88
   1  -7  -7  504.15   13.55
  -1   7   7  500.32   16.65
  -1   7   7  487.27   14.14
  -1   7   7  470.61   27.80
   1  -7  -7  503.42   26.95
   1  -7  -7  498.49   24.65
   0  -7  -7  480.12   12.24
   0  -7  -7  498.95   17.13
   0   7   7  491.34   17.48
   0   7   7  475.62   20.41
   0  -7  -7  502.03   29.06
   0  -7  -7  486.63   22.74
  -1  -7  -7  21.009   1.690
  -1  -7  -7  18.806   1.792
   1   7   7  18.188   1.225
   1   7   7  19.320   2.079
  -1  -7  -7  13.126   2.747
  -1  -7  -7  20.092   3.232
  -2  -7  -7  51.462   3.169
  -2  -7  -7  52.098   2.580
   2   7   7  44.874   2.785
   2   7   7  42.767   2.685
  -2  -7  -7  45.487   5.796
  -2  -7  -7  58.964   6.461
  -3  -7  -7  46.023   2.739
  -3  -7  -7  48.266   2.758
   3   7   7  37.760   2.229
   3   7   7  41.616   3.036
  -3  -7  -7  46.637   5.453
  -3  -7  -7  63.416   7.097
  -4  -7  -7  2.2972  1.3586
  -4  -7  -7  3.0157  1.4168
   4   7   7  5.9582  2.0669
  -4  -7  -7  -1.735   5.231
  -5  -7  -7  65.169   4.937
  -5  -7  -7  67.301   5.418
   5   7   7  71.499   4.439
  -5  -7  -7  82.858  12.699
  -6  -7  -7  36.290   3.684
  -6  -7  -7  30.070   3.729
   6   7   7  45.372   4.640
  -6  -7  -7  27.433  12.027
   4  -8  -7  70.385   5.186
  -4   8   7  61.468   5.548
   4  -8  -7  67.947   9.265
   3  -8  -7  2.4682  1.6437
  -3   8   7 -0.0107  2.7866
   3  -8  -7  1.9065  4.7191
   3  -8  -7  -1.920   3.353
   2  -8  -7  58.436   3.296
  -2   8   7  51.308   4.586
  -2   8   7  55.204   3.554
   1  -8  -7  8.8017  1.5412
  -1   8   7  2.9111  1.4663
  -1   8   7  6.5125  1.2976
  -1   8   7  4.3596  1.1521
   0  -8  -7  11.325   1.678
   0   8   7  13.021   1.183
   0   8   7  9.3727  1.3586
   0   8   7  10.464   1.502
  -1  -8  -7  2.7930  1.1002
  -1  -8  -7  2.1173  1.2537
   1   8   7  0.5711  1.5040
   1   8   7 -0.5184  0.8001
  -2  -8  -7  119.52    7.32
  -2  -8  -7  132.72    6.42
   2   8   7  130.46    6.06
  -3  -8  -7  311.01   13.99
   3   8   7  326.72   14.15
  -3  -8  -7  335.20   30.21
  -4  -8  -7  71.214   4.575
  -4  -8  -7  78.210   5.304
   4   8   7  77.543   5.235
  -4  -8  -7  70.463  10.691
  -5  -8  -7 -0.1090  1.5497
  -5  -8  -7  2.0728  2.2184
   5   8   7  1.0769  2.5114
  -5  -8  -7  13.183   9.202
  -6  -8  -7  2.2028  1.9998
  -6  -8  -7  -1.300   2.487
   6   8   7  3.4559  2.2032
  -6  -8  -7  3.9473  8.4415
   3  -9  -7  98.453   6.070
  -3   9   7  87.217   7.669
   2  -9  -7  188.70   10.31
  -2   9   7  201.94   10.89
  -2   9   7  187.57   11.78
   1  -9  -7  269.35   13.28
  -1   9   7  253.67   16.57
  -1   9   7  264.12   17.04
  -1   9   7  256.25   19.98
   0  -9  -7  32.527   2.399
   0   9   7  27.574   2.623
   0   9   7  28.230   2.720
  -1  -9  -7  51.623   3.688
  -1  -9  -7  45.868   3.418
   1   9   7  49.507   4.304
   1   9   7  49.398   3.885
  -2  -9  -7  50.053   3.674
   2   9   7  48.067   3.394
  -3  -9  -7  116.41    6.89
   3   9   7  117.78    8.27
  -3  -9  -7  126.60   13.30
  -3  -9  -7  120.07   15.91
  -4  -9  -7  15.160   2.134
  -4  -9  -7  14.546   3.201
   4   9   7  20.921   3.618
  -4  -9  -7  20.821   6.839
  -5  -9  -7  130.85    9.83
  -5  -9  -7  133.08   11.73
   5   9   7  153.62   11.28
  -5  -9  -7  159.57   20.07
   1 -10  -7  2.4043  1.5078
  -1  10   7  2.3116  1.5023
   0 -10  -7  5.3378  2.2138
   0  10   7  0.3661  1.3653
   0  10   7  1.9446  1.5430
  -1 -10  -7  11.098   2.498
   1  10   7  5.6935  2.4682
   1  10   7  7.2949  2.1085
  -2 -10  -7  86.690   6.039
   2  10   7  77.085   5.740
   2  10   7  76.737   6.564
  -3 -10  -7  11.829   3.080
   3  10   7  14.929   3.097
  -1  -9   8  3.4273  2.6893
  -1  -9   8  -6.166   8.782
   0  -9   8  0.1361  8.5718
   3   8  -8  0.4359  2.1647
  -3  -8   8  0.0345  2.2224
  -3  -8   8   3.957  10.897
   2   8  -8  100.15    8.26
   2   8  -8  87.056   6.201
  -2  -8   8  90.479   6.980
  -2  -8   8  99.476  14.922
   1   8  -8  189.51   11.16
  -1  -8   8  178.29   16.50
  -1  -8   8  176.06   18.26
   0   8  -8  7.5988  2.5233
   0  -8   8  22.434   7.862
  -1   8  -8  113.43    7.04
   1  -8   8  109.80    8.31
   1  -8   8  113.45    6.89
   1  -8   8  113.78   13.13
  -2   8  -8  162.38   10.45
   2  -8   8  178.66    9.12
   2  -8   8  169.02   10.97
   2  -8   8  187.84   19.41
   4   7  -8  24.122   3.508
  -4  -7   8  19.610   2.534
  -4  -7   8  19.151   2.973
  -4  -7   8  -4.405  12.385
   3   7  -8  70.645   4.507
   3   7  -8  69.744   4.395
  -3  -7   8  69.324   4.256
  -3  -7   8  68.449   6.013
  -3  -7   8  72.034   7.893
  -3  -7   8  65.782  14.812
   2   7  -8  16.408   2.233
   2   7  -8  17.943   2.265
  -2  -7   8  13.815   3.106
  -2  -7   8  24.582   9.057
   1   7  -8  6.7293  1.8526
  -1  -7   8  6.7439  1.8536
  -1  -7   8  8.4756  8.3961
   0   7  -8  16.259   2.571
   0  -7   8  12.584   2.792
   0  -7   8  15.210   2.760
   0  -7   8  9.7548  7.2334
  -1   7  -8  9.9726  2.0180
   1  -7   8  9.1899  2.3345
   1  -7   8  9.9958  2.4948
   1  -7   8  10.515   6.872
  -2   7  -8  27.836   3.284
   2  -7   8  22.790   2.848
   2  -7   8  25.470   2.784
   2  -7   8  30.973   8.174
  -3   7  -8  11.534   2.480
  -3   7  -8  8.9333  3.0257
   3  -7   8  9.4285  2.0338
   3  -7   8  12.844   2.134
   3  -7   8  7.3925  8.7946
   4  -7   8  66.351   6.223
   4  -7   8  61.498   5.890
   5   6  -8  2.0750  1.8670
  -5  -6   8  1.7701  1.4244
  -5  -6   8  1.3532  1.5201
  -5  -6   8   6.276  14.529
   4   6  -8  35.263   2.711
  -4  -6   8  33.722   2.810
  -4  -6   8  32.260   3.160
  -4  -6   8  41.424  13.971
   3   6  -8  4.5735  1.8266
   3   6  -8  3.3526  1.3953
  -3  -6   8  3.4313  1.1013
  -3  -6   8  5.3570  1.7089
  -3  -6   8  1.7217  1.2492
  -3  -6   8  1.0305  8.5150
   2   6  -8  53.521   3.494
   2   6  -8  59.136   4.308
  -2  -6   8  53.609   5.212
  -2  -6   8  54.999   4.346
  -2  -6   8  56.714   4.658
  -2  -6   8  57.714  10.843
   1   6  -8  1.1713  1.1368
  -1  -6   8 -0.2114  0.7720
  -1  -6   8  0.5468  1.7479
  -1  -6   8 -0.3206  0.5727
  -1  -6   8  3.4668  6.8654
   0   6  -8  134.58    6.92
   0  -6   8  138.93    5.63
   0  -6   8  145.98    8.89
   0  -6   8  128.10   12.22
  -1   6  -8  2.8486  1.2443
  -1   6  -8  0.3559  1.1356
   1  -6   8  0.6468  1.3395
   1  -6   8  2.7651  1.3729
   1  -6   8  3.9494  6.4590
  -2   6  -8  164.15   10.66
  -2   6  -8  183.80    7.94
   2  -6   8  180.15    7.24
   2  -6   8  174.66    9.02
   2  -6   8  179.17   15.56
  -3   6  -8  130.97    6.48
  -3   6  -8  148.20    8.76
   3  -6   8  134.78    7.54
   3  -6   8  144.77    8.14
   3  -6   8  109.89   13.36
  -4   6  -8  152.43    8.69
  -4   6  -8  141.34   11.28
   4  -6   8  162.03    8.99
   4  -6   8  152.03    8.85
   4  -6   8  175.99   21.54
   6   5  -8  1.4017  1.7200
  -6  -5   8  2.2727  2.7395
  -6  -5   8  3.2296  1.8317
  -6  -5   8   7.041  10.637
   5   5  -8  122.30    9.66
  -5  -5   8  124.88    5.75
  -5  -5   8  100.94    8.07
  -5  -5   8  103.69   17.57
   4   5  -8  207.10   12.26
   4   5  -8  219.67    8.88
  -4  -5   8  212.63   16.04
  -4  -5   8  203.30   12.01
  -4  -5   8  187.78   16.85
   3   5  -8  63.465   2.897
   3   5  -8  60.457   3.686
  -3  -5   8  64.194   3.887
  -3  -5   8  67.101   4.234
  -3  -5   8  61.668   4.990
  -3  -5   8  48.712  10.648
   2   5  -8  4.5319  1.1876
   2   5  -8  3.5579  1.1230
  -2  -5   8  5.3795  1.0573
  -2  -5   8  4.4630  0.9421
  -2  -5   8  5.7613  1.7247
  -2  -5   8  -1.384   5.343
  -2  -5   8  16.723   7.305
   1   5  -8  6.1414  1.1055
  -1  -5   8  7.4792  0.9123
  -1  -5   8  7.1135  1.3281
  -1  -5   8  8.7717  1.0111
  -1  -5   8  6.3757  4.8825
  -1  -5   8  13.744   4.946
   0   5  -8  0.8572  0.8575
   0   5  -8 -0.4949  0.8155
   0  -5   8  0.0193  0.6471
   0  -5   8 -0.0234  0.3298
   0  -5   8 -0.4841  0.9307
   0  -5   8  2.9175  1.5272
   0  -5   8  4.8251  5.7988
   0  -5   8  -2.041   5.372
  -1   5  -8  22.041   1.884
  -1   5  -8  17.494   1.863
   1  -5   8  20.111   2.122
   1  -5   8  24.050   2.608
   1  -5   8  12.781   5.064
   1  -5   8  21.530   6.076
  -2   5  -8  66.696   3.637
  -2   5  -8  80.359   4.795
   2  -5   8  83.261   3.836
   2  -5   8  82.632   4.352
   2  -5   8  81.652  10.235
  -3   5  -8  0.9240  1.0686
  -3   5  -8  0.9744  1.4837
   3  -5   8  0.9587  1.2571
   3  -5   8  0.5447  1.2730
   3  -5   8  0.0975  6.7035
  -4   5  -8  4.9074  1.8137
   4  -5   8  7.0373  2.2727
   4  -5   8  9.7350  2.0225
   4  -5   8  4.7422  5.5945
  -5   5  -8  2.5804  3.1115
   5  -5   8  4.3349  2.7201
   5  -5   8  2.9178  1.7483
   5  -5   8   6.115  12.330
   6   4  -8 -0.9145  1.1316
  -6  -4   8  1.2555  2.4298
  -6  -4   8  14.460  15.461
   5   4  -8  31.281   2.695
   5   4  -8  30.537   2.839
   5   4  -8  32.590   3.266
  -5  -4   8  35.219   2.640
  -5  -4   8  12.419   9.258
   4   4  -8  21.996   1.599
   4   4  -8  24.110   2.237
  -4  -4   8  21.483   2.728
  -4  -4   8  5.3276  6.8639
   3   4  -8  0.1941  0.9269
   3   4  -8  0.6844  0.9652
  -3  -4   8  0.0168  1.5544
  -3  -4   8  0.7098  1.0376
  -3  -4   8  8.3695  7.7120
   2   4  -8  143.94    5.91
   2   4  -8  149.63    8.38
  -2  -4   8  157.75    9.25
  -2  -4   8  137.15    5.32
   2   4  -8  145.05   15.07
  -2  -4   8  144.07   12.76
  -2  -4   8  164.41   17.24
   1   4  -8  419.22   22.42
   1   4  -8  440.51   12.97
  -1  -4   8  388.87   23.75
  -1  -4   8  435.41   24.16
  -1  -4   8  440.59   10.38
  -1  -4   8  435.11   24.22
  -1  -4   8  416.18    9.01
   1   4  -8  451.90   26.90
  -1  -4   8  426.01   21.13
   0   4  -8  235.72   12.29
   0   4  -8  244.85   14.00
   0  -4   8  237.58   15.46
   0  -4   8  241.55    6.49
   0  -4   8  236.64   16.03
   0  -4   8  236.73   14.98
   0  -4   8  228.43    6.20
   0   4  -8  271.70   23.03
   0  -4   8  246.79   13.43
   0  -4   8  264.05   13.67
  -1   4  -8  143.79    7.62
  -1   4  -8  154.63    5.99
   1  -4   8  140.29    9.30
   1  -4   8  150.92    6.07
   1  -4   8  155.18    7.43
  -1   4  -8  136.52   13.43
   1  -4   8  155.63   11.93
   1  -4   8  158.99    9.98
  -2   4  -8  349.30   18.55
  -2   4  -8  351.72    8.78
   2  -4   8  329.04    8.53
   2  -4   8  343.62   11.83
   2  -4   8  342.67   22.05
   2  -4   8  371.04   18.83
  -3   4  -8  12.397   1.638
  -3   4  -8  16.252   2.068
   3  -4   8  17.000   1.946
   3  -4   8  14.513   1.992
   3  -4   8  6.9166  7.0949
  -4   4  -8  25.044   3.132
   4  -4   8  24.448   2.367
   4  -4   8  20.129   2.082
   4  -4   8  8.5055  9.1071
  -5   4  -8  10.200   2.238
   5  -4   8  11.640   1.984
   5  -4   8  11.704   1.884
   5  -4   8  15.369   9.356
  -6   4  -8  117.47    9.81
   6  -4   8  141.65   10.03
   6  -4   8  140.90    9.17
   6  -4   8  153.56   19.31
   6   3  -8  57.220   4.035
  -6  -3   8  49.714   4.782
  -6  -3   8  41.949  12.587
   5   3  -8  135.48    8.80
   5   3  -8  136.91    7.22
   5   3  -8  127.72    8.70
  -5  -3   8  123.23   12.17
  -5  -3   8  116.75   17.56
   4   3  -8  207.93    7.81
   4   3  -8  213.73   14.41
  -4  -3   8  214.90   16.85
  -4  -3   8  216.52   19.68
   3   3  -8  140.00    5.20
   3   3  -8  146.87    4.42
  -3  -3   8  148.97    6.40
  -3  -3   8  150.69    4.54
   3   3  -8  140.11   13.20
  -3  -3   8  138.98   12.54
  -3  -3   8  160.32   13.07
   2   3  -8  5.2393  1.1264
   2   3  -8  9.0167  1.2010
  -2  -3   8  7.3030  1.4628
  -2  -3   8  8.1956  0.9354
   2   3  -8  3.4392  3.3843
  -2  -3   8  10.153   4.015
  -2  -3   8  8.9977  4.8275
   1   3  -8  883.31   49.84
   1   3  -8  897.80   23.80
  -1  -3   8  939.03   29.96
  -1  -3   8  960.04   45.55
  -1  -3   8  913.17   59.44
   1   3  -8  965.14   57.21
  -1  -3   8  884.19   57.68
  -1  -3   8 1013.27   58.88
   0   3  -8  48.487   3.234
   0   3  -8  52.400   2.147
   0  -3   8  53.180   2.821
   0  -3   8  53.274   2.915
   0  -3   8  53.208   3.041
   0  -3   8  50.801   3.343
   0  -3   8  53.007   2.878
   0  -3   8  51.788   2.447
   0   3  -8  41.506   5.696
   0  -3   8  57.083   6.437
   0  -3   8  47.436   6.037
  -1   3  -8  178.30   10.64
  -1   3  -8  178.05   12.81
   1  -3   8  169.49    5.39
   1  -3   8  169.72    9.75
   1  -3   8  180.36    6.02
   1  -3   8  185.71    7.25
  -1   3  -8  177.08   12.68
   1  -3   8  173.81   12.84
   1  -3   8  181.72   11.45
  -2   3  -8  37.168   2.609
  -2   3  -8  37.487   3.008
  -2   3  -8  39.479   2.370
   2  -3   8  41.071   2.457
   2  -3   8  38.182   1.990
   2  -3   8  36.255   2.196
  -2   3  -8  35.152   5.954
   2  -3   8  40.636   6.498
   2  -3   8  38.979   5.976
  -3   3  -8  750.67   33.13
   3  -3   8  732.94   17.68
   3  -3   8  745.85   29.43
   3  -3   8  756.72   20.97
   3  -3   8  864.62   60.37
   3  -3   8  862.03   39.45
  -4   3  -8  2.7703  1.7830
   4  -3   8  1.7554  0.7268
   4  -3   8  0.7207  1.4948
   4  -3   8  4.3688  1.4875
   4  -3   8  1.1898  4.8946
  -5   3  -8  5.0063  1.8382
   5  -3   8  3.8491  1.8826
   5  -3   8  7.1232  1.9506
   5  -3   8  3.7646  6.5223
  -6   3  -8  19.327   3.977
   6  -3   8  17.754   2.268
   6  -3   8  19.997   3.096
   6  -3   8  9.2654  9.7138
   7   2  -8  103.69    7.48
  -7  -2   8  93.264   7.778
   6   2  -8  34.961   3.203
   6   2  -8  33.207   2.853
   6   2  -8  33.647   2.725
  -6  -2   8  38.388   3.297
   5   2  -8  52.239   3.853
   5   2  -8  49.360   2.799
   5   2  -8  51.140   3.314
  -5  -2   8  51.657   3.422
  -5  -2   8  49.378   2.937
  -5  -2   8  27.735  11.165
   4   2  -8  12.367   1.411
   4   2  -8  8.3617  1.4669
   4   2  -8  11.789   1.769
  -4  -2   8  11.797   1.344
  -4  -2   8  11.088   1.819
   4   2  -8  1.2367  4.3779
  -4  -2   8  5.6445  5.9413
   3   2  -8  172.31   14.79
   3   2  -8  156.65    5.95
   3   2  -8  174.67   18.51
   3   2  -8  159.82    5.43
  -3  -2   8  165.28    4.23
  -3  -2   8  156.34    8.64
   3   2  -8  164.84   13.02
  -3  -2   8  146.32   11.13
  -3  -2   8  168.37   14.65
   2   2  -8  121.11    4.95
   2   2  -8  124.99    4.20
   2   2  -8  126.44   10.06
   2   2  -8  128.38   12.03
  -2  -2   8  130.79    9.70
  -2  -2   8  112.89    3.55
  -2  -2   8  130.02    6.75
  -2  -2   8  140.56    6.31
  -2  -2   8  124.20    5.43
   2   2  -8  117.18   11.81
   2   2  -8  103.11    9.65
  -2  -2   8  126.61   10.87
  -2  -2   8  149.98   13.08
   1   2  -8  60.981   4.763
   1   2  -8  59.235   3.770
   1   2  -8  58.129   2.589
   1   2  -8  60.498   5.584
  -1  -2   8  61.116   3.390
  -1  -2   8  57.924   2.746
  -1  -2   8  62.077   3.013
  -1  -2   8  52.966   2.966
  -1  -2   8  59.965   3.523
  -1  -2   8  59.466   2.655
   1   2  -8  52.127   6.526
   1   2  -8  51.011   6.338
  -1  -2   8  53.731   6.717
  -1  -2   8  61.775   6.955
   0   2  -8  6.7189  1.2216
   0   2  -8  7.4579  0.7805
   0   2  -8  8.7803  1.0653
   0   2  -8  7.2239  1.3688
   0   2  -8  6.2737  0.8949
   0  -2   8  4.7545  0.8372
   0  -2   8  7.2991  0.7623
   0  -2   8  6.7133  0.6331
   0  -2   8  6.4802  1.3591
   0   2  -8  3.9294  3.4029
   0   2  -8  7.4166  2.9654
   0  -2   8  2.5178  3.8439
   0  -2   8  4.6008  3.0615
  -1   2  -8  24.610   1.660
  -1   2  -8  25.973   2.283
  -1   2  -8  29.905   1.526
   1  -2   8  27.027   1.773
   1  -2   8  26.219   1.477
   1  -2   8  28.832   1.893
   1  -2   8  26.132   1.549
  -1   2  -8  20.908   4.143
  -1   2  -8  29.156   6.301
   1  -2   8  24.658   4.277
   1  -2   8  27.721   5.999
  -2   2  -8  448.06   31.12
  -2   2  -8  432.95   15.86
  -2   2  -8  407.40   24.16
   2  -2   8  377.25   10.87
   2  -2   8  410.50   10.54
   2  -2   8  389.91   12.05
  -2   2  -8  391.33   31.67
   2  -2   8  406.52   16.99
   2  -2   8  420.82   18.82
   3  -2   8 1954.13   62.29
   3  -2   8 1968.48   68.86
   3  -2   8 1934.12  105.46
  -3   2  -8 2311.55  131.28
   3  -2   8 2365.99  105.85
   3  -2   8 2334.63   88.34
  -4   2  -8  32.680   3.074
  -4   2  -8  33.257   2.744
  -4   2  -8  40.158   3.506
   4  -2   8  33.277   2.324
   4  -2   8  32.966   2.399
   4  -2   8  38.094   2.276
   4  -2   8  36.827   8.819
   4  -2   8  14.060   5.855
  -5   2  -8  28.425   3.551
   5  -2   8  35.134   2.443
   5  -2   8  34.711   2.785
   5  -2   8  35.657   7.441
  -6   2  -8  142.95    9.49
   6  -2   8  133.00    8.58
   6  -2   8  138.33    8.30
   6  -2   8  136.78   14.87
  -7   2  -8  5.4809  3.9407
   7  -2   8  7.8407  3.1012
   7  -2   8  6.1612  2.4494
   7  -2   8  -1.947  17.751
   7   1  -8  55.701   5.346
  -7  -1   8  47.169   3.859
   6   1  -8  132.73    8.48
   6   1  -8  126.01    5.78
   6   1  -8  130.17    7.50
  -6  -1   8  121.22    8.15
  -6  -1   8  114.29    9.80
   5   1  -8  0.9717  1.4278
   5   1  -8  0.6115  1.3830
   5   1  -8  0.5949  0.9818
  -5  -1   8  0.3759  1.0265
  -5  -1   8  3.0438  1.6811
  -5  -1   8   5.251  10.371
   4   1  -8  21.643   2.047
   4   1  -8  24.178   1.629
   4   1  -8  26.088   2.191
   4   1  -8  27.118   1.578
   4   1  -8  22.281   1.994
  -4  -1   8  23.584   1.751
  -4  -1   8  26.070   1.398
   4   1  -8  9.4673  7.3085
  -4  -1   8  7.7995  8.2341
   3   1  -8  551.78   21.43
   3   1  -8  572.00   42.56
   3   1  -8  540.25   47.66
   3   1  -8  541.70   24.38
  -3  -1   8  538.52   28.45
  -3  -1   8  588.43   29.34
  -3  -1   8  581.75   16.91
   3   1  -8  612.02   55.34
   3   1  -8  581.88   29.59
  -3  -1   8  608.54   28.40
  -3  -1   8  587.09   32.06
   2   1  -8  73.102   2.148
   2   1  -8  74.783   5.032
   2   1  -8  86.818   5.919
   2   1  -8  83.484   5.672
  -2  -1   8  84.705   4.400
  -2  -1   8  77.739   2.691
  -2  -1   8  74.652   4.836
  -2  -1   8  84.104   3.882
  -2  -1   8  80.839   3.176
   2   1  -8  69.059   9.240
   2   1  -8  63.419   7.119
  -2  -1   8  67.832   6.526
  -2  -1   8  91.175   9.139
   1   1  -8  452.31   34.10
   1   1  -8  386.31   16.14
   1   1  -8  433.63   19.60
   1   1  -8  409.65   15.88
  -1  -1   8  450.35   36.81
  -1  -1   8  367.85   12.46
  -1  -1   8  398.19   24.97
  -1  -1   8  404.95   17.56
  -1  -1   8  437.53   15.49
   1   1  -8  452.93   19.88
   1   1  -8  442.04   26.93
  -1  -1   8  439.53   25.44
  -1  -1   8  444.03   19.11
   0   1  -8  23.293   1.294
   0   1  -8  21.325   1.675
   0   1  -8  22.011   1.627
   0   1  -8  22.561   2.482
   0  -1   8  24.035   1.380
   0  -1   8  21.540   1.175
   0  -1   8  24.548   1.341
   0  -1   8  21.771   1.260
   0  -1   8  22.049   1.538
   0  -1   8  20.088   0.919
   0   1  -8  15.441   4.474
   0   1  -8  13.569   4.145
   0  -1   8  17.663   5.085
   0  -1   8  17.617   4.754
  -1   1  -8  339.91   32.83
  -1   1  -8  361.53   14.51
  -1   1  -8  320.62   14.14
  -1   1  -8  336.22   20.98
   1  -1   8  354.60   17.37
   1  -1   8  336.19   19.30
   1  -1   8  354.50   11.80
   1  -1   8  335.96   16.98
   1  -1   8  319.50   13.06
   1  -1   8  308.60   12.86
  -1   1  -8  363.28   14.72
  -1   1  -8  337.13   23.10
   1  -1   8  379.86   20.41
   1  -1   8  377.27   14.25
  -2   1  -8  6.8381  0.5908
  -2   1  -8  6.4389  0.9575
  -2   1  -8  9.0391  0.8355
  -2   1  -8  8.1921  1.0356
   2  -1   8  6.8398  1.3182
   2  -1   8  7.0213  0.8527
   2  -1   8  7.1777  0.8453
   2  -1   8  8.0075  0.6083
   2  -1   8  9.7359  1.1605
  -2   1  -8  7.6580  4.9369
  -2   1  -8  1.6412  2.8848
   2  -1   8  11.203   4.388
   2  -1   8  9.2891  5.7545
  -3   1  -8  38.863   1.970
  -3   1  -8  40.401   3.908
  -3   1  -8  38.979   2.153
  -3   1  -8  43.899   3.482
   3  -1   8  40.122   2.457
   3  -1   8  40.262   1.881
   3  -1   8  38.802   2.054
  -3   1  -8  32.992   6.382
   3  -1   8  34.902   8.110
   3  -1   8  31.377   7.087
  -4   1  -8  448.32   18.28
  -4   1  -8  468.36   25.66
  -4   1  -8  485.10   33.21
  -4   1  -8  490.61   21.23
   4  -1   8  466.61   25.50
   4  -1   8  485.55   17.98
  -4   1  -8  502.14   31.88
   4  -1   8  513.40   27.09
   4  -1   8  545.30   30.92
  -5   1  -8  37.440   3.118
  -5   1  -8  36.144   2.474
  -5   1  -8  34.374   3.253
   5  -1   8  39.990   2.600
   5  -1   8  36.992   3.132
   5  -1   8  25.813  10.090
  -6   1  -8  22.119   3.021
   6  -1   8  23.685   3.226
   6  -1   8   2.858  12.252
  -7   1  -8  96.932   7.968
   7  -1   8  116.80    6.71
   7  -1   8  127.09   21.92
   7   0  -8  21.623   2.999
   7   0  -8  27.248   3.284
   7   0  -8  23.712   2.874
  -7   0   8  24.126   3.010
   6   0  -8  21.161   2.954
   6   0  -8  23.173   2.325
   6   0  -8  20.600   2.774
  -6   0   8  19.287   2.974
  -6   0   8  24.894   3.173
   6   0  -8  1.7935  6.3661
   5   0  -8  118.27    4.84
   5   0  -8  117.04    5.37
   5   0  -8  121.44    5.20
  -5   0   8  113.10   10.44
  -5   0   8  118.35    4.99
   5   0  -8  124.92   13.60
   4   0  -8  12.260   1.577
   4   0  -8  14.640   1.458
   4   0  -8  11.954   1.337
   4   0  -8  10.813   1.415
   4   0  -8  13.508   1.378
  -4   0   8  13.623   1.815
  -4   0   8  10.663   1.463
   4   0  -8  14.094   6.938
   4   0  -8  3.9774  4.9527
  -4   0   8  -3.695   7.100
   3   0  -8  1.0232  0.6754
   3   0  -8  1.0444  0.5175
   3   0  -8  1.2099  0.7166
   3   0  -8  1.4451  1.0133
   3   0  -8  1.8070  1.0886
  -3   0   8  0.9891  0.8788
  -3   0   8  0.7236  1.0766
  -3   0   8  1.8535  0.7834
   3   0  -8  1.1886  6.1272
   3   0  -8  1.6226  4.5955
  -3   0   8  0.7719  6.6510
  -3   0   8  3.7661  5.6504
   2   0  -8  97.245   4.439
   2   0  -8  101.77    4.58
   2   0  -8  97.531   4.678
   2   0  -8  97.979   3.182
  -2   0   8  98.636   3.930
  -2   0   8  104.22    4.41
  -2   0   8  95.175   5.583
  -2   0   8  85.485   2.915
   2   0  -8  98.397   7.492
   2   0  -8  95.012   7.980
  -2   0   8  88.106   8.216
  -2   0   8  90.009   8.280
   1   0  -8  389.36   27.48
   1   0  -8  376.34   16.67
   1   0  -8  397.41   14.17
   1   0  -8  378.89   12.83
  -1   0   8  402.94   13.70
  -1   0   8  391.36   17.43
  -1   0   8  405.94   28.13
  -1   0   8  380.32    9.03
  -1   0   8  384.10   16.87
   1   0  -8  403.42   23.93
   1   0  -8  403.80   29.52
  -1   0   8  381.98   15.65
  -1   0   8  413.98   21.18
   0   0  -8  49.136   2.393
   0   0  -8  47.941   3.107
   0   0  -8  53.394   2.682
   0   0  -8  50.874   2.071
   0   0   8  49.467   2.161
   0   0   8  46.976   2.329
   0   0   8  54.033   1.817
   0   0   8  57.468   3.451
   0   0   8  55.598   2.433
   0   0   8  47.092   1.699
   0   0  -8  42.189   4.206
   0   0  -8  46.168   4.735
   0   0   8  39.306   4.302
   0   0   8  41.683   4.959
  -1   0  -8  202.76    8.01
  -1   0  -8  197.70   11.21
  -1   0  -8  205.41   12.71
  -1   0  -8  207.09    8.02
  -1   0  -8  194.18    8.19
   1   0   8  195.97    6.37
   1   0   8  200.67    7.49
   1   0   8  197.03   17.27
   1   0   8  190.81    6.77
   1   0   8  200.98    9.06
  -1   0  -8  205.96   11.43
  -1   0  -8  214.52   15.05
   1   0   8  208.40   11.40
   1   0   8  203.13   11.36
  -2   0  -8  221.44    6.30
  -2   0  -8  247.06   11.86
  -2   0  -8  243.73   13.17
   2   0   8  227.38   18.69
   2   0   8  235.24   11.83
   2   0   8  242.11   12.66
   2   0   8  223.15    7.26
   2   0   8  238.27    9.93
  -2   0  -8  266.09   14.98
  -2   0  -8  229.40   12.49
   2   0   8  232.69   11.95
   2   0   8  248.67   15.23
  -3   0  -8  515.92   35.33
  -3   0  -8  475.70   33.53
  -3   0  -8  520.44   35.02
  -3   0  -8  487.93   19.84
  -3   0  -8  425.45   20.60
   3   0   8  484.83   25.22
   3   0   8  477.43   14.54
   3   0   8  475.58   14.00
  -3   0  -8  478.23   32.51
  -3   0  -8  516.28   21.29
   3   0   8  518.06   32.22
   3   0   8  510.76   24.49
  -4   0  -8  200.00   12.93
  -4   0  -8  207.09   17.09
  -4   0  -8  201.75   11.65
  -4   0  -8  212.55   14.34
   4   0   8  203.04    8.75
   4   0   8  188.41   10.62
   4   0   8  206.96   12.06
  -4   0  -8  226.22   17.36
   4   0   8  198.72   13.74
   4   0   8  196.64   16.80
  -5   0  -8  124.73    5.86
  -5   0  -8  109.07    8.46
  -5   0  -8  111.18    8.28
   5   0   8  124.59    5.60
   5   0   8  116.65    4.88
  -5   0  -8  106.89   14.19
   5   0   8  106.54   12.71
  -6   0  -8  3.1678  1.8390
  -6   0  -8  6.6586  2.1706
  -6   0  -8  6.3461  1.7899
   6   0   8  3.8864  1.4477
   6   0   8  -4.970  11.080
  -7   0  -8  162.84   11.62
   7   0   8  169.39    9.63
   7  -1  -8  31.155   3.555
   7  -1  -8  39.887   3.587
   7  -1  -8  32.855   3.779
  -7   1   8  42.205   4.683
  -7   1   8  41.413   4.076
   7  -1  -8  15.151  12.325
   6  -1  -8  37.068   3.412
   6  -1  -8  45.792   3.362
   6  -1  -8  40.848   3.412
  -6   1   8  38.045   4.265
  -6   1   8  44.481   3.533
   6  -1  -8  21.026   9.026
   5  -1  -8  3.1879  1.6368
   5  -1  -8  2.9431  1.1461
   5  -1  -8  1.5704  1.8029
  -5   1   8  3.5403  1.5554
  -5   1   8  3.9354  1.2979
   5  -1  -8  4.6850  6.1279
   4  -1  -8  329.36   29.11
   4  -1  -8  357.50   21.19
   4  -1  -8  335.15   22.90
   4  -1  -8  355.13   13.64
   4  -1  -8  350.51   10.52
   4  -1  -8  333.10   30.07
  -4   1   8  349.41   18.46
  -4   1   8  367.07   19.28
  -4   1   8  306.28    9.42
   4  -1  -8  384.30   24.15
   4  -1  -8  355.05   25.23
  -4   1   8  340.92   27.28
   3  -1  -8  392.96    9.57
   3  -1  -8  394.26   29.50
   3  -1  -8  386.55   20.02
   3  -1  -8  408.56   12.74
   3  -1  -8  399.29   12.03
  -3   1   8  387.81   12.54
  -3   1   8  406.02   19.40
   3  -1  -8  413.63   40.15
   3  -1  -8  409.66   20.10
  -3   1   8  455.44   19.97
   2  -1  -8  97.773   4.281
   2  -1  -8  97.589   5.245
   2  -1  -8  102.63    3.25
   2  -1  -8  104.35    5.32
   2  -1  -8  101.90    4.03
  -2   1   8  92.738   5.276
  -2   1   8  98.694   5.013
  -2   1   8  99.641   5.303
  -2   1   8  94.803   3.075
   2  -1  -8  111.80    7.56
   2  -1  -8  95.367   7.748
  -2   1   8  73.086   6.972
  -2   1   8  96.405   8.828
   1  -1  -8  416.34   19.83
   1  -1  -8  426.18   17.30
   1  -1  -8  428.86   17.37
   1  -1  -8  439.41   25.42
  -1   1   8  433.85   17.76
  -1   1   8  448.80   25.22
  -1   1   8  419.55   14.82
  -1   1   8  423.12   20.68
  -1   1   8  443.37   13.72
   1  -1  -8  410.65   26.28
   1  -1  -8  454.67   26.62
  -1   1   8  407.51   21.41
  -1   1   8  454.61   19.90
   0  -1  -8  234.73    9.73
   0  -1  -8  239.36    6.90
   0  -1  -8  249.81   10.18
   0  -1  -8  241.95   10.13
   0   1   8  244.24    9.73
   0   1   8  246.89    7.57
   0   1   8  238.54    8.78
   0   1   8  238.71    7.80
   0   1   8  242.68   11.97
   0   1   8  271.55    8.08
   0   1   8  258.18   11.10
   0  -1  -8  256.21   19.17
   0  -1  -8  232.51   15.37
   0   1   8  235.10   12.38
   0   1   8  221.96   15.08
  -1  -1  -8  261.33    7.40
  -1  -1  -8  242.43   11.31
  -1  -1  -8  223.48    8.74
  -1  -1  -8  240.60   14.30
  -1  -1  -8  234.31   10.46
   1   1   8  234.86    6.11
   1   1   8  252.44   15.36
   1   1   8  257.15   12.59
   1   1   8  239.39   10.84
   1   1   8  244.22    8.99
  -1  -1  -8  226.74   13.08
  -1  -1  -8  247.84   15.21
   1   1   8  235.89   13.20
   1   1   8  230.44   11.32
  -2  -1  -8  684.81   19.72
  -2  -1  -8  718.32   69.89
  -2  -1  -8  706.05   55.45
  -2  -1  -8  689.83   30.80
  -2  -1  -8  691.64   34.06
   2   1   8  700.77   21.24
   2   1   8  650.64   20.37
   2   1   8  656.63   52.45
   2   1   8  717.10   34.15
   2   1   8  664.97   16.21
  -2  -1  -8  642.98   36.49
  -2  -1  -8  702.61   32.59
   2   1   8  721.25   41.32
   2   1   8  732.43   28.15
  -3  -1  -8  54.931   2.509
  -3  -1  -8  48.987   2.862
  -3  -1  -8  42.428   2.124
  -3  -1  -8  47.270   3.228
  -3  -1  -8  47.142   3.866
   3   1   8  47.191   3.648
   3   1   8  48.304   2.612
   3   1   8  42.265   2.232
  -3  -1  -8  54.113   7.733
  -3  -1  -8  36.281   6.019
   3   1   8  44.023   7.375
   3   1   8  36.591   5.755
  -4  -1  -8  12.778   1.665
  -4  -1  -8  13.588   1.392
  -4  -1  -8  12.587   1.128
  -4  -1  -8  13.496   1.849
  -4  -1  -8  17.451   2.285
  -4  -1  -8  16.783   1.816
   4   1   8  16.079   1.412
   4   1   8  16.858   1.689
  -4  -1  -8  11.979   7.499
  -4  -1  -8  6.7764  5.0048
   4   1   8  13.132   4.570
   4   1   8  2.8043  9.2163
  -5  -1  -8  244.06    9.16
  -5  -1  -8  235.13   16.97
  -5  -1  -8  236.61   19.88
   5   1   8  248.07   13.09
   5   1   8  230.75    8.89
  -5  -1  -8  240.18   20.73
   5   1   8  251.43   20.89
  -6  -1  -8  5.9278  1.8326
  -6  -1  -8  10.359   2.211
  -6  -1  -8  7.3821  1.8864
   6   1   8  4.6255  1.3536
   6   1   8  9.6121  2.1335
   6   1   8   8.659  10.975
  -7  -1  -8  6.0338  2.6860
  -7  -1  -8  1.3108  2.0868
  -7  -1  -8  4.2452  1.8890
   7   1   8  5.1768  1.7586
   6  -2  -8  1.6362  1.4995
   6  -2  -8  5.8672  2.3579
   6  -2  -8  0.1894  2.0933
  -6   2   8 -0.1696  2.4189
  -6   2   8  4.2661  2.2386
   6  -2  -8  4.0156  8.3754
   5  -2  -8  0.9711  1.2889
   5  -2  -8 -0.5721  1.1265
   5  -2  -8  0.0852  1.5365
  -5   2   8  -2.077   1.134
  -5   2   8  2.1373  1.6635
   5  -2  -8  0.4798  5.9368
   4  -2  -8  173.28    6.20
   4  -2  -8  163.90    5.77
   4  -2  -8  164.33    9.27
  -4   2   8  168.67   10.27
  -4   2   8  184.25   12.43
   4  -2  -8  181.02   15.96
   3  -2  -8  13.715   1.852
   3  -2  -8  17.705   1.483
   3  -2  -8  16.188   1.135
   3  -2  -8  16.125   1.478
  -3   2   8  18.004   1.732
  -3   2   8  17.531   1.549
   3  -2  -8  17.704   6.278
  -3   2   8  14.050   6.489
   2  -2  -8  46.228   1.785
   2  -2  -8  50.050   2.024
   2  -2  -8  52.795   2.068
   2  -2  -8  46.146   3.036
  -2   2   8  45.380   1.812
  -2   2   8  52.410   2.359
  -2   2   8  46.581   2.950
   2  -2  -8  41.175   5.886
   2  -2  -8  45.034   5.160
  -2   2   8  38.257   5.533
   1  -2  -8  59.021   3.442
   1  -2  -8  60.327   2.788
   1  -2  -8  60.891   1.953
   1  -2  -8  58.080   2.288
  -1   2   8  52.790   2.120
  -1   2   8  54.832   3.210
  -1   2   8  60.974   3.675
  -1   2   8  60.457   2.789
  -1   2   8  58.660   2.784
  -1   2   8  63.052   4.981
   1  -2  -8  70.994   6.331
   1  -2  -8  55.836   6.051
  -1   2   8  72.392   6.508
  -1   2   8  46.426   5.163
   0  -2  -8  6.7210  0.9308
   0  -2  -8  8.5297  1.2259
   0  -2  -8  7.7942  0.4513
   0   2   8  8.0020  0.7795
   0   2   8  9.8305  0.6241
   0   2   8  7.9865  0.8115
   0   2   8  7.9979  0.5597
   0   2   8  8.8372  1.1009
   0  -2  -8  5.5731  2.2815
   0  -2  -8  4.9929  2.8644
   0   2   8  7.3410  3.0930
   0   2   8  5.2187  3.2993
  -1  -2  -8  80.253   3.325
  -1  -2  -8  82.400   3.013
  -1  -2  -8  67.964   2.506
  -1  -2  -8  83.366   5.751
  -1  -2  -8  85.352   4.886
   1   2   8  74.575   2.650
   1   2   8  84.071   2.825
   1   2   8  90.612   3.575
   1   2   8  79.325   4.443
   1   2   8  75.703   2.860
   1   2   8  88.115   6.448
  -1  -2  -8  87.893   7.470
  -1  -2  -8  88.336   6.927
   1   2   8  75.719   5.414
   1   2   8  78.593   7.706
  -2  -2  -8  558.41   33.98
  -2  -2  -8  543.71   48.64
  -2  -2  -8  513.69   18.17
  -2  -2  -8  535.04   25.65
  -2  -2  -8  549.02   30.28
   2   2   8  555.33   26.23
   2   2   8  532.53   14.05
   2   2   8  511.65   17.78
   2   2   8  557.49   36.04
  -2  -2  -8  583.90   33.61
  -2  -2  -8  576.90   40.07
   2   2   8  587.34   44.07
   2   2   8  570.83   35.45
  -3  -2  -8  62.083   3.386
  -3  -2  -8  60.981   2.772
  -3  -2  -8  60.052   4.296
  -3  -2  -8  66.133   3.016
  -3  -2  -8  58.391   2.726
   3   2   8  52.556   2.463
   3   2   8  56.388   4.476
   3   2   8  59.357   2.349
   3   2   8  65.680   3.309
  -3  -2  -8  57.278   6.362
  -3  -2  -8  46.668   7.327
   3   2   8  53.138   8.495
   3   2   8  55.710   7.417
  -4  -2  -8  446.26   23.13
  -4  -2  -8  446.92   15.36
  -4  -2  -8  433.11   17.88
  -4  -2  -8  440.30   26.10
  -4  -2  -8  440.95   27.44
  -4  -2  -8  431.13   23.42
   4   2   8  460.96   14.07
   4   2   8  441.45   17.67
  -4  -2  -8  468.32   35.27
  -4  -2  -8  478.57   32.82
   4   2   8  470.99   26.22
  -5  -2  -8  100.07    7.36
  -5  -2  -8  102.31    4.99
  -5  -2  -8  102.05    5.03
   5   2   8  101.44    5.89
   5   2   8  109.62    5.57
  -5  -2  -8  97.986  12.265
   5   2   8  80.690  10.723
  -6  -2  -8  30.236   3.218
  -6  -2  -8  27.792   2.857
  -6  -2  -8  30.606   3.205
   6   2   8  30.150   2.814
   6   2   8  32.112   2.980
  -6  -2  -8  18.845   8.560
  -7  -2  -8  60.451   5.539
  -7  -2  -8  62.262   4.570
  -7  -2  -8  61.932   4.764
   7   2   8  59.841   5.631
   6  -3  -8  243.70   15.21
   6  -3  -8  264.62   15.92
  -6   3   8  274.64   17.69
  -6   3   8  240.96   12.74
   6  -3  -8  210.66   22.88
   5  -3  -8  40.087   3.279
   5  -3  -8  36.247   3.263
  -5   3   8  38.979   3.146
  -5   3   8  42.051   3.708
   5  -3  -8  22.109   8.104
   4  -3  -8  24.686   2.199
   4  -3  -8  20.455   2.142
  -4   3   8  21.838   2.339
  -4   3   8  22.683   1.552
   3  -3  -8  491.82   12.74
   3  -3  -8  482.01   28.77
   3  -3  -8  520.48   14.09
  -3   3   8  493.00   25.52
  -3   3   8  517.78   27.44
   3  -3  -8  527.91   38.16
   3  -3  -8  359.85   37.31
  -3   3   8  508.07   32.75
   2  -3  -8  26.840   1.422
   2  -3  -8  23.474   1.232
   2  -3  -8  28.909   2.171
   2  -3  -8  25.180   1.257
  -2   3   8  25.932   2.070
  -2   3   8  24.112   1.793
  -2   3   8  28.043   1.750
   2  -3  -8  27.402   3.764
   2  -3  -8  19.249   3.943
  -2   3   8  17.610   4.190
   1  -3  -8  126.48    5.83
   1  -3  -8  122.67    4.00
   1  -3  -8  122.02    5.71
  -1   3   8  116.76    6.61
  -1   3   8  120.87    6.81
  -1   3   8  122.26    8.04
  -1   3   8  120.45    6.96
   1  -3  -8  141.11    9.50
   1  -3  -8  114.38   10.84
  -1   3   8  107.44    7.84
   0  -3  -8 2124.62   61.66
   0  -3  -8 2092.14   83.01
   0   3   8 2173.36   82.54
   0   3   8 2383.84  161.50
   0  -3  -8 2263.51  138.47
   0  -3  -8 2358.57  211.27
   0   3   8 2275.13  192.26
   0   3   8 2393.12  129.83
  -1  -3  -8  418.26   28.74
  -1  -3  -8  456.17   14.91
  -1  -3  -8  484.68   28.33
   1   3   8  422.60   10.14
   1   3   8  454.85   14.04
   1   3   8  481.37   19.40
   1   3   8  480.20   27.72
   1   3   8  463.01   87.14
   1   3   8  489.09   30.97
  -1  -3  -8  482.06   33.84
   1   3   8  419.41   24.42
   1   3   8  499.79   27.21
  -2  -3  -8  16.167   0.602
  -2  -3  -8  17.427   1.669
  -2  -3  -8  18.478   1.228
   2   3   8  15.920   1.148
   2   3   8  16.552   1.643
   2   3   8  14.576   1.558
   2   3   8  17.650   1.169
  -2  -3  -8  15.239   4.301
  -2  -3  -8  13.825   3.847
   2   3   8  8.1415  4.3797
   2   3   8  12.421   5.452
  -3  -3  -8  54.435   3.029
  -3  -3  -8  48.918   2.202
  -3  -3  -8  53.275   2.324
  -3  -3  -8  51.809   2.271
  -3  -3  -8  52.253   2.063
   3   3   8  51.134   2.644
   3   3   8  53.085   2.124
  -3  -3  -8  46.683   7.174
   3   3   8  32.211   6.206
  -4  -3  -8  29.029   2.221
  -4  -3  -8  25.575   1.749
  -4  -3  -8  25.238   2.075
  -4  -3  -8  33.053   2.635
  -4  -3  -8  27.843   1.509
  -4  -3  -8  28.202   2.110
   4   3   8  25.521   1.868
   4   3   8  25.135   1.827
  -4  -3  -8  18.857   7.997
  -4  -3  -8  19.464   5.637
   4   3   8  22.769   6.474
  -5  -3  -8  1.3240  1.0974
  -5  -3  -8  2.3029  1.4382
  -5  -3  -8  0.6819  1.1020
  -5  -3  -8  0.8933  0.7841
   5   3   8  1.0851  1.0616
   5   3   8  1.5872  1.2424
  -5  -3  -8  6.8462  7.8492
  -6  -3  -8  2.6105  1.3036
  -6  -3  -8  7.1285  2.1679
  -6  -3  -8  2.7210  1.8914
   6   3   8  4.4993  1.6794
   6   3   8  5.1363  1.3087
  -6  -3  -8  22.471  12.660
  -7  -3  -8  0.3368  1.6701
  -7  -3  -8  0.5909  2.1465
  -7  -3  -8  1.4700  1.6823
   7   3   8  -1.771   2.174
   6  -4  -8  82.649   5.451
   6  -4  -8  75.086   6.182
  -6   4   8  74.515   7.465
  -6   4   8  76.473   6.259
   6  -4  -8  70.565  16.045
   5  -4  -8  203.12   10.36
   5  -4  -8  190.73    8.59
  -5   4   8  221.37   10.40
   5  -4  -8  217.30   19.13
   4  -4  -8  2.5284  1.2490
   4  -4  -8  4.3241  1.7390
  -4   4   8  2.3400  1.0152
  -4   4   8  2.7745  1.0495
   4  -4  -8  0.3820  4.2018
   3  -4  -8  67.128   3.295
   3  -4  -8  65.594   4.925
   3  -4  -8  62.963   3.282
  -3   4   8  64.014   4.059
  -3   4   8  76.502   3.461
   3  -4  -8  65.495   6.852
   3  -4  -8  73.123   8.858
   2  -4  -8  47.215   3.908
   2  -4  -8  54.360   2.681
   2  -4  -8  55.525   2.726
  -2   4   8  51.209   2.444
  -2   4   8  59.438   3.584
  -2   4   8  54.721   2.606
   2  -4  -8  40.381   6.012
   2  -4  -8  56.519   6.937
  -2   4   8  33.527   6.500
   1  -4  -8  22.138   1.605
   1  -4  -8  22.782   1.678
  -1   4   8  23.901   1.457
  -1   4   8  22.441   1.340
  -1   4   8  21.185   1.175
  -1   4   8  21.989   1.818
  -1   4   8  21.911   1.216
   1  -4  -8  24.447   3.915
   1  -4  -8  21.043   4.308
  -1   4   8  15.900   3.846
   0  -4  -8  24.878   1.274
   0  -4  -8  21.121   1.179
   0   4   8  21.885   1.177
   0   4   8  22.747   1.260
   0   4   8  24.890   1.647
   0  -4  -8  15.056   3.590
   0  -4  -8  20.462   4.179
   0   4   8  14.107   4.024
  -1  -4  -8  350.22   15.05
  -1  -4  -8  344.15   11.23
  -1  -4  -8  334.00   16.81
   1   4   8  359.83   10.69
   1   4   8  361.96   22.93
  -1  -4  -8  341.08   22.23
  -1  -4  -8  346.55   22.38
   1   4   8  335.45   15.13
  -2  -4  -8  4.6852  0.9520
  -2  -4  -8  3.6578  0.6707
  -2  -4  -8  4.2941  0.6757
   2   4   8  3.9728  0.8290
   2   4   8  4.9139  1.3488
  -2  -4  -8  7.1996  3.7892
  -2  -4  -8  5.8452  3.5042
   2   4   8  5.8256  4.3280
  -3  -4  -8  473.70   32.50
  -3  -4  -8  457.63   23.15
  -3  -4  -8  451.23   22.38
  -3  -4  -8  489.25   18.50
  -3  -4  -8  490.89   28.80
   3   4   8  456.79   16.86
  -3  -4  -8  521.67   23.98
  -3  -4  -8  476.16   26.36
   3   4   8  473.83   30.31
  -4  -4  -8  460.44   25.42
  -4  -4  -8  461.25   16.63
  -4  -4  -8  486.66   32.19
  -4  -4  -8  481.82   28.80
  -4  -4  -8  459.56   18.64
   4   4   8  445.99   16.05
   4   4   8  489.54   16.35
  -4  -4  -8  499.74   30.44
  -4  -4  -8  551.90   31.63
   4   4   8  509.34   31.40
  -5  -4  -8  96.005   5.525
  -5  -4  -8  83.236   5.572
  -5  -4  -8  95.213   8.612
   5   4   8  106.50    4.85
   5   4   8  91.022   3.633
  -5  -4  -8  94.875  12.410
  -6  -4  -8  3.1835  2.4800
  -6  -4  -8  1.1734  1.4606
  -6  -4  -8  1.3330  1.4233
   6   4   8  0.6690  1.6070
   6   4   8  2.0641  1.3334
  -6  -4  -8 -0.3092  9.1215
  -7  -4  -8  58.337   5.093
  -7  -4  -8  57.731   5.448
  -7  -4  -8  59.974   4.925
   7   4   8  57.899   6.775
   7   4   8  62.783   4.995
  -7  -4  -8  49.988  16.969
   6  -5  -8  -4.121   2.831
   6  -5  -8  -1.617   2.046
  -6   5   8  3.5246  2.1288
  -6   5   8  -5.284   2.782
   6  -5  -8  -0.728  12.926
   5  -5  -8  -2.307   2.250
   5  -5  -8  1.4090  1.7680
  -5   5   8  0.5662  1.7046
   5  -5  -8 -0.3514  8.0648
   4  -5  -8  45.291   2.867
   4  -5  -8  45.185   2.975
  -4   5   8  51.896   3.741
   4  -5  -8  45.185   8.704
   3  -5  -8  43.987   2.412
   3  -5  -8  37.299   2.014
  -3   5   8  38.919   2.811
  -3   5   8  42.405   3.432
   3  -5  -8  42.257   7.891
   3  -5  -8  42.800   6.014
   2  -5  -8  911.43   22.18
   2  -5  -8  905.48   28.74
  -2   5   8  928.88   55.68
  -2   5   8  935.89   26.08
   2  -5  -8  992.56   64.47
   2  -5  -8 1000.73   53.61
  -2   5   8 1049.22   62.40
   1  -5  -8  555.85   15.86
   1  -5  -8  525.90   10.37
  -1   5   8  537.32   33.71
  -1   5   8  530.79   26.06
  -1   5   8  530.49   13.88
  -1   5   8  534.91   30.18
   1  -5  -8  582.45   38.05
   1  -5  -8  579.10   36.37
  -1   5   8  580.36   58.67
   0  -5  -8  7.4314  1.2037
   0  -5  -8  9.5943  1.3026
   0   5   8  9.2870  1.3302
   0   5   8  7.7734  0.7436
   0   5   8  8.6994  0.7188
   0   5   8  6.7128  0.9563
   0  -5  -8  5.3781  2.8386
   0  -5  -8  6.3272  2.5682
   0   5   8  6.1512  3.1815
  -1  -5  -8  124.99    6.02
  -1  -5  -8  124.97    3.05
  -1  -5  -8  122.88    4.38
   1   5   8  120.81    8.29
   1   5   8  123.17    4.39
   1   5   8  132.10    9.72
   1   5   8  119.19    6.30
  -1  -5  -8  129.82    7.29
  -1  -5  -8  127.57    7.31
   1   5   8  108.71    8.26
  -2  -5  -8  194.96    8.20
  -2  -5  -8  205.23    9.21
  -2  -5  -8  207.73    7.93
   2   5   8  213.79   11.57
   2   5   8  190.96   12.47
   2   5   8  197.26    5.90
  -2  -5  -8  194.14   12.59
  -2  -5  -8  191.71   13.45
   2   5   8  183.18   13.02
  -3  -5  -8  33.460   2.547
  -3  -5  -8  36.353   2.014
  -3  -5  -8  35.808   2.836
  -3  -5  -8  30.933   1.719
  -3  -5  -8  35.116   2.703
   3   5   8  32.160   2.230
   3   5   8  33.102   2.127
  -3  -5  -8  30.637   5.990
  -3  -5  -8  32.471   6.599
   3   5   8  26.742   7.457
  -4  -5  -8  235.94    9.47
  -4  -5  -8  250.92   10.49
   4   5   8  231.03   12.93
   4   5   8  258.30   10.75
  -5  -5  -8  174.53    8.14
  -5  -5  -8  183.54    7.13
   5   5   8  163.63    7.37
   5   5   8  163.64    6.94
   5   5   8  178.64    8.70
  -5  -5  -8  162.82   12.98
  -6  -5  -8  4.8099  2.2530
  -6  -5  -8  0.3701  2.4950
  -6  -5  -8  6.0684  2.3049
   6   5   8  7.0735  2.2584
   6   5   8  4.6060  1.6910
  -6  -5  -8  -2.949   7.488
  -7  -5  -8  9.4070  3.1423
  -7  -5  -8  8.2874  2.4273
  -7  -5  -8  5.1660  1.9401
   7   5   8  11.513   2.319
   7   5   8  6.5375  1.9637
  -7  -5  -8   0.921  15.487
   5  -6  -8  25.960   3.472
   5  -6  -8  21.709   3.009
  -5   6   8  27.714   3.786
   5  -6  -8  24.600  11.400
   4  -6  -8  4.7341  2.1222
   4  -6  -8  3.5375  2.1398
  -4   6   8  0.0714  2.1053
   4  -6  -8  4.0925  6.9565
   3  -6  -8  8.9124  1.7058
   3  -6  -8  7.1121  1.7683
  -3   6   8  11.663   2.096
  -3   6   8  7.6415  1.4295
   3  -6  -8  6.9321  5.3281
   3  -6  -8  9.8903  5.8129
   2  -6  -8  92.905   5.921
   2  -6  -8  96.453   4.459
  -2   6   8  101.65    5.50
  -2   6   8  100.31    3.36
   2  -6  -8  107.42   11.17
   1  -6  -8  4.9869  1.0310
   1  -6  -8  5.1351  1.0704
  -1   6   8  5.5555  1.1393
  -1   6   8  5.0397  1.2902
  -1   6   8  3.6054  0.9260
   1  -6  -8  7.5675  2.9832
   1  -6  -8  1.7795  2.7636
  -1   6   8  1.8273  3.5808
   0  -6  -8  117.04    7.54
   0  -6  -8  129.00    4.52
   0   6   8  128.89    5.54
   0   6   8  127.61    8.89
   0   6   8  128.76    6.49
   0   6   8  122.23    7.94
   0  -6  -8  125.65    9.40
   0  -6  -8  132.21    8.82
   0   6   8  98.437  12.136
  -1  -6  -8  19.107   1.492
  -1  -6  -8  17.957   1.427
  -1  -6  -8  18.409   1.353
   1   6   8  18.395   0.984
   1   6   8  14.051   2.072
   1   6   8  17.270   1.484
  -1  -6  -8  13.930   2.753
  -1  -6  -8  17.214   3.449
   1   6   8  8.0978  3.7418
  -2  -6  -8  110.13    4.65
  -2  -6  -8  111.13    6.34
  -2  -6  -8  110.53    4.80
   2   6   8  103.52    7.64
   2   6   8  100.12    5.61
   2   6   8  102.68    4.88
  -2  -6  -8  117.87    8.16
  -2  -6  -8  110.67    9.17
   2   6   8  80.066   9.510
  -3  -6  -8  203.45   11.58
  -3  -6  -8  225.74    8.61
  -3  -6  -8  231.93    9.97
  -3  -6  -8  231.45    7.57
  -3  -6  -8  233.72   10.42
   3   6   8  219.34   10.31
   3   6   8  244.90    8.98
  -3  -6  -8  252.04   15.94
  -3  -6  -8  247.89   15.68
  -4  -6  -8  47.119   2.492
  -4  -6  -8  44.076   2.996
   4   6   8  48.681   3.093
  -4  -6  -8  29.336   6.528
  -5  -6  -8  61.108   4.862
  -5  -6  -8  56.962   4.079
   5   6   8  74.394   4.474
  -5  -6  -8  47.325  10.240
  -6  -6  -8  -2.443   1.777
  -6  -6  -8  0.6011  1.7801
   6   6   8  -2.391   1.465
   6   6   8  0.0000  1.4017
  -6  -6  -8   6.720  10.049
   4  -7  -8  125.69    7.73
  -4   7   8  121.36    8.87
   4  -7  -8  122.66   14.20
   3  -7  -8  214.13    7.43
   3  -7  -8  211.36    7.23
  -3   7   8  215.29   12.85
   3  -7  -8  226.96   14.11
   2  -7  -8  237.11   11.64
   2  -7  -8  225.11    9.39
  -2   7   8  239.91   16.72
  -2   7   8  250.56   10.22
   2  -7  -8  255.34   34.43
   2  -7  -8  265.18   14.54
   1  -7  -8  32.831   2.229
   1  -7  -8  37.896   2.488
  -1   7   8  34.033   2.685
  -1   7   8  36.301   2.665
  -1   7   8  38.265   2.610
   1  -7  -8  42.332   5.162
   0  -7  -8  93.099   3.123
   0  -7  -8  101.17    3.63
   0   7   8  95.266   5.778
   0   7   8  91.443   3.599
   0  -7  -8  88.872   6.831
   0  -7  -8  93.183   7.550
  -1  -7  -8  195.86    9.37
  -1  -7  -8  190.99    8.89
  -1  -7  -8  193.54    7.49
   1   7   8  186.11   12.55
   1   7   8  178.62    6.04
  -1  -7  -8  206.90   12.12
  -1  -7  -8  181.97   10.75
  -2  -7  -8  445.09   22.45
  -2  -7  -8  462.82   16.04
   2   7   8  454.14   18.68
  -2  -7  -8  463.93   42.97
  -2  -7  -8  459.52   26.08
  -3  -7  -8  146.82    9.14
  -3  -7  -8  161.02    6.14
   3   7   8  146.60    6.95
  -3  -7  -8  155.15   14.50
  -3  -7  -8  170.89   12.02
  -4  -7  -8  216.05   14.81
  -4  -7  -8  221.30    8.73
   4   7   8  220.69   10.68
  -4  -7  -8  218.79   17.60
  -5  -7  -8 -0.2892  1.3626
  -5  -7  -8 -0.4419  1.5372
   5   7   8  1.3681  2.5859
  -5  -7  -8  -1.130   5.054
  -6  -7  -8  6.7329  2.0773
  -6  -7  -8  4.7158  2.7542
   6   7   8  8.5421  2.9722
  -6  -7  -8  -3.541  10.584
   4  -8  -8  23.289   3.721
  -4   8   8  17.773   3.223
   4  -8  -8  18.418   8.063
   3  -8  -8  -2.446   2.204
  -3   8   8  0.9219  2.1006
   3  -8  -8  8.0725  4.5033
   3  -8  -8  5.2146  4.2209
   2  -8  -8  46.924   3.871
  -2   8   8  46.031   3.583
  -2   8   8  47.394   3.496
   2  -8  -8  52.905   4.980
   2  -8  -8  47.647   5.177
   1  -8  -8  94.191   5.778
  -1   8   8  101.55    5.29
  -1   8   8  98.692   4.858
  -1   8   8  90.733   7.396
   0  -8  -8  213.27   10.94
   0   8   8  201.66   10.19
   0   8   8  186.21    7.40
   0   8   8  191.39    8.64
  -1  -8  -8  65.900   3.104
  -1  -8  -8  67.757   4.273
   1   8   8  70.851   4.977
  -1  -8  -8  71.448   5.719
  -1  -8  -8  65.573   4.727
  -2  -8  -8  17.254   2.239
  -2  -8  -8  13.169   1.581
   2   8   8  12.899   2.057
  -2  -8  -8  11.885   3.805
  -2  -8  -8  16.010   4.445
  -3  -8  -8  279.43   14.09
   3   8   8  301.04   14.78
  -3  -8  -8  312.49   22.73
  -3  -8  -8  283.29   23.06
  -4  -8  -8  47.305   4.238
  -4  -8  -8  47.117   3.568
   4   8   8  47.968   4.199
  -4  -8  -8  52.981   7.412
  -5  -8  -8  49.151   4.827
  -5  -8  -8  47.426   4.247
   5   8   8  57.566   4.701
  -5  -8  -8  37.301  10.112
   3  -9  -8  6.1186  2.1941
  -3   9   8  6.9924  2.4337
   2  -9  -8  3.8995  2.3774
  -2   9   8  0.2885  2.1009
   1  -9  -8  27.508   2.947
  -1   9   8  21.145   2.596
  -1   9   8  23.322   2.467
   0  -9  -8  40.531   3.228
   0   9   8  32.670   3.016
   0   9   8  33.889   3.312
  -1  -9  -8  76.970   3.924
  -1  -9  -8  76.420   5.684
   1   9   8  79.111   4.809
   1   9   8  71.118   4.955
  -2  -9  -8  110.05    7.94
   2   9   8  109.03    7.42
  -2  -9  -8  109.52    6.94
  -2  -9  -8  110.98    7.66
  -3  -9  -8  1.2736  2.0308
   3   9   8  3.1784  2.3184
  -3  -9  -8  -1.735   4.647
  -4  -9  -8  106.60    6.80
   4   9   8  109.02    7.26
  -4  -9  -8  117.12   11.67
  -5  -9  -8  36.842   4.900
  -5  -9  -8  22.840   3.512
   5   9   8  26.346   3.648
  -5  -9  -8  31.285  10.506
   1 -10  -8  32.806   3.923
  -1  10   8  27.635   2.951
   0 -10  -8 -0.1243  2.0813
   0  10   8  0.1736  1.5998
   0  10   8 -0.4393  1.2318
  -1 -10  -8  88.241   5.382
   1  10   8  92.860   8.064
   1  10   8  87.146   7.181
  -2 -10  -8  7.5864  2.7144
   2  10   8  11.538   2.031
  -3 -10  -8  13.633   3.031
   3  10   8  16.392   3.175
  -3 -10  -8  18.901   3.494
  -3 -10  -8  15.400   3.360
   3   8  -9  34.111   3.280
  -3  -8   9  36.804   4.434
  -3  -8   9   4.678  14.603
   2   8  -9  1.2996  1.8453
   2   8  -9  0.8944  1.5532
  -2  -8   9  4.2583  3.2712
  -2  -8   9   4.969  10.935
   1   8  -9  60.462   4.501
  -1  -8   9  59.725   5.203
  -1  -8   9  60.539  11.978
   0   8  -9  33.876   3.637
   0  -8   9  33.096   4.213
   0  -8   9  11.563  11.379
  -1   8  -9  145.14    9.27
   1  -8   9  146.55   10.89
   1  -8   9  146.73   10.34
   1  -8   9  159.54   20.19
  -2   8  -9  22.957   2.921
   2  -8   9  25.020   4.056
   2  -8   9  28.356   3.841
   2  -8   9  15.308  10.468
   4   7  -9  28.402   3.211
  -4  -7   9  18.197  11.029
   3   7  -9  64.721   3.816
   3   7  -9  69.433   5.433
  -3  -7   9  65.591   5.536
  -3  -7   9  66.629  17.175
   2   7  -9  17.914   2.346
   2   7  -9  21.655   2.953
  -2  -7   9  15.979   3.471
  -2  -7   9  22.474   8.417
   1   7  -9  -1.883   2.094
  -1  -7   9  2.9425  2.4527
  -1  -7   9 -0.2630  9.0179
   0   7  -9  34.200   3.314
   0  -7   9  32.076   3.445
   0  -7   9  27.633   3.317
   0  -7   9  41.888   8.388
  -1   7  -9  92.075   5.096
   1  -7   9  102.06    6.25
   1  -7   9  97.372   5.552
   1  -7   9  84.633   9.227
  -2   7  -9  2.6606  2.2058
   2  -7   9  3.3882  1.7499
   2  -7   9  4.5074  1.7870
   2  -7   9  -5.379   5.303
  -3   7  -9  1.9004  1.7084
   3  -7   9  1.0805  1.9825
   3  -7   9  0.3230  1.8383
   3  -7   9 -0.4450  8.8601
   5   6  -9  21.579   2.681
  -5  -6   9  26.447   2.894
  -5  -6   9  17.658   3.286
  -5  -6   9   5.750  17.858
   4   6  -9  29.040   2.644
  -4  -6   9  17.738   2.838
  -4  -6   9  25.832   2.736
  -4  -6   9  -2.161  15.435
   3   6  -9  2.6796  1.9537
   3   6  -9  -1.459   1.472
  -3  -6   9  1.9442  1.2542
  -3  -6   9  -1.061   2.211
  -3  -6   9  0.3818  1.1519
  -3  -6   9  -14.57   10.38
   2   6  -9  119.70    6.75
   2   6  -9  115.12    6.59
  -2  -6   9  109.75    6.59
  -2  -6   9  104.74    7.07
  -2  -6   9  124.87    5.94
  -2  -6   9  124.98   14.34
   1   6  -9  182.57   13.43
   1   6  -9  168.58    8.69
  -1  -6   9  174.85    8.00
  -1  -6   9  177.01   15.91
   0   6  -9  51.015   3.025
   0  -6   9  49.190   3.279
   0  -6   9  49.852   3.397
   0  -6   9  70.659   9.266
  -1   6  -9  120.11    4.77
   1  -6   9  113.39    5.52
   1  -6   9  114.13    5.46
   1  -6   9  124.41   13.26
  -2   6  -9  9.6279  1.6710
  -2   6  -9  9.8656  1.6341
   2  -6   9  7.0717  2.1232
   2  -6   9  10.965   1.882
   2  -6   9  6.7620  8.2579
  -3   6  -9  1.0421  1.3804
  -3   6  -9  1.3111  1.3462
   3  -6   9  2.3035  1.7933
   3  -6   9 -0.8159  1.4362
   3  -6   9  5.8115  5.9073
  -4   6  -9  5.1089  3.1391
  -4   6  -9  3.1923  1.6161
   4  -6   9  4.1395  2.6082
   4  -6   9  0.1667  1.6901
   4  -6   9  -2.253  10.013
   5   5  -9  92.917   5.850
  -5  -5   9  95.722   4.764
  -5  -5   9  93.918   5.150
  -5  -5   9  69.637  17.397
   4   5  -9  22.401   2.170
   4   5  -9  25.950   2.480
  -4  -5   9  24.544   2.655
  -4  -5   9  23.998   2.233
  -4  -5   9  11.663   9.409
   3   5  -9  3.1147  1.0441
   3   5  -9 -0.2994  1.7785
  -3  -5   9  0.5671  1.1649
  -3  -5   9  0.2482  1.8558
  -3  -5   9  -7.205   8.664
   2   5  -9  252.05   12.35
   2   5  -9  256.69    9.46
  -2  -5   9  257.40   13.69
  -2  -5   9  253.22   18.26
  -2  -5   9  289.21   12.19
  -2  -5   9  259.41   20.14
   1   5  -9  22.244   2.133
   1   5  -9  18.442   1.544
  -1  -5   9  20.808   1.824
  -1  -5   9  21.502   2.462
  -1  -5   9  23.369   1.809
  -1  -5   9  21.509   1.938
  -1  -5   9  17.587   7.391
   0   5  -9  269.32   11.80
   0   5  -9  250.50   14.30
   0  -5   9  268.14   10.64
   0  -5   9  283.61    9.49
   0  -5   9  320.18   19.84
   0  -5   9  315.41   24.01
  -1   5  -9  67.704   3.210
  -1   5  -9  66.533   3.428
   1  -5   9  66.095   4.059
   1  -5   9  67.905   3.494
   1  -5   9  61.209   9.740
  -2   5  -9  141.66    6.31
  -2   5  -9  127.73    6.48
   2  -5   9  139.63    5.45
   2  -5   9  136.61    6.56
   2  -5   9  149.03   12.97
  -3   5  -9  -1.783   1.700
  -3   5  -9  -1.050   1.932
   3  -5   9 -0.6883  1.9268
   3  -5   9  0.6442  1.2646
   3  -5   9  -5.514   4.899
  -4   5  -9  16.421   2.919
  -4   5  -9  24.810   2.710
   4  -5   9  20.197   2.910
   4  -5   9  16.885   2.614
   4  -5   9  15.868  10.271
  -5   5  -9  73.949   6.623
   5  -5   9  89.727   6.046
   5  -5   9  85.091   6.768
   5  -5   9  60.449  14.739
   6   4  -9  0.8213  1.6796
  -6  -4   9  2.1933  2.5127
  -6  -4   9  -11.70   17.44
   5   4  -9  21.854   2.558
   5   4  -9  18.798   2.029
   5   4  -9  22.588   2.579
  -5  -4   9  18.047   2.648
  -5  -4   9  12.483   9.546
   4   4  -9  62.793   3.250
   4   4  -9  55.926   3.453
  -4  -4   9  67.935   4.073
  -4  -4   9  32.134   8.408
   3   4  -9  53.300   2.469
   3   4  -9  48.825   2.554
  -3  -4   9  55.482   3.858
  -3  -4   9  48.602   3.232
  -3  -4   9  36.921  11.121
   2   4  -9  1.0032  1.0386
   2   4  -9  2.3894  0.9849
  -2  -4   9  0.6483  0.7935
  -2  -4   9  0.4161  1.5596
  -2  -4   9  6.6188  7.8111
  -2  -4   9  1.1860  7.2574
   1   4  -9  98.590   6.140
   1   4  -9  89.503   3.975
  -1  -4   9  92.651   5.763
  -1  -4   9  94.806   5.413
  -1  -4   9  94.151   5.880
  -1  -4   9  88.559   3.156
  -1  -4   9  91.659   6.084
   1   4  -9  80.056  11.055
  -1  -4   9  93.603   9.721
  -1  -4   9  92.922   8.097
   0   4  -9  24.824   1.850
   0   4  -9  28.153   2.092
   0  -4   9  20.119   1.960
   0  -4   9  26.511   1.675
   0  -4   9  23.327   1.978
   0  -4   9  27.303   1.692
   0  -4   9  24.560   1.990
   0   4  -9  14.167   6.077
   0  -4   9  21.361   6.481
  -1   4  -9  108.95    5.32
  -1   4  -9  111.79    7.67
   1  -4   9  110.04    4.05
   1  -4   9  99.118   5.162
   1  -4   9  118.79   11.65
   1  -4   9  112.37   10.80
  -2   4  -9  852.48   45.22
  -2   4  -9  814.00   24.65
   2  -4   9  881.46   35.67
   2  -4   9  885.35   22.05
   2  -4   9  893.48   62.84
   2  -4   9  888.51   44.70
  -3   4  -9  6.2657  1.3865
  -3   4  -9  9.6498  1.3309
   3  -4   9  8.8388  1.3925
   3  -4   9  6.5474  1.5322
   3  -4   9  10.672   7.018
  -4   4  -9  42.753   4.061
   4  -4   9  46.094   3.562
   4  -4   9  47.048   3.547
   4  -4   9  31.871   8.169
  -5   4  -9  84.824   7.771
   5  -4   9  103.46    6.79
   5  -4   9  107.59    5.42
   5  -4   9  71.739  10.430
   6   3  -9  0.1120  2.0892
  -6  -3   9  4.3911  2.4602
   5   3  -9  4.2880  1.5445
   5   3  -9  6.5208  1.3872
   5   3  -9  5.0998  1.6097
  -5  -3   9  6.7380  1.9430
  -5  -3   9  10.625  11.784
   4   3  -9  147.62    6.48
   4   3  -9  155.08    6.15
  -4  -3   9  154.06    8.42
  -4  -3   9  125.81   15.41
   3   3  -9  7.2102  1.0969
   3   3  -9  6.6062  1.0075
  -3  -3   9  3.9758  1.4227
  -3  -3   9  7.3019  1.4964
   3   3  -9  0.2316  4.9365
  -3  -3   9 -0.2038  7.0902
  -3  -3   9  10.568   8.942
   2   3  -9  367.64   11.19
   2   3  -9  344.49   10.58
  -2  -3   9  381.55   22.77
  -2  -3   9  373.42   15.01
  -2  -3   9  340.96   17.98
  -2  -3   9  326.94   10.90
   2   3  -9  376.91   23.12
  -2  -3   9  354.48   26.26
  -2  -3   9  378.36   32.91
   1   3  -9  277.58    8.74
   1   3  -9  272.91   10.60
  -1  -3   9  283.97    7.82
  -1  -3   9  271.57    8.91
  -1  -3   9  281.59   16.62
  -1  -3   9  294.79   15.42
   1   3  -9  302.06   20.68
  -1  -3   9  308.75   15.71
  -1  -3   9  330.73   23.34
   0   3  -9  750.71   39.21
   0   3  -9  780.14   32.70
   0  -3   9  789.51   53.76
   0  -3   9  746.23   48.58
   0  -3   9  812.57   21.56
   0  -3   9  804.37   36.45
   0  -3   9  741.17   29.64
   0   3  -9  841.21   77.36
   0  -3   9  826.62   59.37
   0  -3   9  815.85   37.49
  -1   3  -9  15.491   1.766
  -1   3  -9  17.590   1.320
   1  -3   9  13.964   1.483
   1  -3   9  12.390   1.342
   1  -3   9  15.507   1.758
   1  -3   9  15.936   1.390
  -1   3  -9  9.2119  3.8782
   1  -3   9  5.9086  3.6119
   1  -3   9  16.316   4.928
  -2   3  -9  130.45    6.52
  -2   3  -9  131.45    8.25
   2  -3   9  132.17    4.44
   2  -3   9  136.57    4.21
   2  -3   9  131.06    4.95
  -2   3  -9  104.77   15.21
   2  -3   9  114.99   11.43
   2  -3   9  142.97   11.68
  -3   3  -9  283.25   15.05
  -3   3  -9  250.99   14.53
   3  -3   9  262.44    8.55
   3  -3   9  229.97    9.00
   3  -3   9  259.51   12.23
   3  -3   9  255.06   29.77
   3  -3   9  279.55   18.21
  -4   3  -9  2.9895  2.2783
   4  -3   9  3.9933  1.3223
   4  -3   9  4.0745  1.6850
   4  -3   9  3.1041  1.2972
   4  -3   9  5.6494  6.6392
  -5   3  -9  6.3171  2.4689
   5  -3   9  4.2457  1.6220
   5  -3   9  2.9237  1.4112
   5  -3   9  4.9165  9.2501
  -6   3  -9  43.258   3.844
   6  -3   9  41.584   4.208
   6  -3   9  49.413   4.107
   6  -3   9  30.740  15.722
   6   2  -9  142.03   10.46
   6   2  -9  144.57    7.70
   6   2  -9  139.70    8.70
  -6  -2   9  137.82    8.31
   5   2  -9  93.115   6.150
   5   2  -9  86.854   3.786
   5   2  -9  86.150   5.140
  -5  -2   9  89.484   5.240
  -5  -2   9  53.443  15.370
   4   2  -9  7.0041  1.0729
   4   2  -9  4.9308  1.5002
   4   2  -9  3.6497  0.9719
  -4  -2   9  5.8837  0.8312
  -4  -2   9  4.5057  1.1234
   4   2  -9  2.3676  5.7280
  -4  -2   9  9.6750  6.8148
   3   2  -9  0.0113  0.6725
   3   2  -9  1.1487  0.8586
  -3  -2   9  0.0497  0.8599
  -3  -2   9  1.0441  0.4831
  -3  -2   9  0.0327  1.1561
  -3  -2   9  1.2807  0.5483
   3   2  -9 -0.1829  6.0690
  -3  -2   9  12.558   8.465
  -3  -2   9  -3.255   7.525
   2   2  -9  32.875   1.684
   2   2  -9  35.402   1.879
  -2  -2   9  38.790   2.032
  -2  -2   9  35.206   2.344
  -2  -2   9  32.175   1.764
  -2  -2   9  33.542   1.506
  -2  -2   9  35.137   2.187
   2   2  -9  23.519   6.168
  -2  -2   9  33.958   7.715
  -2  -2   9  24.259   7.141
   1   2  -9  52.558   2.163
   1   2  -9  53.527   3.098
  -1  -2   9  53.654   2.665
  -1  -2   9  51.347   1.856
  -1  -2   9  49.091   2.369
  -1  -2   9  51.353   2.629
  -1  -2   9  46.667   3.265
   1   2  -9  44.310   7.356
   1   2  -9  45.062   6.203
  -1  -2   9  45.916   6.648
  -1  -2   9  51.841   7.229
   0   2  -9  4.6484  1.0521
   0   2  -9  4.7253  1.2703
   0  -2   9  3.4367  1.2735
   0  -2   9  3.9593  0.7439
   0  -2   9  3.3855  0.4650
   0  -2   9  3.5606  0.4788
   0  -2   9  3.8759  1.2445
   0  -2   9  3.5133  0.8938
   0  -2   9  2.8369  1.0673
   0   2  -9  1.1673  3.0028
   0   2  -9  0.0228  2.6126
   0  -2   9  1.7966  2.9185
   0  -2   9  -2.885   2.912
  -1   2  -9  366.62   18.41
  -1   2  -9  387.83   12.57
   1  -2   9  376.49   17.90
   1  -2   9  358.46   27.16
   1  -2   9  378.90    9.95
   1  -2   9  370.55   18.80
   1  -2   9  369.90   14.51
   1  -2   9  366.31   19.25
   1  -2   9  399.97   15.55
  -1   2  -9  359.16   38.25
   1  -2   9  372.22   17.78
   1  -2   9  369.18   21.68
  -2   2  -9  269.98   16.29
  -2   2  -9  261.07   12.16
  -2   2  -9  252.67   27.63
   2  -2   9  252.76    7.82
   2  -2   9  267.50    7.99
   2  -2   9  271.22   10.54
  -2   2  -9  232.75   20.22
   2  -2   9  224.68   15.09
   2  -2   9  269.07   15.57
  -3   2  -9  2.1473  0.2961
  -3   2  -9  0.5978  1.1959
   3  -2   9  1.8582  1.0637
   3  -2   9  3.5429  1.1145
  -3   2  -9  7.2807  5.0205
   3  -2   9  2.5497  7.0666
   3  -2   9  4.0111  4.8499
  -4   2  -9  7.5671  1.7917
   4  -2   9  7.1603  1.8120
   4  -2   9  5.1928  1.7772
   4  -2   9  7.2736  1.2216
   4  -2   9  0.7194  4.5082
  -5   2  -9  4.3025  2.0797
   5  -2   9  3.2108  1.9533
   5  -2   9  4.4337  1.3074
   5  -2   9  11.806   7.389
  -6   2  -9  55.762   5.116
   6  -2   9  65.714   4.752
   6  -2   9  65.843   5.364
   6  -2   9  42.015  12.369
   6   1  -9  21.590   2.535
   6   1  -9  23.983   3.002
   6   1  -9  24.800   2.836
  -6  -1   9  20.823   3.063
   5   1  -9  -1.316   1.395
   5   1  -9 -0.0249  0.9094
   5   1  -9  0.7464  1.1882
  -5  -1   9  1.5361  1.1034
  -5  -1   9  0.1737  1.2757
  -5  -1   9  -7.251  11.024
   4   1  -9  41.565   2.877
   4   1  -9  42.209   3.020
   4   1  -9  39.389   2.378
  -4  -1   9  42.275   2.350
  -4  -1   9  39.886   3.281
  -4  -1   9  39.910  10.535
   3   1  -9  134.65    3.75
   3   1  -9  133.26    4.07
   3   1  -9  141.95   17.51
   3   1  -9  138.50   11.78
  -3  -1   9  142.47    7.12
  -3  -1   9  145.71    8.23
  -3  -1   9  139.26    3.97
   3   1  -9  118.21   16.61
   3   1  -9  140.33   10.54
  -3  -1   9  147.14   15.38
  -3  -1   9  129.38   11.45
   2   1  -9  718.22   61.02
   2   1  -9  648.27   45.10
   2   1  -9  635.30   19.01
   2   1  -9  736.78   56.18
  -2  -1   9  630.31   14.90
  -2  -1   9  596.49   31.74
  -2  -1   9  637.21   23.92
  -2  -1   9  670.13   20.95
   2   1  -9  736.25   87.76
   2   1  -9  714.25   56.32
  -2  -1   9  801.13   40.65
  -2  -1   9  709.28   37.94
   1   1  -9  28.076   1.743
   1   1  -9  25.105   1.762
   1   1  -9  25.921   1.434
   1   1  -9  20.338   1.278
  -1  -1   9  26.123   1.480
  -1  -1   9  23.691   1.792
  -1  -1   9  21.153   1.730
  -1  -1   9  22.238   1.372
  -1  -1   9  23.269   2.225
   1   1  -9  26.173   5.788
   1   1  -9  16.045   5.051
  -1  -1   9  22.704   5.427
  -1  -1   9  12.248   5.434
   0   1  -9  181.73   14.98
   0   1  -9  188.57    8.30
   0   1  -9  182.68    3.81
   0  -1   9  181.71    4.95
   0  -1   9  185.71    9.07
   0  -1   9  177.84    8.53
   0  -1   9  175.96    9.64
   0  -1   9  181.81   12.17
   0  -1   9  165.23    6.19
   0   1  -9  189.03   13.47
   0   1  -9  175.96   12.14
   0  -1   9  159.28   12.25
   0  -1   9  173.10   11.46
  -1   1  -9  688.45   56.33
  -1   1  -9  652.55   40.27
  -1   1  -9  628.51   21.45
   1  -1   9  634.74   27.18
   1  -1   9  715.03   32.72
   1  -1   9  661.37   22.33
   1  -1   9  598.38   21.35
   1  -1   9  617.95   22.85
   1  -1   9  667.39   49.85
  -1   1  -9  747.89   70.57
  -1   1  -9  733.64   28.97
   1  -1   9  721.16   33.02
   1  -1   9  713.93   31.19
  -2   1  -9  165.76    7.76
  -2   1  -9  179.50    7.61
  -2   1  -9  168.04   10.33
   2  -1   9  182.31    7.16
   2  -1   9  163.78    7.14
   2  -1   9  183.88    4.44
   2  -1   9  178.12   13.91
  -2   1  -9  181.28   18.58
  -2   1  -9  186.73   11.70
   2  -1   9  174.99   12.21
   2  -1   9  172.93   12.95
  -3   1  -9  213.02   13.60
  -3   1  -9  200.31   16.56
  -3   1  -9  207.28   11.90
   3  -1   9  197.10    6.31
   3  -1   9  198.05   12.51
   3  -1   9  194.75   10.10
  -3   1  -9  211.98   18.71
   3  -1   9  203.51   12.79
   3  -1   9  178.11   13.06
  -4   1  -9  616.75   35.93
  -4   1  -9  681.26   36.04
  -4   1  -9  652.60   48.02
   4  -1   9  674.50   27.50
   4  -1   9  673.03   33.08
  -4   1  -9  754.13   71.26
   4  -1   9  748.05   48.83
   4  -1   9  759.04   40.44
  -5   1  -9  5.8241  2.5210
   5  -1   9  6.9458  1.3124
   5  -1   9  8.0530  1.5001
   5  -1   9  -4.156  10.288
  -6   1  -9  5.7415  2.9257
   6  -1   9  8.8078  2.0136
   6  -1   9   4.821  12.894
  -7   1  -9  2.8824  2.3113
   7  -1   9  4.0345  2.3807
   7  -1   9  -30.62   12.16
   6   0  -9  0.5772  1.9168
   6   0  -9  0.5715  2.0047
   6   0  -9 -0.6274  1.4013
  -6   0   9  3.4393  1.4669
  -6   0   9  2.3056  1.6506
   6   0  -9  1.2306  7.4725
   5   0  -9  392.67   15.66
   5   0  -9  391.89   13.88
   5   0  -9  399.52   19.92
  -5   0   9  424.75   15.29
  -5   0   9  425.52   19.95
   4   0  -9  35.649   2.138
   4   0  -9  36.618   3.907
   4   0  -9  34.253   3.571
   4   0  -9  37.573   2.670
   4   0  -9  35.860   2.593
  -4   0   9  42.156   2.769
  -4   0   9  37.757   2.734
   4   0  -9  20.472   8.864
  -4   0   9  22.214   9.695
   3   0  -9  124.05    4.61
   3   0  -9  127.50   10.06
   3   0  -9  131.98    9.16
   3   0  -9  128.23    5.04
   3   0  -9  119.75    7.90
  -3   0   9  127.49    5.81
  -3   0   9  130.05    4.34
  -3   0   9  116.35    5.08
   3   0  -9  115.06   10.98
   3   0  -9  105.93   12.07
  -3   0   9  127.48   14.52
  -3   0   9  93.536  10.298
   2   0  -9  141.45    5.19
   2   0  -9  151.05    7.49
   2   0  -9  150.39    9.75
   2   0  -9  137.89    3.76
  -2   0   9  140.35    9.33
  -2   0   9  153.20    6.54
  -2   0   9  139.42    4.85
  -2   0   9  131.36    3.87
   2   0  -9  144.78    8.82
   2   0  -9  129.02    9.01
  -2   0   9  122.91   11.68
  -2   0   9  143.34   14.44
   1   0  -9  65.904   2.165
   1   0  -9  69.753   2.630
   1   0  -9  62.004   2.210
  -1   0   9  61.135   1.915
  -1   0   9  60.508   2.349
  -1   0   9  64.207   3.285
  -1   0   9  70.958   4.347
  -1   0   9  62.583   3.359
   1   0  -9  68.910   6.528
   1   0  -9  69.772   7.357
  -1   0   9  76.416   8.077
  -1   0   9  65.572   7.761
   0   0  -9  3.2894  0.9807
   0   0  -9  1.1866  0.5202
   0   0  -9  1.8023  0.5785
   0   0   9  2.0787  0.6515
   0   0   9  3.6032  0.9861
   0   0   9  2.1787  0.4997
   0   0   9  1.1380  0.6862
   0   0   9  2.7552  0.7299
   0   0   9  2.2874  0.8097
   0   0  -9  0.1425  3.8123
   0   0  -9  0.6046  3.4890
   0   0   9  -2.455   3.793
   0   0   9  1.6976  3.6875
  -1   0  -9  531.66   24.21
  -1   0  -9  497.56   30.08
  -1   0  -9  517.26   15.80
  -1   0  -9  551.36   46.19
  -1   0  -9  482.21   16.81
   1   0   9  515.69   45.34
   1   0   9  452.69   16.39
   1   0   9  487.23   10.81
   1   0   9  477.32   11.13
   1   0   9  508.96   14.65
   1   0   9  472.61   10.50
  -1   0  -9  577.91   27.64
  -1   0  -9  560.76   40.95
   1   0   9  541.78   30.28
   1   0   9  549.80   21.97
  -2   0  -9  22.159   2.251
  -2   0  -9  24.781   1.389
  -2   0  -9  23.695   1.793
   2   0   9  24.313   1.821
   2   0   9  22.421   1.371
   2   0   9  26.219   1.288
   2   0   9  22.731   1.739
  -2   0  -9  20.707   4.950
  -2   0  -9  16.133   3.707
   2   0   9  23.547   5.728
   2   0   9  13.753   4.267
  -3   0  -9  130.91    7.78
  -3   0  -9  127.73   12.60
  -3   0  -9  126.82    4.99
  -3   0  -9  124.82    4.64
   3   0   9  125.04    6.12
   3   0   9  129.59    9.39
   3   0   9  125.82    5.69
  -3   0  -9  114.32   10.05
  -3   0  -9  126.92   10.77
   3   0   9  138.23   15.16
   3   0   9  126.37   11.13
  -4   0  -9  5.4867  1.0690
  -4   0  -9  3.8505  1.3564
  -4   0  -9  4.9407  1.5132
  -4   0  -9  5.3580  1.0061
   4   0   9  5.4342  1.1342
   4   0   9  7.5410  1.1523
   4   0   9  4.1324  1.1506
  -4   0  -9  10.349   5.168
   4   0   9  0.9043  7.5158
   4   0   9  -1.611   4.379
  -5   0  -9  28.023   3.432
  -5   0  -9  30.775   2.574
  -5   0  -9  30.861   2.911
   5   0   9  34.036   2.812
   5   0   9  31.838   2.711
  -5   0  -9  31.036  11.076
   5   0   9  35.427  10.939
  -6   0  -9  186.10   11.42
  -6   0  -9  172.78   12.25
   6   0   9  185.49    9.42
   6   0   9  187.45   22.28
  -7   0  -9  320.93   17.66
   7   0   9  356.48   20.21
   6  -1  -9  16.696   2.778
   6  -1  -9  21.717   2.907
   6  -1  -9  15.681   2.703
  -6   1   9  20.397   2.614
  -6   1   9  18.754   2.687
   6  -1  -9  -3.857  12.222
   5  -1  -9  70.475   4.622
   5  -1  -9  62.241   4.672
   5  -1  -9  76.873   3.274
  -5   1   9  70.638   3.696
  -5   1   9  71.185   3.595
   5  -1  -9  59.601  10.481
   4  -1  -9  160.98    4.99
   4  -1  -9  159.21    8.67
   4  -1  -9  164.02    5.67
  -4   1   9  157.88    7.23
  -4   1   9  180.90   12.62
  -4   1   9  166.64   11.90
   4  -1  -9  154.71   14.34
   4  -1  -9  135.79   13.04
  -4   1   9  123.26   14.48
   3  -1  -9  6.1751  0.5772
   3  -1  -9  4.2522  0.9645
   3  -1  -9  5.8199  0.4993
   3  -1  -9  5.9899  1.2323
   3  -1  -9  4.1793  0.9803
  -3   1   9  4.7559  0.8043
  -3   1   9  6.2897  1.1069
   3  -1  -9  -4.616   5.550
   3  -1  -9  3.4518  4.1671
  -3   1   9  5.8927  4.7801
   2  -1  -9  121.35    4.98
   2  -1  -9  121.09    6.78
   2  -1  -9  124.99    7.39
   2  -1  -9  121.15    3.33
  -2   1   9  116.73    6.36
  -2   1   9  111.92    3.29
  -2   1   9  117.87    6.14
  -2   1   9  120.94    5.80
   2  -1  -9  128.16    9.20
   2  -1  -9  144.58   11.63
  -2   1   9  117.03    9.31
  -2   1   9  123.57   12.19
   1  -1  -9 1063.62   64.19
   1  -1  -9 1107.49   56.53
   1  -1  -9 1050.39   33.71
  -1   1   9 1030.13   50.75
  -1   1   9 1112.32   50.94
  -1   1   9 1055.86   54.47
  -1   1   9 1053.73   62.93
   1  -1  -9 1157.23   78.32
   1  -1  -9 1174.13   92.53
  -1   1   9 1195.33   51.93
  -1   1   9 1226.72   72.99
   0  -1  -9  139.14    7.50
   0  -1  -9  143.61    4.65
   0  -1  -9  134.09    5.01
   0  -1  -9  138.99    5.59
   0   1   9  151.77    4.82
   0   1   9  137.69    4.50
   0   1   9  142.48    6.94
   0   1   9  145.17    9.02
   0   1   9  148.09   10.98
   0   1   9  129.90    5.95
   0   1   9  145.58    5.50
   0  -1  -9  144.14   10.10
   0  -1  -9  125.85   10.99
   0   1   9  122.77    8.14
   0   1   9  129.17   10.63
  -1  -1  -9  431.94   33.18
  -1  -1  -9  399.08   13.44
  -1  -1  -9  400.72   20.15
  -1  -1  -9  439.69   24.35
   1   1   9  440.38   46.04
   1   1   9  381.56    9.37
   1   1   9  443.48   20.01
   1   1   9  452.61   24.45
   1   1   9  408.96   10.95
  -1  -1  -9  418.14   17.46
  -1  -1  -9  441.53   31.71
   1   1   9  453.53   20.14
   1   1   9  477.70   24.60
  -2  -1  -9  856.20   44.14
  -2  -1  -9  864.22   54.59
  -2  -1  -9  885.84   93.39
  -2  -1  -9  875.44   64.71
  -2  -1  -9  815.92   29.84
   2   1   9  831.83   25.10
   2   1   9  889.96   37.44
   2   1   9  896.77   68.30
   2   1   9  844.28   29.95
  -2  -1  -9  942.47   45.50
  -2  -1  -9  787.36   49.74
   2   1   9  969.56   53.13
   2   1   9  931.06   62.99
  -3  -1  -9  11.265   1.112
  -3  -1  -9  12.285   1.242
  -3  -1  -9  10.078   1.054
  -3  -1  -9  13.350   1.382
   3   1   9  11.127   1.184
   3   1   9  12.023   1.206
   3   1   9  11.027   1.340
   3   1   9  9.4357  1.0965
  -3  -1  -9  5.8623  4.9465
  -3  -1  -9  6.7722  5.4764
   3   1   9  4.2921  5.4696
   3   1   9  11.225   7.383
  -4  -1  -9  117.22    9.06
  -4  -1  -9  131.48   11.25
  -4  -1  -9  126.52    4.49
  -4  -1  -9  122.75    6.26
   4   1   9  118.63    5.15
   4   1   9  110.09    8.18
  -4  -1  -9  104.91   11.97
   4   1   9  106.32   12.18
  -5  -1  -9  269.96   14.05
  -5  -1  -9  277.99   22.97
  -5  -1  -9  267.09   10.79
   5   1   9  275.64   11.72
   5   1   9  255.99   21.95
  -5  -1  -9  278.32   20.97
   5   1   9  276.42   21.37
  -6  -1  -9  5.1791  1.8657
  -6  -1  -9  2.7043  1.2800
  -6  -1  -9  4.5754  2.0160
   6   1   9  5.7359  1.4534
   6   1   9  4.4249  1.5148
  -7  -1  -9  6.1640  3.5213
   7   1   9  9.4600  2.2931
   6  -2  -9  282.21   17.65
   6  -2  -9  291.04   15.82
   6  -2  -9  275.04   20.55
  -6   2   9  289.13   16.71
  -6   2   9  288.76   14.70
   6  -2  -9  288.97   31.97
   5  -2  -9  13.886   1.928
   5  -2  -9  13.891   1.937
   5  -2  -9  15.864   2.413
  -5   2   9  15.997   2.685
  -5   2   9  17.325   2.509
   5  -2  -9  8.4021  7.2877
   4  -2  -9  51.807   3.947
   4  -2  -9  52.121   2.603
   4  -2  -9  49.789   2.876
  -4   2   9  50.512   4.574
  -4   2   9  60.810   4.213
   4  -2  -9  32.117   8.657
   3  -2  -9  79.013   2.492
   3  -2  -9  72.541   2.502
   3  -2  -9  70.538   4.258
  -3   2   9  73.426   4.043
  -3   2   9  75.232   4.265
   3  -2  -9  74.579   8.904
   3  -2  -9  61.231   7.584
  -3   2   9  55.883   9.531
   2  -2  -9  45.797   2.337
   2  -2  -9  41.860   2.624
   2  -2  -9  48.786   1.824
  -2   2   9  52.554   2.672
  -2   2   9  43.499   2.629
  -2   2   9  45.583   1.918
   2  -2  -9  39.510   5.421
   2  -2  -9  46.421   5.431
  -2   2   9  36.183   5.889
   1  -2  -9  6.3141  1.1299
   1  -2  -9  5.3942  0.6901
   1  -2  -9  5.0726  1.1426
  -1   2   9  5.8609  0.8285
  -1   2   9  7.1286  0.6997
  -1   2   9  5.2592  0.4868
  -1   2   9  4.9426  0.3996
   1  -2  -9  5.6982  3.5900
   1  -2  -9  3.2139  3.5640
  -1   2   9  -1.185   4.253
  -1   2   9  11.539   4.396
   0  -2  -9  163.10    7.07
   0  -2  -9  164.17    5.98
   0   2   9  166.79    8.27
   0   2   9  153.61    4.49
   0   2   9  154.41    6.71
   0   2   9  144.19   13.94
   0   2   9  164.09    5.78
   0   2   9  172.69    8.54
   0  -2  -9  148.07   12.94
   0  -2  -9  169.51   10.88
   0   2   9  178.32   15.01
   0   2   9  141.24   10.87
  -1  -2  -9  0.4335  0.1613
  -1  -2  -9 -0.0476  0.4069
  -1  -2  -9  0.5674  0.5494
   1   2   9 -0.1282  0.5596
   1   2   9 -0.0508  0.5068
   1   2   9  0.8655  0.4823
   1   2   9  0.3689  0.8421
   1   2   9  0.8087  0.8248
  -1  -2  -9  -1.526   2.273
  -1  -2  -9  -4.152   3.255
   1   2   9  0.2975  4.0950
   1   2   9  0.3345  3.0911
  -2  -2  -9  287.75    8.88
  -2  -2  -9  311.08   15.05
  -2  -2  -9  297.17   15.61
  -2  -2  -9  306.78   10.88
   2   2   9  322.45   19.00
   2   2   9  319.94   21.01
   2   2   9  304.26   11.44
   2   2   9  291.82    7.75
  -2  -2  -9  287.66   20.17
  -2  -2  -9  279.17   16.83
   2   2   9  277.08   12.67
   2   2   9  316.43   21.97
  -3  -2  -9  190.47   13.67
  -3  -2  -9  202.22    7.38
  -3  -2  -9  210.58    7.62
  -3  -2  -9  212.00   12.20
  -3  -2  -9  199.24   10.00
   3   2   9  189.20    6.73
   3   2   9  202.25    6.60
  -3  -2  -9  244.83   13.39
  -3  -2  -9  199.84   15.44
   3   2   9  219.69   16.65
   3   2   9  182.77   13.85
  -4  -2  -9  7.1203  1.1388
  -4  -2  -9  7.4516  1.0012
  -4  -2  -9  9.3115  1.7153
  -4  -2  -9  7.7623  0.9243
  -4  -2  -9  7.4543  0.9814
   4   2   9  9.1103  1.0105
   4   2   9  6.8299  1.0279
  -4  -2  -9  3.9848  4.0104
  -4  -2  -9  9.5744  6.2726
   4   2   9  0.8726  4.4696
  -5  -2  -9  8.6271  1.6370
  -5  -2  -9  9.6514  2.0270
  -5  -2  -9  10.793   1.656
   5   2   9  11.230   1.570
   5   2   9  13.452   1.634
  -5  -2  -9  11.430   5.970
   5   2   9  2.2174  6.3154
  -6  -2  -9  52.617   4.470
  -6  -2  -9  45.536   4.313
  -6  -2  -9  47.732   4.297
   6   2   9  48.431   3.734
   6   2   9  53.255   4.557
  -6  -2  -9  32.694  10.750
  -7  -2  -9  -4.157   2.948
  -7  -2  -9  0.8044  1.3800
  -7  -2  -9 -0.2779  1.5784
   7   2   9  1.3291  1.5627
   6  -3  -9  0.6278  2.5670
   6  -3  -9  4.5678  2.4480
  -6   3   9 -0.4557  1.9337
  -6   3   9  4.6065  2.7588
   6  -3  -9  -9.831  13.154
   5  -3  -9  4.5395  2.0394
   5  -3  -9  5.1946  2.0269
  -5   3   9  10.920   2.701
  -5   3   9  8.9413  1.6985
   5  -3  -9  2.9038  9.0248
   4  -3  -9  38.005   2.548
   4  -3  -9  40.406   2.559
   4  -3  -9  41.129   2.322
  -4   3   9  35.130   3.412
  -4   3   9  40.948   3.363
   3  -3  -9  289.93    7.27
   3  -3  -9  291.32    8.23
   3  -3  -9  281.93    9.78
  -3   3   9  309.11   16.14
  -3   3   9  295.62   16.02
   3  -3  -9  304.89   28.61
   3  -3  -9  319.68   16.83
  -3   3   9  320.59   20.71
   2  -3  -9  378.91    9.17
   2  -3  -9  382.64   11.24
   2  -3  -9  379.29    8.58
  -2   3   9  381.27   15.79
  -2   3   9  411.31   17.43
  -2   3   9  397.75   17.91
   2  -3  -9  402.10   32.81
  -2   3   9  387.30   25.12
   1  -3  -9  124.49    3.33
   1  -3  -9  129.81    5.07
  -1   3   9  128.23    3.92
  -1   3   9  118.22    7.52
  -1   3   9  124.15    7.69
  -1   3   9  119.04    7.36
   1  -3  -9  113.06    8.84
  -1   3   9  122.72    7.48
   0  -3  -9  728.11   21.27
   0  -3  -9  712.21   36.07
   0   3   9  782.04   24.69
   0   3   9  730.48   45.14
   0   3   9  732.24   29.05
   0   3   9  734.32   20.30
   0  -3  -9  723.82   31.22
   0   3   9  737.59   43.24
  -1  -3  -9  286.29   10.44
  -1  -3  -9  283.03   10.42
   1   3   9  277.67    6.34
   1   3   9  262.19    7.00
   1   3   9  304.20   16.13
  -1  -3  -9  306.15   19.25
  -1  -3  -9  296.49   19.34
   1   3   9  293.13   12.70
  -2  -3  -9  10.533   1.105
  -2  -3  -9  8.6873  0.9520
   2   3   9  8.5041  1.0486
   2   3   9  8.1899  1.0780
  -2  -3  -9  10.870   3.669
  -2  -3  -9  7.9765  3.2168
   2   3   9  2.9581  3.0323
  -3  -3  -9  594.50   33.31
  -3  -3  -9  565.96   26.97
  -3  -3  -9  544.86   19.22
  -3  -3  -9  595.87   37.79
  -3  -3  -9  611.91   46.77
   3   3   9  572.39   18.23
   3   3   9  577.96   19.05
  -3  -3  -9  636.77   30.64
  -3  -3  -9  597.49   31.47
   3   3   9  577.22   41.22
  -4  -3  -9  289.89   15.47
  -4  -3  -9  290.54   12.28
  -4  -3  -9  298.79   13.84
  -4  -3  -9  274.45    9.42
  -4  -3  -9  307.30   21.62
   4   3   9  312.16   12.22
   4   3   9  290.57    8.82
  -4  -3  -9  296.58   21.26
  -4  -3  -9  291.72   30.30
   4   3   9  277.24   22.11
  -5  -3  -9  10.267   1.740
  -5  -3  -9  14.428   1.837
  -5  -3  -9  12.659   1.134
  -5  -3  -9  9.8068  2.0347
   5   3   9  15.067   1.950
   5   3   9  13.653   1.625
  -5  -3  -9  11.206   9.164
  -6  -3  -9  27.681   2.644
  -6  -3  -9  35.697   3.468
  -6  -3  -9  30.559   3.600
   6   3   9  34.898   2.590
   6   3   9  26.260   2.616
  -6  -3  -9   4.546  10.624
  -7  -3  -9  6.7833  2.6706
  -7  -3  -9  4.5253  2.1820
  -7  -3  -9  3.1529  2.0667
   7   3   9  5.7232  2.3988
   6  -4  -9  24.586   3.585
   6  -4  -9  31.852   4.087
  -6   4   9  29.499   3.432
  -6   4   9  25.899   3.717
   6  -4  -9  15.926   9.966
   5  -4  -9  12.150   2.132
   5  -4  -9  7.8355  2.6384
  -5   4   9  12.431   2.911
   5  -4  -9  13.310   9.204
   4  -4  -9  2.4085  1.1000
   4  -4  -9  2.1740  1.1994
  -4   4   9  2.1773  1.1651
  -4   4   9  2.2193  1.2072
   4  -4  -9  0.6161  6.2357
   3  -4  -9  15.533   1.527
   3  -4  -9  18.481   2.272
  -3   4   9  19.155   1.890
  -3   4   9  23.185   1.832
   3  -4  -9  19.553   5.416
   3  -4  -9  20.552   7.169
   2  -4  -9  264.03    7.99
   2  -4  -9  266.36    7.24
  -2   4   9  258.58    9.91
  -2   4   9  279.24    9.96
  -2   4   9  261.71   12.94
   2  -4  -9  290.54   24.28
   2  -4  -9  287.43   16.71
  -2   4   9  262.54   16.31
   1  -4  -9  335.04    7.98
   1  -4  -9  334.14   10.22
  -1   4   9  344.13   22.00
  -1   4   9  345.58    9.69
  -1   4   9  337.86   33.00
  -1   4   9  330.14   18.34
   1  -4  -9  342.16   21.29
   1  -4  -9  329.18   21.10
  -1   4   9  322.28   26.47
   0  -4  -9  19.521   1.451
   0  -4  -9  21.151   1.136
   0   4   9  19.694   1.081
   0   4   9  19.679   1.865
   0   4   9  20.401   1.066
   0  -4  -9  13.404   3.786
   0  -4  -9  17.686   3.585
   0   4   9  8.6094  4.0667
  -1  -4  -9  158.53    6.96
  -1  -4  -9  155.06    7.55
  -1  -4  -9  155.45    7.68
   1   4   9  168.04    5.14
   1   4   9  166.05    6.15
   1   4   9  162.48    4.58
  -1  -4  -9  181.62    8.96
  -1  -4  -9  166.70   13.63
   1   4   9  151.52   10.59
  -2  -4  -9  188.84    6.25
  -2  -4  -9  190.91    5.95
  -2  -4  -9  196.57    7.10
   2   4   9  184.68    5.58
   2   4   9  175.73    6.20
   2   4   9  195.59   11.20
  -2  -4  -9  186.74    9.82
  -2  -4  -9  200.52   13.94
   2   4   9  171.73   13.50
  -3  -4  -9  0.1837  0.3222
  -3  -4  -9 -0.0570  0.5183
  -3  -4  -9 -0.6238  1.1097
  -3  -4  -9  0.1924  1.2150
   3   4   9  1.3980  1.0653
   3   4   9 -0.8602  1.1615
  -3  -4  -9  2.9790  4.5948
  -3  -4  -9  -2.793   3.228
   3   4   9  -2.621   6.298
  -4  -4  -9  12.798   0.970
  -4  -4  -9  11.170   1.376
  -4  -4  -9  10.394   1.605
  -4  -4  -9  11.047   1.311
   4   4   9  13.677   1.939
   4   4   9  12.222   1.798
  -4  -4  -9  13.359   7.344
  -4  -4  -9  15.357   6.847
  -5  -4  -9  1.1780  1.2697
  -5  -4  -9  4.0838  1.5424
  -5  -4  -9  -3.242   2.290
   5   4   9  1.8063  1.1800
   5   4   9  0.3435  1.0198
  -5  -4  -9  1.8233  8.6356
  -6  -4  -9  8.1241  2.0202
  -6  -4  -9  0.9331  2.2581
  -6  -4  -9  3.8879  1.9190
   6   4   9  5.4604  2.1950
   6   4   9  7.0943  2.0509
  -6  -4  -9   2.238  10.802
  -7  -4  -9  138.77    7.83
  -7  -4  -9  139.76   13.80
  -7  -4  -9  138.97   13.09
   7   4   9  145.44   13.11
   7   4   9  149.78   10.69
  -7  -4  -9  133.67   19.09
   5  -5  -9  4.7501  1.8764
   5  -5  -9  2.6053  1.5702
  -5   5   9  6.4501  2.4396
   5  -5  -9  -2.033   6.884
   4  -5  -9  6.6114  1.8741
   4  -5  -9  5.9931  2.3221
  -4   5   9  7.5262  1.6187
   4  -5  -9  0.2973  4.7503
   3  -5  -9  62.231   3.172
   3  -5  -9  62.078   3.896
  -3   5   9  64.174   3.471
  -3   5   9  57.206   4.823
   2  -5  -9  10.914   1.878
   2  -5  -9  14.603   1.703
  -2   5   9  12.480   1.651
  -2   5   9  9.6799  1.7170
  -2   5   9  13.675   1.597
   2  -5  -9  4.5229  4.8897
   2  -5  -9  17.290   5.266
   1  -5  -9  35.820   2.543
   1  -5  -9  36.674   1.989
  -1   5   9  36.392   2.229
  -1   5   9  33.326   2.752
  -1   5   9  32.672   3.598
  -1   5   9  34.139   2.280
  -1   5   9  31.047   2.389
   1  -5  -9  36.227   6.021
   1  -5  -9  35.878   5.069
  -1   5   9  19.214   6.290
   0  -5  -9  67.177   2.997
   0  -5  -9  63.727   3.315
   0   5   9  63.635   4.947
   0   5   9  62.145   2.904
   0   5   9  61.560   3.297
   0   5   9  63.115   3.392
   0  -5  -9  58.166   6.870
   0  -5  -9  70.703   6.521
   0   5   9  41.760   5.746
  -1  -5  -9  385.27   10.04
  -1  -5  -9  387.28   13.55
  -1  -5  -9  384.79    9.73
   1   5   9  398.67   18.42
   1   5   9  353.82   11.73
  -1  -5  -9  403.44   20.09
  -1  -5  -9  413.82   28.27
   1   5   9  400.72   27.23
  -2  -5  -9  242.70   11.57
  -2  -5  -9  273.86    6.75
  -2  -5  -9  272.17    7.19
   2   5   9  284.47   10.50
   2   5   9  283.44   15.34
  -2  -5  -9  275.78   17.04
  -2  -5  -9  281.97   19.75
   2   5   9  248.30   15.64
  -3  -5  -9  540.42   25.38
  -3  -5  -9  588.64   24.07
  -3  -5  -9  551.18   24.85
  -3  -5  -9  491.07   21.14
  -3  -5  -9  577.79   24.21
   3   5   9  556.02   19.98
  -3  -5  -9  662.90   29.99
  -3  -5  -9  611.40   31.06
  -4  -5  -9  65.068   3.047
  -4  -5  -9  65.083   2.976
  -4  -5  -9  67.980   3.229
  -4  -5  -9  62.377   3.627
   4   5   9  65.095   3.684
   4   5   9  63.664   3.557
  -4  -5  -9  63.672   8.205
  -5  -5  -9  2.1091  1.9021
  -5  -5  -9  1.8770  1.7571
   5   5   9  0.0171  0.9988
   5   5   9  0.4561  1.5344
  -5  -5  -9  2.2507  6.3404
  -6  -5  -9 -0.6090  1.7122
  -6  -5  -9  1.2441  1.4548
  -6  -5  -9  1.2274  1.5669
   6   5   9  1.7743  1.3205
   6   5   9  1.1518  2.0662
  -6  -5  -9  -1.961  10.746
  -7  -5  -9  4.4390  3.5898
  -7  -5  -9  3.7840  2.0104
  -7  -5  -9  4.1282  2.7922
   7   5   9  2.8427  1.9834
   7   5   9  2.8916  1.9953
  -7  -5  -9  13.334  14.527
   5  -6  -9  124.40    8.32
   5  -6  -9  134.73    9.64
  -5   6   9  136.21   10.70
   5  -6  -9  134.14   14.91
   4  -6  -9  114.99    7.01
   4  -6  -9  130.20    5.90
  -4   6   9  138.15   10.17
   4  -6  -9  136.82   14.41
   3  -6  -9  61.836   4.271
   3  -6  -9  67.777   4.056
  -3   6   9  69.144   4.523
  -3   6   9  67.176   4.817
   3  -6  -9  66.138   8.098
   2  -6  -9  68.524   3.461
   2  -6  -9  59.702   2.820
  -2   6   9  62.756   4.869
  -2   6   9  65.970   2.600
   2  -6  -9  65.626   8.773
   2  -6  -9  56.538   7.078
   1  -6  -9  380.80   14.48
   1  -6  -9  381.44   14.97
  -1   6   9  391.02   15.97
  -1   6   9  406.96   11.49
   1  -6  -9  435.47   25.98
   1  -6  -9  422.96   23.74
   0  -6  -9  3.0122  1.2737
   0  -6  -9  0.6343  1.2865
   0   6   9  3.4510  0.5696
   0   6   9  4.0084  1.0520
   0   6   9  1.6690  1.0621
   0  -6  -9  5.4424  3.5907
   0  -6  -9  5.6277  3.2572
  -1  -6  -9  7.8542  0.9455
  -1  -6  -9  8.6821  1.1989
  -1  -6  -9  7.9595  1.5070
   1   6   9  7.3300  0.6286
   1   6   9  8.2255  1.4163
  -1  -6  -9  14.272   4.055
  -1  -6  -9  4.3665  3.4409
   1   6   9  -1.108   2.543
  -2  -6  -9  163.64    7.46
  -2  -6  -9  167.09   11.27
  -2  -6  -9  162.43    7.65
   2   6   9  160.62    6.72
   2   6   9  153.30    8.48
  -2  -6  -9  170.61   11.29
  -2  -6  -9  176.87   14.91
  -3  -6  -9  0.7738  0.9743
  -3  -6  -9  0.8497  0.7200
  -3  -6  -9  1.3265  0.6568
  -3  -6  -9  0.0161  1.3375
   3   6   9  1.4631  1.1537
  -3  -6  -9  2.8167  5.5199
  -3  -6  -9  0.3670  4.1620
  -4  -6  -9  0.3495  1.0879
  -4  -6  -9  1.7064  1.5893
   4   6   9  2.2024  2.0279
  -4  -6  -9  1.9535  6.0773
  -5  -6  -9  19.222   2.269
  -5  -6  -9  21.753   2.540
   5   6   9  23.138   3.108
  -5  -6  -9  14.349   6.932
  -6  -6  -9  6.6091  2.9384
  -6  -6  -9  10.807   2.788
   6   6   9  11.423   2.416
   6   6   9  9.8622  2.2699
  -6  -6  -9  -10.41   10.81
   4  -7  -9  17.341   2.629
   4  -7  -9  11.271   2.193
  -4   7   9  13.347   2.795
   4  -7  -9  15.766   8.085
   3  -7  -9  1.4115  2.2968
   3  -7  -9 -0.5924  2.1640
  -3   7   9  2.0358  1.8684
   3  -7  -9  0.4855  5.4772
   2  -7  -9  51.455   3.449
   2  -7  -9  50.502   2.777
  -2   7   9  52.051   3.571
  -2   7   9  45.249   3.501
   2  -7  -9  43.709   5.834
   2  -7  -9  54.170   6.461
   1  -7  -9  2.4861  1.2018
   1  -7  -9  1.8368  1.5273
  -1   7   9  2.9481  1.2796
  -1   7   9  2.9490  1.5877
   1  -7  -9  -1.261   3.677
   1  -7  -9  3.0799  2.9711
   0  -7  -9  31.987   1.707
   0  -7  -9  32.414   2.760
   0   7   9  28.236   2.266
   0   7   9  27.734   1.702
   0  -7  -9  29.247   4.218
   0  -7  -9  30.747   3.991
  -1  -7  -9  224.29    7.75
  -1  -7  -9  223.00    9.02
  -1  -7  -9  218.64   10.29
   1   7   9  216.71    8.49
  -1  -7  -9  219.89   16.19
  -1  -7  -9  242.82   15.15
  -2  -7  -9  41.803   3.229
  -2  -7  -9  43.444   2.185
  -2  -7  -9  42.187   2.774
   2   7   9  42.441   2.977
  -2  -7  -9  41.317   5.798
  -2  -7  -9  38.148   5.552
  -3  -7  -9  305.97   11.49
   3   7   9  329.83   15.83
  -3  -7  -9  332.99   24.66
  -4  -7  -9  159.83    9.35
  -4  -7  -9  170.29    7.41
   4   7   9  173.90    9.39
  -4  -7  -9  161.31   11.56
  -5  -7  -9  194.97    8.72
  -5  -7  -9  192.07   15.51
   5   7   9  206.67   10.70
  -5  -7  -9  192.20   18.30
  -6  -7  -9  5.0733  2.0690
  -6  -7  -9  10.185   2.720
   6   7   9  11.727   2.890
  -6  -7  -9   7.885  11.834
  -4   8   9  0.7915  2.9034
   4  -8  -9  -1.784   5.351
   3  -8  -9  62.026   5.287
  -3   8   9  71.523   5.004
   3  -8  -9  84.120   8.641
   2  -8  -9  69.403   4.506
   2  -8  -9  77.551   4.305
  -2   8   9  66.164   4.231
  -2   8   9  69.744   4.443
   2  -8  -9  72.365   8.008
   2  -8  -9  72.306   6.809
   1  -8  -9  2.3061  1.4266
   1  -8  -9 -0.6084  1.9503
  -1   8   9  1.6949  1.6923
  -1   8   9  2.4507  1.9116
   1  -8  -9  0.7887  2.3937
   1  -8  -9  2.8604  2.5590
   0  -8  -9  236.25    7.23
   0  -8  -9  232.66    6.95
   0   8   9  228.41   10.92
   0   8   9  221.11   12.82
   0  -8  -9  245.29   14.39
   0  -8  -9  225.37   13.62
  -1  -8  -9  28.771   2.613
  -1  -8  -9  26.277   2.395
   1   8   9  29.251   2.921
  -1  -8  -9  22.361   4.059
  -1  -8  -9  27.630   3.902
  -2  -8  -9  12.219   2.083
  -2  -8  -9  9.8407  1.3543
   2   8   9  11.767   2.688
  -2  -8  -9  12.239   4.513
  -2  -8  -9  12.311   4.430
  -3  -8  -9  278.14   13.18
   3   8   9  310.76   21.50
  -3  -8  -9  301.40   22.02
  -4  -8  -9  4.6422  2.0484
  -4  -8  -9  5.0243  1.8111
   4   8   9  1.8303  1.6439
  -4  -8  -9  -3.471   6.226
  -5  -8  -9  1.5740  1.8863
  -5  -8  -9  1.7735  1.6392
   5   8   9  1.7595  1.8639
  -5  -8  -9  -4.351   9.140
   2  -9  -9  6.4176  2.8115
  -2   9   9  3.1024  2.2439
   1  -9  -9  38.492   2.883
  -1   9   9  37.438   3.524
  -1   9   9  29.414   2.663
   0  -9  -9  105.49    7.04
   0   9   9  87.826   5.749
   0   9   9  90.099   5.369
  -1  -9  -9  64.195   3.774
  -1  -9  -9  70.498   4.299
   1   9   9  68.379   5.098
  -2  -9  -9  11.896   2.429
   2   9   9  19.423   3.459
  -2  -9  -9  10.339   3.119
  -2  -9  -9  10.045   3.679
  -3  -9  -9  26.337   3.283
   3   9   9  28.508   3.367
  -3  -9  -9  23.478   6.109
  -4  -9  -9  409.07   28.59
   4   9   9  401.95   32.28
  -4  -9  -9  459.09   40.49
   1 -10  -9  143.98   10.22
  -1  10   9  141.35   11.27
   0 -10  -9  73.058   4.952
   0  10   9  58.854   5.818
   0  10   9  65.097   5.873
   1  10   9  19.111   2.436
   1  10   9  21.689   2.772
  -2 -10  -9  27.597   3.174
   2  10   9  23.903   3.726
  -3 -10  -9  3.1234  1.8395
   3  10   9 -0.2838  2.6621
  -3 -10  -9 -0.9833  3.5523
   2   8 -10  22.983   2.744
   2   8 -10  26.249   3.500
  -2  -8  10  28.791   4.425
  -2  -8  10  30.115  13.532
   1   8 -10  27.604   3.311
   1   8 -10  27.684   2.838
  -1  -8  10  26.778   4.086
  -1  -8  10  21.371  12.340
   0   8 -10  161.78    9.68
   0  -8  10  156.60   10.53
   0  -8  10  182.13   18.08
  -1   8 -10 -0.6807  1.7640
   1  -8  10  -1.593   3.181
   1  -8  10  6.0703  3.2587
   1  -8  10   6.849  11.877
   3   7 -10  14.281   2.924
   3   7 -10  9.5271  1.9380
  -3  -7  10  15.725   2.832
  -3  -7  10  29.133  15.917
   2   7 -10  2.0769  2.0426
   2   7 -10  0.4948  2.0420
  -2  -7  10  1.6550  1.9485
  -2  -7  10   1.020  11.798
   1   7 -10  228.46    8.43
   1   7 -10  194.22   11.63
  -1  -7  10  230.28   18.53
  -1  -7  10  224.98   21.22
   0   7 -10  96.528   7.256
   0  -7  10  109.00    6.75
   0  -7  10  108.51    5.91
   0  -7  10  101.30   12.47
  -1   7 -10  61.443   4.171
   1  -7  10  58.992   4.874
   1  -7  10  50.303   4.574
   1  -7  10  47.108  11.344
  -2   7 -10  0.3347  1.6183
   2  -7  10  1.2044  1.8055
   2  -7  10  1.4646  2.0624
   2  -7  10  15.609  10.707
  -3   7 -10  -1.578   1.633
   3  -7  10  0.1572  2.5799
   3  -7  10  0.8427  1.7946
   3  -7  10  -8.687  11.535
   4   6 -10  2.1271  1.9041
  -4  -6  10  1.9681  2.1576
  -4  -6  10  -2.078   1.848
  -4  -6  10   4.446  14.037
   3   6 -10  2.0790  1.2223
   3   6 -10  0.7517  1.4971
  -3  -6  10  -1.662   1.449
  -3  -6  10  1.1095  2.5973
  -3  -6  10  1.6345  1.2594
  -3  -6  10  -10.76   12.43
   2   6 -10  25.408   2.676
   2   6 -10  28.135   2.521
  -2  -6  10  27.598   2.734
  -2  -6  10  56.241  11.933
   1   6 -10  6.3638  1.7973
   1   6 -10  8.5507  2.3761
  -1  -6  10  7.0170  1.8500
  -1  -6  10  -4.512   8.138
   0   6 -10  1.3728  1.3470
   0  -6  10  1.9099  2.2063
   0  -6  10  -1.777   1.404
   0  -6  10  1.8333  9.2098
  -1   6 -10  284.56   10.79
   1  -6  10  290.37   13.82
   1  -6  10  280.21   16.22
   1  -6  10  290.71   24.53
  -2   6 -10  0.7394  1.8939
  -2   6 -10  4.8730  2.1139
   2  -6  10  2.2046  2.2135
   2  -6  10  4.4001  2.3892
   2  -6  10  -2.046   8.263
  -3   6 -10  35.899   3.649
  -3   6 -10  28.197   3.530
   3  -6  10  34.997   3.341
   3  -6  10  30.323   4.173
   3  -6  10  30.321  10.281
  -4   6 -10  77.908   6.325
  -4   6 -10  91.568   7.791
   4  -6  10  73.692   7.690
   4  -6  10  82.754   8.361
   4  -6  10  63.861  13.916
   5   5 -10  65.670   4.640
  -5  -5  10  56.600   4.901
  -5  -5  10  58.985   4.852
  -5  -5  10  39.752  17.391
   4   5 -10  43.196   2.868
   4   5 -10  48.993   3.342
  -4  -5  10  41.169   3.977
  -4  -5  10  45.240   3.041
  -4  -5  10  44.105  14.367
   3   5 -10  272.34   15.71
   3   5 -10  272.33   12.24
  -3  -5  10  266.67   14.95
  -3  -5  10  272.53   13.99
  -3  -5  10  232.95   17.01
  -3  -5  10  277.86   25.85
   2   5 -10  39.720   3.155
   2   5 -10  48.180   3.084
  -2  -5  10  47.953   3.574
  -2  -5  10  40.720   2.871
  -2  -5  10  44.224   2.765
  -2  -5  10  38.089  10.080
   1   5 -10  151.95   10.01
   1   5 -10  149.80    7.49
  -1  -5  10  137.51   16.57
  -1  -5  10  140.65   14.68
  -1  -5  10  163.74    8.08
  -1  -5  10  162.60    5.99
  -1  -5  10  146.07   11.94
   0   5 -10  1.7329  1.1680
   0  -5  10  1.7844  1.1431
   0  -5  10 -0.3259  1.2632
   0  -5  10  4.3315  4.5904
  -1   5 -10  4.6403  1.2863
  -1   5 -10  3.7907  1.7583
   1  -5  10  3.8553  1.7527
   1  -5  10  5.7673  2.0023
   1  -5  10  10.654   6.906
  -2   5 -10  421.12   18.58
  -2   5 -10  383.89   24.03
   2  -5  10  388.87   18.08
   2  -5  10  347.07   17.90
   2  -5  10  426.22   34.42
  -3   5 -10  52.148   4.343
  -3   5 -10  61.705   3.791
   3  -5  10  59.122   3.528
   3  -5  10  58.022   4.103
   3  -5  10  60.697  11.601
  -4   5 -10  210.65   15.53
  -4   5 -10  180.63   13.26
   4  -5  10  185.51   13.76
   4  -5  10  190.36    9.50
   4  -5  10  208.89   21.29
  -5   5 -10  2.8102  2.5838
  -5   5 -10  6.9565  2.9111
   5  -5  10  4.2303  2.3850
   5  -5  10  5.5752  2.2651
   5   4 -10  2.5701  1.1962
   5   4 -10  4.9769  1.6207
   5   4 -10  2.1135  1.9118
  -5  -4  10  3.2405  2.4985
  -5  -4  10   5.440  16.115
   4   4 -10  -1.157   1.188
   4   4 -10  0.7836  0.8935
  -4  -4  10  -2.052   1.670
  -4  -4  10   7.088  14.669
   3   4 -10 -0.6962  1.0336
   3   4 -10 -0.4768  1.3400
  -3  -4  10 -0.4628  1.9234
  -3  -4  10  0.3829  0.8753
  -3  -4  10  0.5759  5.4674
   2   4 -10  47.655   3.132
   2   4 -10  46.762   2.276
  -2  -4  10  51.777   2.774
  -2  -4  10  42.748   2.888
  -2  -4  10  25.490   7.283
   1   4 -10  49.698   2.759
   1   4 -10  56.228   3.713
  -1  -4  10  45.237   4.382
  -1  -4  10  50.952   3.217
  -1  -4  10  50.843   3.902
  -1  -4  10  50.668   2.760
  -1  -4  10  45.381   3.959
  -1  -4  10  67.114  10.236
  -1  -4  10  56.062   9.207
   0   4 -10  26.723   2.614
   0   4 -10  36.327   1.979
   0  -4  10  27.454   2.031
   0  -4  10  28.173   1.772
   0  -4  10  29.814   2.704
   0  -4  10  29.425   1.635
   0  -4  10  32.404   1.519
   0  -4  10  28.467   2.426
   0  -4  10  21.583   7.322
   0  -4  10  36.346   6.377
  -1   4 -10  62.857   3.287
  -1   4 -10  53.096   3.277
   1  -4  10  55.726   3.008
   1  -4  10  51.629   2.847
   1  -4  10  47.461   8.570
   1  -4  10  26.241   9.413
  -2   4 -10  67.655   3.618
  -2   4 -10  55.556   2.932
   2  -4  10  59.118   3.901
   2  -4  10  50.007   2.636
   2  -4  10  51.996   7.356
  -3   4 -10  6.8959  2.1369
  -3   4 -10  10.528   1.857
   3  -4  10  9.7570  2.0877
   3  -4  10  7.2611  2.0554
   3  -4  10  8.1635  5.0495
  -4   4 -10  19.499   2.163
  -4   4 -10  16.617   3.079
   4  -4  10  18.904   2.286
   4  -4  10  13.824   2.169
   4  -4  10  11.724   8.567
  -5   4 -10  48.399   4.936
   5  -4  10  64.838   5.139
   5  -4  10  59.070   4.649
   5  -4  10  48.708  15.462
   6   3 -10  5.1142  2.4751
  -6  -3  10  3.9469  2.8911
   5   3 -10  2.8092  1.6603
   5   3 -10  3.8131  1.4365
   5   3 -10  2.2381  1.5969
  -5  -3  10  2.8960  1.5817
  -5  -3  10  16.804  16.252
   4   3 -10  25.062   2.123
   4   3 -10  24.526   2.536
  -4  -3  10  22.627   2.203
  -4  -3  10  32.208  12.195
   3   3 -10  246.87    6.95
   3   3 -10  237.26    8.06
  -3  -3  10  241.74    9.07
  -3  -3  10  248.81   15.64
  -3  -3  10  217.13   15.50
   2   3 -10 -0.1178  0.8664
   2   3 -10 -0.0745  0.7733
  -2  -3  10  1.5529  0.8677
  -2  -3  10  -1.300   1.271
  -2  -3  10  0.0287  0.2637
  -2  -3  10  0.3484  0.4233
   2   3 -10  0.4437  4.2436
  -2  -3  10  0.2077  7.9646
  -2  -3  10  0.4478  4.6993
   1   3 -10  20.665   1.847
   1   3 -10  18.347   1.447
  -1  -3  10  17.670   1.300
  -1  -3  10  14.442   1.350
  -1  -3  10  13.435   1.115
  -1  -3  10  14.833   1.431
  -1  -3  10  15.682   1.839
   1   3 -10  6.2590  4.5353
  -1  -3  10  9.6177  5.7030
  -1  -3  10  22.686   7.426
   0   3 -10  230.62   14.66
   0   3 -10  243.68   16.54
   0   3 -10  250.86    7.08
   0  -3  10  247.21    8.00
   0  -3  10  261.75    9.85
   0  -3  10  236.94   12.78
   0  -3  10  270.42   12.04
   0  -3  10  251.51   15.52
   0  -3  10  261.74   12.88
   0   3 -10  241.33   18.80
   0  -3  10  251.17   18.33
   0  -3  10  232.25   14.67
  -1   3 -10  257.91   14.75
  -1   3 -10  254.15    9.80
   1  -3  10  258.13    6.47
   1  -3  10  274.89    8.02
   1  -3  10  274.44    8.08
  -1   3 -10  288.48   22.22
   1  -3  10  306.81   20.59
   1  -3  10  271.59   18.36
  -2   3 -10  343.21   16.58
  -2   3 -10  371.08   27.71
   2  -3  10  306.42    8.93
   2  -3  10  352.19   18.01
   2  -3  10  344.18    9.90
   2  -3  10  346.94   20.63
   2  -3  10  367.87   27.12
  -3   3 -10  897.56   47.92
  -3   3 -10  929.46   28.56
   3  -3  10  896.67   32.72
   3  -3  10  822.12   43.90
   3  -3  10  888.67   32.62
   3  -3  10  932.19   58.74
  -4   3 -10  75.196   5.591
   4  -3  10  79.663   3.938
   4  -3  10  78.127   5.107
   4  -3  10  73.383   5.126
   4  -3  10  72.819  13.439
  -5   3 -10  4.5438  1.9329
   5  -3  10  8.1000  2.3814
   5  -3  10  7.0626  1.7969
   5  -3  10  -2.868  10.492
  -6   3 -10  0.7439  3.5961
   6  -3  10  3.2833  2.7505
   6  -3  10  7.4884  2.8811
   6  -3  10  18.085  17.288
   6   2 -10  173.74   13.64
   6   2 -10  179.87   13.20
   6   2 -10  186.60   11.00
  -6  -2  10  155.20   13.72
   5   2 -10  6.1628  1.7419
   5   2 -10  4.1520  1.3035
   5   2 -10  6.1622  2.1787
  -5  -2  10  2.7949  2.0311
  -5  -2  10  -8.215  12.574
   4   2 -10  130.76    4.22
   4   2 -10  132.07    8.85
   4   2 -10  133.57    5.07
  -4  -2  10  131.51    4.62
  -4  -2  10  120.66    9.57
  -4  -2  10  135.26   17.12
   3   2 -10  524.47   16.73
   3   2 -10  546.66   17.70
  -3  -2  10  572.63   45.42
  -3  -2  10  556.14   22.99
  -3  -2  10  583.23   19.61
   3   2 -10  536.98   39.21
  -3  -2  10  604.59   48.90
   2   2 -10  438.83   15.61
   2   2 -10  445.98   27.15
  -2  -2  10  474.50   26.44
  -2  -2  10  453.08   25.31
  -2  -2  10  483.17   33.04
  -2  -2  10  458.62   16.62
  -2  -2  10  416.41   17.20
   2   2 -10  506.33   32.59
  -2  -2  10  463.01   34.53
  -2  -2  10  493.87   31.67
   1   2 -10  9.3462  1.1225
   1   2 -10  9.1742  1.4793
  -1  -2  10  8.7713  0.8843
  -1  -2  10  7.1825  1.6235
  -1  -2  10  9.5044  1.2972
  -1  -2  10  9.2808  1.0651
  -1  -2  10  7.2836  1.1837
   1   2 -10  5.3569  3.8841
  -1  -2  10  -2.450   4.052
  -1  -2  10  9.2184  4.4973
   0   2 -10 1127.60   50.43
   0   2 -10 1125.43   36.46
   0  -2  10 1110.79   30.46
   0  -2  10 1162.99   77.22
   0  -2  10 1032.84   25.51
   0  -2  10 1085.76   26.52
   0   2 -10 1101.85   80.74
   0  -2  10 1092.51   81.75
   0  -2  10 1285.04   74.26
  -1   2 -10  40.737   3.178
  -1   2 -10  47.360   2.020
   1  -2  10  39.222   2.758
   1  -2  10  43.711   2.676
   1  -2  10  44.892   2.257
   1  -2  10  44.464   2.458
   1  -2  10  45.792   2.348
   1  -2  10  44.848   2.767
   1  -2  10  43.994   2.257
  -1   2 -10  32.688   6.032
   1  -2  10  31.345   6.424
   1  -2  10  47.774   7.074
  -2   2 -10  62.445   3.623
  -2   2 -10  62.016   3.235
   2  -2  10  62.957   2.506
   2  -2  10  60.396   2.471
   2  -2  10  61.482   2.811
  -2   2 -10  52.690   8.438
   2  -2  10  41.934   8.186
   2  -2  10  55.758   9.215
  -3   2 -10  84.387   4.442
  -3   2 -10  84.593   4.595
   3  -2  10  83.901   5.064
   3  -2  10  80.216   3.691
   3  -2  10  91.649   4.450
  -3   2 -10  63.167   9.807
   3  -2  10  72.718   9.011
   3  -2  10  88.832  13.163
  -4   2 -10  140.62    6.09
   4  -2  10  149.67    7.68
   4  -2  10  141.28    4.89
   4  -2  10  151.19    6.09
   4  -2  10  116.51   13.78
  -5   2 -10  128.72    6.86
   5  -2  10  131.64    5.85
   5  -2  10  125.77    7.31
   5  -2  10  96.965  12.069
  -6   2 -10  167.11    8.90
   6  -2  10  167.13    7.39
   6  -2  10  168.21   11.36
   6  -2  10  171.74   19.56
   6   1 -10  28.959   3.064
   6   1 -10  24.711   3.104
   6   1 -10  23.507   2.666
  -6  -1  10  27.246   3.034
   5   1 -10  10.221   1.597
   5   1 -10  8.0027  1.5167
   5   1 -10  6.9943  1.5331
  -5  -1  10  13.237   2.706
  -5  -1  10  8.6803  1.3720
   4   1 -10  15.880   2.033
   4   1 -10  17.233   1.759
   4   1 -10  12.605   1.835
  -4  -1  10  15.596   1.737
  -4  -1  10  13.495   2.046
   4   1 -10  15.423   7.222
  -4  -1  10  -3.802  10.782
   3   1 -10  17.735   1.617
   3   1 -10  21.585   1.434
   3   1 -10  23.853   1.660
   3   1 -10  24.860   2.100
  -3  -1  10  23.690   1.494
  -3  -1  10  27.420   2.031
  -3  -1  10  23.288   1.591
   3   1 -10  1.9354  6.2572
  -3  -1  10  12.475   8.979
   2   1 -10  378.93   31.96
   2   1 -10  401.60   27.49
   2   1 -10  350.33    9.15
   2   1 -10  358.82   17.16
  -2  -1  10  376.74   22.13
  -2  -1  10  392.30   18.24
  -2  -1  10  392.54   27.79
  -2  -1  10  363.59    9.27
   2   1 -10  340.86   26.42
   2   1 -10  348.31   25.03
  -2  -1  10  395.31   25.21
  -2  -1  10  350.79   24.17
   1   1 -10  28.220   2.045
   1   1 -10  24.945   2.290
   1   1 -10  25.427   1.319
  -1  -1  10  24.459   1.670
  -1  -1  10  23.776   1.248
  -1  -1  10  24.942   1.772
  -1  -1  10  21.522   2.117
  -1  -1  10  24.463   2.043
   1   1 -10  14.157   6.731
   1   1 -10  24.611   5.159
  -1  -1  10  11.146   6.092
  -1  -1  10  23.227   7.387
   0   1 -10  239.70   12.40
   0   1 -10  243.70    7.50
   0  -1  10  243.51    9.41
   0  -1  10  237.52    7.42
   0  -1  10  253.79   11.89
   0  -1  10  224.75    8.94
   0  -1  10  241.79   13.87
   0  -1  10  221.61    6.97
   0   1 -10  254.82   18.63
   0   1 -10  202.39   16.02
   0  -1  10  213.47   15.72
   0  -1  10  246.08   17.84
  -1   1 -10  407.61   15.48
  -1   1 -10  404.04   33.17
  -1   1 -10  397.60   11.05
   1  -1  10  403.50   23.76
   1  -1  10  414.94   13.85
   1  -1  10  410.00   19.57
   1  -1  10  395.19   26.03
   1  -1  10  421.85   16.40
   1  -1  10  392.77   10.69
  -1   1 -10  380.31   46.22
  -1   1 -10  396.49   37.45
   1  -1  10  422.34   22.16
   1  -1  10  424.16   26.50
  -2   1 -10  7.8339  1.6437
  -2   1 -10  5.5569  0.9522
   2  -1  10  4.5802  1.3742
   2  -1  10  4.2182  1.1351
   2  -1  10  4.5670  0.5884
   2  -1  10  5.5229  1.1245
   2  -1  10  4.8621  0.5669
  -2   1 -10  9.3937  4.3082
   2  -1  10  3.7468  3.9055
   2  -1  10  0.2226  4.6047
  -3   1 -10  18.030   1.673
  -3   1 -10  21.956   2.279
   3  -1  10  20.151   1.364
   3  -1  10  22.514   1.792
   3  -1  10  22.982   1.821
   3  -1  10  21.822   1.553
  -3   1 -10  18.031   6.807
   3  -1  10  21.375   9.205
   3  -1  10  21.333   7.994
  -4   1 -10  167.17   16.14
  -4   1 -10  167.22   14.58
  -4   1 -10  175.21    9.20
   4  -1  10  176.62    6.70
   4  -1  10  183.07    9.66
   4  -1  10  174.26   17.43
  -5   1 -10  6.2613  1.9226
   5  -1  10  6.7851  1.2298
   5  -1  10  7.7555  1.3475
   5  -1  10  12.089  10.958
  -6   1 -10  120.32    8.45
   6  -1  10  130.99    8.30
   6  -1  10  100.02   13.05
   6   0 -10  32.063   3.177
   6   0 -10  32.192   3.307
   6   0 -10  31.078   3.503
  -6   0  10  38.927   4.051
   5   0 -10  9.0071  1.6363
   5   0 -10  8.5127  1.6160
   5   0 -10  8.2174  1.9540
  -5   0  10  6.3744  1.7874
  -5   0  10  12.417   1.896
   4   0 -10  220.73   10.45
   4   0 -10  220.37    7.02
   4   0 -10  219.77    7.94
  -4   0  10  229.71   10.27
  -4   0  10  232.82    7.54
  -4   0  10  203.60    9.50
   4   0 -10  176.01   16.68
  -4   0  10  175.99   18.40
   3   0 -10  35.044   2.894
   3   0 -10  32.569   1.908
   3   0 -10  35.914   2.150
   3   0 -10  36.476   1.813
   3   0 -10  34.330   3.109
  -3   0  10  33.743   2.088
  -3   0  10  38.296   2.170
  -3   0  10  31.486   1.899
   3   0 -10  15.543   7.604
   3   0 -10  31.961   8.084
  -3   0  10  27.615   7.743
   2   0 -10  69.509   2.568
   2   0 -10  71.661   3.386
   2   0 -10  77.937   5.884
  -2   0  10  70.471   4.105
  -2   0  10  65.274   2.107
   2   0 -10  82.745  11.505
   2   0 -10  63.078   7.727
  -2   0  10  76.965  11.223
  -2   0  10  53.655   6.959
   1   0 -10  156.00    7.45
   1   0 -10  166.75   13.84
   1   0 -10  155.94    4.96
  -1   0  10  154.53    4.72
  -1   0  10  157.30    7.75
  -1   0  10  171.79   11.21
  -1   0  10  150.04    8.84
  -1   0  10  147.92    4.11
   1   0 -10  158.34   14.53
   1   0 -10  146.55   10.23
  -1   0  10  165.07    9.46
  -1   0  10  170.68   13.78
   0   0 -10  46.608   2.480
   0   0 -10  49.945   2.088
   0   0 -10  44.609   2.796
   0   0  10  47.974   2.228
   0   0  10  46.474   1.806
   0   0  10  43.385   1.971
   0   0  10  47.584   1.722
   0   0  10  42.311   3.364
   0   0  10  42.177   1.622
   0   0 -10  42.565   7.020
   0   0 -10  41.791   6.224
   0   0  10  33.448   5.819
   0   0  10  36.556   7.094
  -1   0 -10  5.5268  0.7919
  -1   0 -10  3.1516  1.2636
   1   0  10  4.1229  0.6948
   1   0  10  2.9835  0.6958
   1   0  10  3.8099  0.9136
   1   0  10  4.6157  0.8391
   1   0  10  4.3256  0.7499
   1   0  10  3.0510  0.9032
  -1   0 -10  4.6403  4.3601
  -1   0 -10  17.158   5.595
   1   0  10  5.7060  4.9956
   1   0  10  5.4849  5.1261
  -2   0 -10  10.964   0.858
  -2   0 -10  13.634   1.289
  -2   0 -10  13.082   1.585
  -2   0 -10  10.645   1.580
   2   0  10  12.004   1.277
   2   0  10  13.950   1.313
   2   0  10  13.086   1.103
   2   0  10  13.723   1.438
  -2   0 -10  6.9369  3.9537
  -2   0 -10  7.7661  3.9791
   2   0  10  5.9908  4.2583
   2   0  10  11.995   5.243
  -3   0 -10  13.525   1.680
  -3   0 -10  13.893   1.354
   3   0  10  13.416   1.538
   3   0  10  13.270   1.368
   3   0  10  14.788   1.213
  -3   0 -10  11.283   5.388
  -3   0 -10  12.281   6.080
   3   0  10  1.5911  5.8614
   3   0  10  18.355   9.430
  -4   0 -10  3.0388  0.7722
  -4   0 -10  3.2953  1.5293
  -4   0 -10  2.5214  0.8703
   4   0  10  2.1800  1.1878
   4   0  10  4.2509  1.0951
   4   0  10  1.2266  0.9214
  -4   0 -10  -1.067   6.536
   4   0  10  2.1836  7.8785
  -5   0 -10  109.25    7.54
  -5   0 -10  110.81    4.52
  -5   0 -10  119.86    6.11
   5   0  10  104.27    4.55
   5   0  10  117.73    9.43
   5   0  10  82.408  12.660
  -6   0 -10 -0.3612  3.0488
   6   0  10  1.4442  1.4590
   6   0  10  2.0722  8.7947
  -7   0 -10  26.235   3.392
   7   0  10  33.831   4.058
   6  -1 -10  6.9463  2.1997
   6  -1 -10  4.0940  2.3222
   6  -1 -10  5.8226  1.9027
  -6   1  10  3.8577  3.0110
  -6   1  10  8.2837  2.1312
   6  -1 -10   1.306  10.128
   5  -1 -10  34.456   3.064
   5  -1 -10  27.957   2.713
   5  -1 -10  32.082   3.289
  -5   1  10  37.951   2.617
  -5   1  10  37.560   3.532
   4  -1 -10  269.00    7.11
   4  -1 -10  264.50   14.04
   4  -1 -10  264.66   12.22
  -4   1  10  291.76   10.96
  -4   1  10  303.74   19.01
  -4   1  10  242.57   15.13
   4  -1 -10  273.25   20.03
   3  -1 -10  281.71   11.90
   3  -1 -10  290.95    7.22
   3  -1 -10  289.44   20.96
   3  -1 -10  280.19    8.72
  -3   1  10  273.24   10.55
  -3   1  10  258.23   13.14
   3  -1 -10  302.97   22.39
   3  -1 -10  276.69   15.08
  -3   1  10  287.83   18.11
   2  -1 -10  39.170   1.951
   2  -1 -10  42.700   2.839
   2  -1 -10  41.994   1.854
   2  -1 -10  42.413   2.109
  -2   1  10  38.210   2.373
  -2   1  10  36.508   2.431
  -2   1  10  34.324   2.534
   2  -1 -10  44.422   7.841
   2  -1 -10  39.345   6.945
  -2   1  10  29.358   7.175
   1  -1 -10  72.996   2.956
   1  -1 -10  69.913   2.733
   1  -1 -10  68.014   1.943
  -1   1  10  65.344   3.267
  -1   1  10  61.569   3.019
  -1   1  10  68.357   2.225
  -1   1  10  68.603   2.672
   1  -1 -10  62.693   7.335
   1  -1 -10  65.309   6.903
  -1   1  10  64.295   8.329
  -1   1  10  54.066   6.995
   0  -1 -10  14.434   0.818
   0  -1 -10  12.954   1.163
   0  -1 -10  12.659   1.403
   0   1  10  12.553   1.328
   0   1  10  12.671   0.798
   0   1  10  14.101   1.677
   0   1  10  11.707   0.798
   0   1  10  13.327   0.911
   0   1  10  12.527   1.323
   0  -1 -10  15.902   5.053
   0  -1 -10  8.5534  3.1574
   0   1  10  4.4328  3.5668
   0   1  10  12.490   5.146
  -1  -1 -10  82.057   4.052
  -1  -1 -10  78.830   4.206
  -1  -1 -10  81.038   5.852
   1   1  10  79.644   2.653
   1   1  10  92.606   5.757
   1   1  10  79.614   3.670
   1   1  10  90.159   4.197
  -1  -1 -10  85.243   7.728
  -1  -1 -10  92.198   9.033
   1   1  10  87.448   9.222
   1   1  10  76.599   7.077
  -2  -1 -10  134.05    4.79
  -2  -1 -10  138.25    7.65
  -2  -1 -10  138.10    8.03
  -2  -1 -10  141.79    6.45
   2   1  10  131.50    4.50
   2   1  10  140.55    5.32
   2   1  10  128.24    4.54
   2   1  10  136.36    5.75
  -2  -1 -10  136.12   15.32
  -2  -1 -10  125.06   11.24
   2   1  10  126.57   12.30
   2   1  10  127.02   10.68
  -3  -1 -10  191.00   10.69
  -3  -1 -10  194.54   12.99
  -3  -1 -10  216.28   16.90
  -3  -1 -10  191.47    5.39
   3   1  10  185.48    7.02
   3   1  10  198.21    6.64
   3   1  10  183.96   16.01
   3   1  10  179.62   14.61
  -3  -1 -10  171.59   16.04
  -3  -1 -10  182.72   13.64
   3   1  10  197.89   14.63
   3   1  10  197.95   18.75
  -4  -1 -10  218.39   17.44
  -4  -1 -10  232.52   21.79
  -4  -1 -10  234.15   11.84
   4   1  10  212.93   11.83
   4   1  10  229.19    9.56
  -4  -1 -10  211.27   20.93
   4   1  10  253.78   16.98
  -5  -1 -10  395.62   14.40
  -5  -1 -10  409.65   18.30
  -5  -1 -10  408.06   16.85
   5   1  10  416.17   16.20
   5   1  10  393.21   24.48
  -5  -1 -10  413.43   34.60
   5   1  10  418.93   30.66
  -6  -1 -10  35.084   2.804
  -6  -1 -10  40.800   3.812
  -6  -1 -10  41.656   4.232
   6   1  10  38.496   3.235
  -7  -1 -10  8.8649  3.4744
   7   1  10  4.6925  2.2755
   6  -2 -10  10.609   2.653
   6  -2 -10  11.883   2.048
   6  -2 -10  17.092   2.989
  -6   2  10  16.861   2.850
  -6   2  10  11.081   2.525
   6  -2 -10  -10.91    9.56
   5  -2 -10  13.267   2.226
   5  -2 -10  16.056   2.407
   5  -2 -10  13.708   2.120
  -5   2  10  20.946   2.883
  -5   2  10  16.895   2.949
   5  -2 -10  14.428   8.933
   4  -2 -10  23.137   2.338
   4  -2 -10  20.233   1.620
   4  -2 -10  22.777   2.517
  -4   2  10  24.321   2.571
  -4   2  10  23.914   2.526
   4  -2 -10  9.2009  7.6798
   3  -2 -10  211.41    5.07
   3  -2 -10  212.10   10.14
   3  -2 -10  196.57    5.35
  -3   2  10  193.03    7.83
  -3   2  10  230.01   13.18
   3  -2 -10  227.20   17.51
   3  -2 -10  222.18   14.41
  -3   2  10  208.34   16.36
   2  -2 -10  402.85   10.54
   2  -2 -10  401.38   10.15
   2  -2 -10  399.94    9.81
  -2   2  10  438.32   17.93
  -2   2  10  412.16   20.67
  -2   2  10  379.18   10.86
   2  -2 -10  441.44   22.53
   2  -2 -10  446.15   21.42
  -2   2  10  461.45   22.07
   1  -2 -10  247.86    7.75
   1  -2 -10  252.73    9.42
   1  -2 -10  249.19    7.26
  -1   2  10  240.09   12.83
  -1   2  10  267.10    6.79
  -1   2  10  237.19    9.92
  -1   2  10  260.72   10.53
   1  -2 -10  272.73   26.15
   1  -2 -10  272.32   15.18
  -1   2  10  250.01   15.14
   0  -2 -10  1.0196  0.3528
   0  -2 -10  2.1748  0.9464
   0   2  10  0.9555  0.3091
   0   2  10  1.9063  0.4853
   0   2  10  1.7362  0.8462
   0   2  10  2.8436  1.0227
   0  -2 -10  2.8193  3.6996
   0  -2 -10  0.7117  2.2110
   0   2  10  0.8488  3.8252
   0   2  10 -0.1848  3.1719
  -1  -2 -10  180.85    6.26
  -1  -2 -10  178.23    7.77
   1   2  10  192.93   10.55
   1   2  10  185.89    9.83
   1   2  10  170.92    5.64
   1   2  10  188.95    4.72
  -1  -2 -10  205.92   18.39
  -1  -2 -10  187.53   13.44
   1   2  10  169.27   16.07
   1   2  10  182.49   10.89
  -2  -2 -10  13.240   1.043
  -2  -2 -10  17.168   1.163
  -2  -2 -10  15.734   1.226
  -2  -2 -10  13.943   1.352
   2   2  10  13.857   1.520
   2   2  10  12.361   1.307
   2   2  10  12.136   1.143
   2   2  10  11.478   1.102
  -2  -2 -10  4.4510  5.4423
  -2  -2 -10  9.6699  3.9095
   2   2  10  10.779   7.540
   2   2  10  8.8553  4.4148
  -3  -2 -10  2.9011  0.8913
  -3  -2 -10  2.5100  0.8254
  -3  -2 -10  2.0561  0.7628
  -3  -2 -10  3.2793  0.6106
  -3  -2 -10  0.9577  1.0551
   3   2  10  3.1936  0.8075
   3   2  10  2.7582  0.9463
  -3  -2 -10  2.2255  5.1489
  -3  -2 -10  -3.242   3.718
   3   2  10 -0.0951  3.7091
  -4  -2 -10  26.341   2.541
  -4  -2 -10  29.099   2.147
  -4  -2 -10  24.779   2.266
  -4  -2 -10  26.261   2.439
  -4  -2 -10  27.327   1.707
   4   2  10  31.257   2.164
   4   2  10  27.992   1.933
  -4  -2 -10  38.344  11.699
  -4  -2 -10  24.257   5.666
   4   2  10  7.6241  5.9697
  -5  -2 -10  1.6037  1.1492
  -5  -2 -10  5.9254  2.4082
  -5  -2 -10  2.6374  1.3671
  -5  -2 -10  3.7664  1.6787
   5   2  10  3.7035  1.3684
   5   2  10  2.7629  1.3555
  -5  -2 -10  5.7716  5.9977
  -6  -2 -10  85.951   5.424
  -6  -2 -10  94.209   5.314
  -6  -2 -10  89.033   5.270
   6   2  10  105.43    6.09
   6   2  10  92.916   6.412
  -6  -2 -10  78.590  18.061
  -7  -2 -10  62.165   4.589
  -7  -2 -10  63.583   4.965
  -7  -2 -10  57.907   5.711
   7   2  10  64.759   5.965
   6  -3 -10  2.8226  2.4062
   6  -3 -10  -3.216   2.601
  -6   3  10  0.5766  2.9217
  -6   3  10  2.6399  2.6251
   6  -3 -10  3.6558  9.9655
   5  -3 -10  20.581   2.670
   5  -3 -10  14.851   1.971
  -5   3  10  19.368   2.087
  -5   3  10  17.060   2.356
   5  -3 -10  10.795   9.870
   4  -3 -10  0.5120  1.2636
   4  -3 -10  1.5875  1.0858
   4  -3 -10  1.1673  1.3972
  -4   3  10  1.1123  0.9153
  -4   3  10  0.7318  1.1008
   4  -3 -10  0.8005  5.2248
   3  -3 -10  43.464   2.735
   3  -3 -10  47.806   1.822
   3  -3 -10  42.264   2.528
  -3   3  10  41.107   2.139
  -3   3  10  50.881   3.151
   3  -3 -10  28.392   9.286
   3  -3 -10  43.801   6.621
   2  -3 -10  4.3888  1.4123
   2  -3 -10  7.1040  1.0113
   2  -3 -10  4.9017  1.5640
  -2   3  10  5.8774  1.2476
  -2   3  10  5.2752  0.9622
  -2   3  10  6.7199  1.3857
   2  -3 -10  1.7291  4.9839
   2  -3 -10  3.5117  4.3367
  -2   3  10  2.6328  5.6025
   1  -3 -10  53.606   2.232
   1  -3 -10  49.757   2.000
   1  -3 -10  49.300   2.276
  -1   3  10  52.387   2.445
  -1   3  10  52.280   2.347
  -1   3  10  44.420   3.162
  -1   3  10  45.627   2.823
   1  -3 -10  45.368   6.772
   1  -3 -10  50.847   7.106
  -1   3  10  40.083   6.739
   0  -3 -10  113.48    4.38
   0  -3 -10  109.95    3.27
   0   3  10  113.24    4.35
   0   3  10  102.99    4.84
   0   3  10  114.19    5.58
   0  -3 -10  88.479   9.242
   0   3  10  93.391   8.452
  -1  -3 -10  377.87   12.12
  -1  -3 -10  397.34   12.54
   1   3  10  408.22   20.15
   1   3  10  364.78    8.73
   1   3  10  391.12   14.36
  -1  -3 -10  379.60   22.38
  -1  -3 -10  367.31   26.00
   1   3  10  389.11   32.91
  -2  -3 -10  963.70   27.70
  -2  -3 -10  896.84   28.72
   2   3  10  899.67   31.80
   2   3  10  903.01   23.71
  -2  -3 -10 1055.09   55.87
  -2  -3 -10  982.50   45.13
   2   3  10 1001.79   57.07
  -3  -3 -10  136.24    5.56
  -3  -3 -10  140.87    5.22
  -3  -3 -10  143.18    5.42
  -3  -3 -10  132.49    5.36
   3   3  10  150.62    6.07
   3   3  10  136.82    7.03
  -3  -3 -10  147.51   11.25
  -3  -3 -10  140.54   10.57
   3   3  10  129.06   10.31
  -4  -3 -10  0.4634  0.8345
  -4  -3 -10  0.8595  1.4091
  -4  -3 -10  0.7816  0.9923
  -4  -3 -10  1.6236  0.6395
  -4  -3 -10  1.9482  0.9973
   4   3  10  2.5171  1.4935
   4   3  10  1.4242  1.0157
  -4  -3 -10  -7.107   5.319
  -4  -3 -10  0.0000  6.7153
   4   3  10  -15.09    7.93
  -5  -3 -10  9.8669  1.8843
  -5  -3 -10  6.2660  1.6228
  -5  -3 -10  9.2266  1.2324
  -5  -3 -10  10.446   1.962
   5   3  10  6.6235  1.4576
   5   3  10  7.7547  1.3876
  -5  -3 -10  -10.07    8.55
  -6  -3 -10  9.6840  2.3388
  -6  -3 -10  13.062   2.382
  -6  -3 -10  8.9266  2.6095
   6   3  10  9.0439  2.1388
   6   3  10  7.3651  2.2938
  -6  -3 -10  -13.27   12.22
  -7  -3 -10 -0.5337  2.4039
  -7  -3 -10  0.5580  1.8243
  -7  -3 -10  2.7926  2.7705
   7   3  10 -0.8381  2.2036
   6  -4 -10  76.631   6.808
   6  -4 -10  81.071   6.466
  -6   4  10  88.199   7.630
  -6   4  10  78.921   6.502
   6  -4 -10  66.857  15.324
   5  -4 -10  57.046   4.463
   5  -4 -10  50.671   4.058
  -5   4  10  64.501   4.847
   5  -4 -10  48.723  11.602
   4  -4 -10  26.360   2.670
   4  -4 -10  24.015   2.355
  -4   4  10  19.817   2.963
  -4   4  10  31.717   2.503
   3  -4 -10  320.30    8.33
   3  -4 -10  313.30    7.40
  -3   4  10  324.10   12.59
  -3   4  10  302.65   22.70
   3  -4 -10  344.24   21.84
   2  -4 -10 1090.74   24.70
   2  -4 -10 1117.51   57.44
  -2   4  10 1181.05   47.14
  -2   4  10 1187.86   43.45
   2  -4 -10 1216.50   71.13
   2  -4 -10 1188.22   78.78
   1  -4 -10  4.9907  1.3991
   1  -4 -10  6.9048  1.4944
  -1   4  10  6.3986  0.7251
  -1   4  10  5.9756  0.8208
  -1   4  10  7.4051  1.3644
  -1   4  10  7.4146  0.5969
   1  -4 -10  9.5285  3.6718
   1  -4 -10  6.4968  4.6488
  -1   4  10  -3.508   4.567
   0  -4 -10  47.420   1.912
   0  -4 -10  44.094   1.840
   0   4  10  42.748   2.555
   0   4  10  45.261   3.780
   0   4  10  44.509   2.182
   0  -4 -10  34.668   5.364
   0  -4 -10  43.732   6.706
   0   4  10  26.048   5.468
  -1  -4 -10  13.393   1.393
  -1  -4 -10  15.058   1.079
  -1  -4 -10  16.330   1.083
   1   4  10  13.044   1.244
   1   4  10  12.794   1.782
   1   4  10  14.281   1.067
  -1  -4 -10  13.606   4.011
  -1  -4 -10  11.133   3.875
   1   4  10  3.0977  4.7297
  -2  -4 -10  24.570   1.569
  -2  -4 -10  27.260   1.668
  -2  -4 -10  27.703   1.921
   2   4  10  27.591   1.389
   2   4  10  28.842   2.004
  -2  -4 -10  29.928   6.291
   2   4  10  16.880   6.324
  -3  -4 -10  1.3913  0.5383
  -3  -4 -10  0.1211  0.8301
  -3  -4 -10  1.5872  1.2256
  -3  -4 -10  1.9986  0.1870
   3   4  10  1.3237  0.8404
   3   4  10  1.9037  1.3188
  -3  -4 -10  5.2680  5.9853
  -3  -4 -10 -0.7101  4.7287
   3   4  10  2.3793  6.1338
  -4  -4 -10  19.651   1.627
  -4  -4 -10  20.363   1.550
  -4  -4 -10  19.044   2.081
   4   4  10  24.191   2.253
   4   4  10  21.474   2.193
  -4  -4 -10  20.735   6.709
  -5  -4 -10  6.8866  1.7143
  -5  -4 -10  9.0687  2.1513
  -5  -4 -10  10.316   2.062
   5   4  10  10.514   1.771
   5   4  10  9.2862  1.7177
  -5  -4 -10  1.8111  8.4407
  -6  -4 -10  2.0432  2.3077
  -6  -4 -10  2.1908  1.8372
  -6  -4 -10  -2.056   2.020
   6   4  10  2.2148  1.5042
   6   4  10  1.6808  1.9873
  -6  -4 -10   6.175  12.208
  -7  -4 -10  2.1652  2.5713
  -7  -4 -10  1.9510  3.2808
  -7  -4 -10  0.7521  2.3715
   7   4  10  0.7031  2.5776
   7   4  10  0.2579  1.7297
  -7  -4 -10  -1.859   9.438
   5  -5 -10  6.6211  1.9931
   5  -5 -10  4.7320  2.0498
  -5   5  10  2.9295  2.6680
   5  -5 -10  10.028  10.740
   4  -5 -10  2.3548  2.2253
   4  -5 -10 -0.3618  1.5005
  -4   5  10 -0.6440  1.9338
   4  -5 -10 -0.0239  8.1996
   3  -5 -10  130.96    5.09
   3  -5 -10  129.30    5.02
  -3   5  10  123.61   11.18
  -3   5  10  128.88    6.10
   3  -5 -10  122.16   13.48
   2  -5 -10  0.3738  1.0575
   2  -5 -10 -0.5524  1.0195
  -2   5  10  0.5102  1.0996
  -2   5  10  -1.156   0.856
   2  -5 -10  -1.359   4.043
   2  -5 -10 -0.9508  3.4934
   1  -5 -10  22.892   1.544
   1  -5 -10  19.495   1.742
  -1   5  10  20.006   1.575
  -1   5  10  22.892   2.119
  -1   5  10  18.433   1.589
   1  -5 -10  27.158   4.901
   1  -5 -10  19.955   4.034
   0  -5 -10  2.5491  0.8731
   0  -5 -10  1.2697  0.8811
   0   5  10  1.2658  0.7893
   0   5  10  1.4931  0.5572
   0   5  10  1.4942  0.3225
   0   5  10  1.9830  0.3340
   0   5  10  2.5321  1.0354
   0  -5 -10  1.3074  3.0262
   0  -5 -10  1.8435  3.7161
   0   5  10  -2.447   4.561
  -1  -5 -10  7.4932  1.2710
  -1  -5 -10  5.4646  1.2784
  -1  -5 -10  6.3956  0.7637
   1   5  10  5.8027  0.8733
   1   5  10  5.1327  1.1180
  -1  -5 -10  3.3636  3.6651
  -1  -5 -10  8.2744  4.4409
   1   5  10  0.1375  4.2672
  -2  -5 -10  461.05   17.94
  -2  -5 -10  475.54   18.41
  -2  -5 -10  463.92   16.10
   2   5  10  466.40   16.61
   2   5  10  464.79   22.88
   2   5  10  457.36   26.06
  -2  -5 -10  515.02   25.65
  -2  -5 -10  493.94   24.56
  -3  -5 -10  76.931   3.375
  -3  -5 -10  78.420   4.162
  -3  -5 -10  84.621   4.005
   3   5  10  74.892   3.464
   3   5  10  87.920   4.289
  -3  -5 -10  85.825   9.390
  -3  -5 -10  79.318   9.687
  -4  -5 -10  90.745   6.973
  -4  -5 -10  92.889   4.849
  -4  -5 -10  96.708   4.653
  -4  -5 -10  92.850   5.979
   4   5  10  91.619   4.615
   4   5  10  96.087   5.693
  -4  -5 -10  83.434  10.447
  -5  -5 -10  6.8387  2.0865
  -5  -5 -10  6.4850  1.5687
   5   5  10  8.0208  1.8385
   5   5  10  8.5243  1.6269
  -5  -5 -10  2.8224  6.1429
  -6  -5 -10  76.694   7.668
  -6  -5 -10  80.258   8.278
   6   5  10  91.082   5.850
   6   5  10  71.240   6.243
  -6  -5 -10  58.502  15.515
   5  -6 -10  6.6596  2.9656
   5  -6 -10  5.9633  3.1371
  -5   6  10  3.8075  2.2902
   5  -6 -10   4.041  11.185
   4  -6 -10  276.94   12.76
   4  -6 -10  274.41   14.01
  -4   6  10  313.19   19.22
   4  -6 -10  309.49   26.96
   3  -6 -10  85.471   4.137
   3  -6 -10  92.393   4.875
  -3   6  10  101.92    6.17
  -3   6  10  94.503   6.408
   3  -6 -10  100.39    8.86
   2  -6 -10  19.993   2.298
   2  -6 -10  24.109   2.822
  -2   6  10  24.935   2.503
  -2   6  10  25.647   2.371
   2  -6 -10  21.659   4.356
   2  -6 -10  18.698   6.118
   1  -6 -10  520.53   15.60
   1  -6 -10  522.80   15.53
  -1   6  10  503.75   21.74
   1  -6 -10  564.50   34.64
   1  -6 -10  607.19   31.43
   0  -6 -10  49.583   2.567
   0  -6 -10  52.912   2.756
   0   6  10  49.701   2.946
   0   6  10  46.889   2.464
   0  -6 -10  58.448   6.133
   0  -6 -10  44.420   6.439
  -1  -6 -10  48.060   3.299
  -1  -6 -10  53.832   2.762
  -1  -6 -10  51.724   2.374
   1   6  10  53.665   3.166
  -1  -6 -10  60.802   6.570
  -1  -6 -10  52.386   5.697
  -2  -6 -10 1536.58   72.78
  -2  -6 -10 1363.21   86.88
  -3  -6 -10  194.25   12.65
  -3  -6 -10  186.06   10.00
  -3  -6 -10  199.93    7.94
   3   6  10  203.45    9.07
  -3  -6 -10  199.01   19.37
  -4  -6 -10  -1.503   1.190
  -4  -6 -10  0.9090  1.2808
   4   6  10  0.0311  1.9778
  -4  -6 -10  11.825   8.050
  -5  -6 -10  -1.732   1.867
  -5  -6 -10  1.5560  1.9641
   5   6  10  1.3216  1.3322
   5   6  10  2.0545  2.0721
  -5  -6 -10  2.8143  6.6800
  -6  -6 -10  10.642   2.243
  -6  -6 -10  13.211   2.536
   6   6  10  9.9615  2.8758
   6   6  10  9.3375  2.3857
  -6  -6 -10   5.334  10.322
   4  -7 -10  21.997   3.275
  -4   7  10  22.719   3.605
   4  -7 -10  24.241   8.949
   3  -7 -10  4.3801  1.6500
   3  -7 -10  3.0216  2.1273
  -3   7  10  7.7543  1.8683
   3  -7 -10  1.6385  6.3131
   2  -7 -10  7.0694  1.7347
   2  -7 -10  7.4539  1.6760
  -2   7  10  9.8772  1.5954
  -2   7  10  7.0097  1.2711
   2  -7 -10  5.0985  5.1297
   1  -7 -10  12.561   1.972
   1  -7 -10  8.8214  1.5210
  -1   7  10  9.3978  2.0967
  -1   7  10  12.089   1.907
   1  -7 -10  15.387   4.577
   1  -7 -10  11.887   5.027
   0  -7 -10  72.195   3.453
   0  -7 -10  72.724   3.592
   0   7  10  75.793   3.728
   0  -7 -10  80.735   6.535
   0  -7 -10  60.673   6.434
  -1  -7 -10  30.636   1.856
  -1  -7 -10  28.250   2.491
  -1  -7 -10  29.216   2.059
   1   7  10  32.591   2.252
  -1  -7 -10  27.950   4.896
  -1  -7 -10  25.758   4.898
  -2  -7 -10  2.4960  1.0890
  -2  -7 -10  3.1381  0.9243
  -2  -7 -10  2.1829  1.1308
   2   7  10  2.5129  1.3466
  -2  -7 -10 -0.1317  2.8564
  -2  -7 -10  0.9237  3.6223
  -3  -7 -10  508.67   28.66
   3   7  10  502.13   20.96
  -3  -7 -10  552.58   48.67
  -4  -7 -10  118.95    6.28
  -4  -7 -10  111.89    6.22
   4   7  10  122.80    7.10
  -4  -7 -10  121.35   10.82
  -5  -7 -10  39.963   3.941
  -5  -7 -10  36.580   3.113
   5   7  10  40.529   4.256
  -5  -7 -10  16.011   7.304
  -6  -7 -10  291.25   21.79
  -6  -7 -10  294.38   22.75
   6   7  10  288.08   20.91
   6   7  10  297.33   23.69
  -6  -7 -10  345.95   27.95
   3  -8 -10  113.43    6.88
   3  -8 -10  115.65    7.00
  -3   8  10  130.48    9.87
   3  -8 -10  122.02   11.34
   2  -8 -10  228.93    9.30
   2  -8 -10  234.01   11.12
  -2   8  10  228.71   12.39
  -2   8  10  228.10   14.51
   2  -8 -10  249.53   21.71
   2  -8 -10  249.49   16.08
   1  -8 -10  253.36    7.88
   1  -8 -10  238.53    9.42
  -1   8  10  237.58   10.68
  -1   8  10  244.20   11.89
   1  -8 -10  260.07   20.82
   0  -8 -10 -0.9059  1.3862
   0  -8 -10  -1.645   1.645
   0   8  10  1.3905  1.3176
   0  -8 -10  4.6944  2.7361
   0  -8 -10  4.1346  2.9832
  -1  -8 -10  96.944   5.262
  -1  -8 -10  96.380   4.564
  -1  -8 -10  79.906   6.098
   1   8  10  90.951   5.375
  -1  -8 -10  86.954   8.087
  -1  -8 -10  94.114   9.762
  -2  -8 -10  14.129   2.110
  -2  -8 -10  17.498   1.743
   2   8  10  14.979   2.667
  -2  -8 -10  7.7779  5.1991
  -2  -8 -10  11.213   5.742
  -3  -8 -10  510.02   23.56
   3   8  10  544.03   26.06
  -3  -8 -10  536.68   60.47
  -4  -8 -10  7.2627  2.5177
   4   8  10  10.295   2.405
  -4  -8 -10  14.284   7.667
  -5  -8 -10  5.1649  1.9930
  -5  -8 -10  5.4871  3.0217
   5   8  10  5.0708  1.9894
  -5  -8 -10  8.3405  9.3506
   2  -9 -10  1.2014  1.9052
  -2   9  10  3.1952  1.6213
   1  -9 -10  61.921   4.623
  -1   9  10  63.686   4.178
  -1   9  10  63.826   4.791
   0  -9 -10  3.0317  1.7738
   0   9  10  2.4170  2.2905
   0   9  10  2.5049  1.5386
  -1  -9 -10  10.219   1.976
   1   9  10  7.6927  2.2221
  -1  -9 -10  4.6301  1.9542
  -2  -9 -10  57.475   3.919
   2   9  10  59.645   4.673
  -2  -9 -10  65.270   6.284
  -2  -9 -10  60.074   4.933
  -3  -9 -10  80.963   6.539
   3   9  10  89.118   7.474
  -3  -9 -10  81.912   9.384
  -4  -9 -10  14.225   2.640
   4   9  10  23.368   3.871
  -4  -9 -10  13.704   7.906
   0 -10 -10 -0.9076  2.3253
   0  10  10  0.3144  2.2441
   0  10  10  1.9602  2.3112
   1  10  10  2.3257  1.7831
   1  10  10  0.8060  1.5456
  -2 -10 -10  50.346   4.503
   2  10  10  60.719   6.422
  -3 -10 -10  135.64   15.53
   3   7 -11  1.8767  1.7536
   3   7 -11 -0.4015  1.8789
  -3  -7  11  2.3474  2.4385
  -3  -7  11  -10.28   16.96
   2   7 -11  70.073   5.198
   2   7 -11  73.183   5.347
  -2  -7  11  72.090   5.553
  -2  -7  11  64.051  16.759
   1   7 -11  2.5170  2.9534
   1   7 -11  2.7813  1.9142
  -1  -7  11  5.2154  2.9585
  -1  -7  11  12.164  12.315
   0   7 -11  3.7880  2.5588
   0  -7  11  2.6792  1.8835
   0  -7  11  2.3636  2.0161
   0  -7  11  10.921  11.917
  -1   7 -11  123.55    8.57
   1  -7  11  129.61    7.68
   1  -7  11  135.21    9.35
   1  -7  11  110.87   16.98
  -2   7 -11  73.619   4.636
   2  -7  11  70.095   6.048
   2  -7  11  74.633   6.735
   2  -7  11  77.491  15.101
   4   6 -11 -0.5791  2.5453
  -4  -6  11  -7.278  11.791
   3   6 -11  67.301   5.395
   3   6 -11  60.581   4.771
  -3  -6  11  63.620   6.140
  -3  -6  11  54.364  10.887
   2   6 -11  175.96   11.60
   2   6 -11  191.60    7.91
  -2  -6  11  186.29   11.78
  -2  -6  11  213.20   22.03
   1   6 -11  5.3557  1.4168
   1   6 -11  6.9013  1.9831
  -1  -6  11  4.1521  2.5380
  -1  -6  11  24.666  12.208
   0   6 -11  1.7488  1.5829
   0  -6  11  0.4321  1.7089
   0  -6  11  0.9534  2.4598
   0  -6  11  -9.776   9.405
  -1   6 -11  205.67    9.04
   1  -6  11  211.93   10.61
   1  -6  11  205.11   13.21
   1  -6  11  205.24   22.73
  -2   6 -11  10.024   1.795
   2  -6  11  9.0328  2.6535
   2  -6  11  10.699   2.396
   2  -6  11  7.4506  9.3017
  -3   6 -11  85.745  11.997
  -3   6 -11  98.346   6.474
   3  -6  11  86.664   7.289
   3  -6  11  93.054   7.405
   3  -6  11  89.827  17.914
   5   5 -11  4.6269  2.9965
  -5  -5  11  6.6730  2.8851
  -5  -5  11  5.5306  2.1675
  -5  -5  11  14.005  16.728
   4   5 -11  192.13   12.65
   4   5 -11  176.92    9.89
  -4  -5  11  178.94   10.62
  -4  -5  11  176.23   10.23
  -4  -5  11  147.29   22.42
   3   5 -11  17.154   1.978
   3   5 -11  16.812   2.612
  -3  -5  11  12.665   2.075
  -3  -5  11  15.898   1.628
  -3  -5  11  18.843   3.075
  -3  -5  11  -9.110  12.467
   2   5 -11  19.386   2.379
   2   5 -11  20.167   2.287
  -2  -5  11  19.700   2.561
  -2  -5  11  15.355   1.545
  -2  -5  11  18.408   1.645
  -2  -5  11  24.463   9.058
   1   5 -11  334.53   17.37
   1   5 -11  306.97   13.56
  -1  -5  11  337.13   13.11
  -1  -5  11  354.67   12.72
  -1  -5  11  370.51   26.02
   0   5 -11  319.34   15.77
   0  -5  11  297.56   16.90
   0  -5  11  306.13   12.77
   0  -5  11  351.77   27.01
  -1   5 -11  109.53    6.49
   1  -5  11  97.901   6.074
   1  -5  11  110.31    6.71
   1  -5  11  115.43   13.12
  -2   5 -11  445.61   17.56
  -2   5 -11  427.90   24.60
   2  -5  11  455.19   25.22
   2  -5  11  430.22   21.01
   2  -5  11  527.12   41.48
  -3   5 -11  97.496   6.343
  -3   5 -11  108.18    8.34
   3  -5  11  93.981   6.011
   3  -5  11  93.558   7.512
   3  -5  11  95.804  13.384
  -4   5 -11  38.824   3.996
  -4   5 -11  37.419   4.768
   4  -5  11  47.040   4.448
   4  -5  11  44.395   4.686
   4  -5  11   8.626  13.713
   5   4 -11  69.005   5.569
   5   4 -11  74.321   7.210
   5   4 -11  72.089   6.545
  -5  -4  11  76.908   4.477
  -5  -4  11  62.009  21.660
   4   4 -11  299.17   14.40
   4   4 -11  289.93   16.58
  -4  -4  11  295.11   19.83
  -4  -4  11  262.70   25.09
   3   4 -11  238.79    9.59
   3   4 -11  235.30   11.98
  -3  -4  11  239.95   17.58
  -3  -4  11  264.63    9.65
  -3  -4  11  262.29   23.69
   2   4 -11  0.5073  1.1291
   2   4 -11  0.2508  1.1342
  -2  -4  11  0.0924  0.8792
  -2  -4  11  1.4174  1.8908
  -2  -4  11  -11.37    9.04
   1   4 -11  257.29   10.28
   1   4 -11  239.87   10.58
  -1  -4  11  262.78   14.10
  -1  -4  11  249.01   14.42
  -1  -4  11  235.66    9.89
  -1  -4  11  245.67   13.65
  -1  -4  11  250.18   22.07
   0   4 -11  4.5306  1.6337
   0   4 -11  3.1937  1.1550
   0  -4  11  3.6498  1.1399
   0  -4  11  2.6382  1.2011
   0  -4  11  8.4697  7.8678
  -1   4 -11  6.6362  0.9918
   1  -4  11  7.8973  1.2924
   1  -4  11  5.2696  1.6993
   1  -4  11  7.7473  5.3577
  -2   4 -11  6.4325  1.3109
  -2   4 -11  7.5729  1.0897
   2  -4  11  8.4607  1.6823
   2  -4  11  9.0177  2.0263
   2  -4  11  8.3924  8.0899
  -3   4 -11  2.0261  1.8432
  -3   4 -11  2.6135  2.3073
   3  -4  11  1.1113  1.2433
   3  -4  11  2.8667  1.2630
   3  -4  11  -8.641   9.230
  -4   4 -11  48.720   3.950
  -4   4 -11  40.339   4.118
   4  -4  11  47.905   3.979
   4  -4  11  43.386   4.292
   4  -4  11  33.177  12.238
  -5   4 -11  89.932   7.460
  -5   4 -11  109.74    7.99
   5  -4  11  98.391   6.691
   5  -4  11  107.65    7.33
   5  -4  11  91.913  18.614
   5   3 -11 -0.9395  1.1279
   5   3 -11 -0.1626  1.2669
   5   3 -11  2.0507  1.7945
  -5  -3  11  -1.066   2.254
  -5  -3  11  -4.372  10.700
   4   3 -11 -0.3458  1.1919
   4   3 -11 -0.3298  1.0889
  -4  -3  11  1.1251  1.7210
  -4  -3  11  -2.137   8.993
   3   3 -11  62.197   3.321
   3   3 -11  60.652   3.954
  -3  -3  11  63.579   4.699
  -3  -3  11  65.917   3.556
  -3  -3  11  44.117  12.384
   2   3 -11  0.1952  1.4035
   2   3 -11 -0.4056  0.9115
  -2  -3  11  0.1232  0.9255
  -2  -3  11  -1.163   0.862
  -2  -3  11 -0.1600  0.4153
  -2  -3  11  1.9486  7.6779
   1   3 -11  147.04    7.85
   1   3 -11  138.70    5.75
  -1  -3  11  145.91    5.88
  -1  -3  11  144.69    8.05
  -1  -3  11  141.06    5.62
  -1  -3  11  134.00    8.63
  -1  -3  11  131.13   10.16
  -1  -3  11  125.10   15.25
  -1  -3  11  153.11   13.50
   0   3 -11  256.75   12.01
   0   3 -11  239.22    7.65
   0  -3  11  227.78    8.51
   0  -3  11  262.21    8.93
   0  -3  11  271.91    9.80
   0  -3  11  259.23   17.27
   0  -3  11  246.62    8.83
   0   3 -11  198.58   19.69
   0  -3  11  257.04   17.75
   0  -3  11  244.78   18.80
  -1   3 -11  6.5139  1.4697
  -1   3 -11  7.2626  1.5844
   1  -3  11  5.0920  1.4988
   1  -3  11  6.7269  1.6405
   1  -3  11  5.4867  1.0620
   1  -3  11  -3.626   6.907
   1  -3  11  4.3654  5.3975
  -2   3 -11  15.191   1.639
  -2   3 -11  23.339   2.028
   2  -3  11  18.744   2.036
   2  -3  11  18.185   2.272
   2  -3  11  18.338   1.681
   2  -3  11  11.461   7.530
  -3   3 -11  253.40   12.77
  -3   3 -11  286.99    9.62
   3  -3  11  262.13   18.04
   3  -3  11  254.88    9.88
   3  -3  11  249.46   10.52
   3  -3  11  254.62   21.26
  -4   3 -11  32.253   3.148
  -4   3 -11  31.653   2.318
   4  -3  11  27.398   2.407
   4  -3  11  29.639   2.629
   4  -3  11  28.050   2.533
   4  -3  11  3.1701  9.3395
  -5   3 -11  108.52    8.09
   5  -3  11  120.67    8.21
   5  -3  11  122.88    7.68
   5  -3  11  93.642  18.264
   6   2 -11  -2.117   2.372
   6   2 -11  1.3554  1.7644
   6   2 -11  1.1022  1.4998
  -6  -2  11  1.2203  2.6969
   5   2 -11  31.492   2.883
   5   2 -11  31.563   3.262
   5   2 -11  33.051   3.619
  -5  -2  11  31.762   3.628
   4   2 -11  9.8757  1.4445
   4   2 -11  8.3007  1.6791
   4   2 -11  10.711   1.966
  -4  -2  11  9.2217  2.0187
  -4  -2  11   5.400  10.332
   3   2 -11  3.1908  0.9808
   3   2 -11  5.8352  1.2862
  -3  -2  11  2.7416  0.9764
  -3  -2  11  3.1196  1.3049
  -3  -2  11  5.0190  0.8790
   3   2 -11  1.9695  5.7725
  -3  -2  11  -5.823   6.196
   2   2 -11  14.571   1.261
   2   2 -11  13.656   1.534
  -2  -2  11  15.283   1.431
  -2  -2  11  13.178   1.806
  -2  -2  11  9.6635  1.4828
  -2  -2  11  14.008   1.362
  -2  -2  11  14.029   1.043
   2   2 -11  5.2119  4.7881
  -2  -2  11  2.9410  8.5874
  -2  -2  11  5.3442  5.2268
   1   2 -11  228.75   12.49
   1   2 -11  219.18    6.28
  -1  -2  11  225.11    6.47
  -1  -2  11  203.50    8.20
  -1  -2  11  230.48    8.82
  -1  -2  11  208.30   13.10
  -1  -2  11  218.11   11.29
   1   2 -11  216.23   14.43
  -1  -2  11  252.48   15.86
  -1  -2  11  233.92   21.00
   0   2 -11  258.45    9.70
   0   2 -11  255.90    9.18
   0  -2  11  228.23   12.79
   0  -2  11  258.49    7.91
   0  -2  11  256.80   15.21
   0  -2  11  263.53    8.14
   0  -2  11  257.36    7.49
   0  -2  11  247.98    8.19
   0   2 -11  231.75   17.94
   0  -2  11  249.00   17.16
   0  -2  11  249.60   16.02
  -1   2 -11  165.21    5.94
  -1   2 -11  177.52    7.47
  -1   2 -11  162.36    7.85
   1  -2  11  182.70    9.92
   1  -2  11  169.61    7.31
   1  -2  11  173.23   10.82
   1  -2  11  186.25    7.47
   1  -2  11  173.42   10.06
   1  -2  11  182.76    5.71
  -1   2 -11  150.61   12.44
   1  -2  11  157.16   11.87
   1  -2  11  161.23   14.34
  -2   2 -11  29.519   1.690
  -2   2 -11  26.455   2.139
   2  -2  11  29.174   1.911
   2  -2  11  30.562   1.955
   2  -2  11  32.211   2.496
  -2   2 -11  18.278   5.390
   2  -2  11  7.6728  5.9885
   2  -2  11  32.577   9.993
  -3   2 -11  27.468   2.441
  -3   2 -11  35.530   2.107
   3  -2  11  33.495   2.559
   3  -2  11  30.859   2.178
   3  -2  11  31.690   2.596
   3  -2  11  29.003   7.184
  -4   2 -11  99.894   5.165
   4  -2  11  101.97    5.83
   4  -2  11  104.94    6.23
   4  -2  11  104.77    6.86
   4  -2  11  76.122  12.858
  -5   2 -11  1.4803  2.1285
   5  -2  11  2.5732  2.0431
   5  -2  11  3.5197  1.6302
   5  -2  11  -3.931  12.117
  -6   2 -11  35.410   4.464
   6  -2  11  35.612   3.704
   6  -2  11  34.728   3.722
   6  -2  11  13.882  19.006
   6   1 -11  18.042   2.274
   6   1 -11  16.988   2.918
   6   1 -11  20.969   3.082
  -6  -1  11  19.840   2.735
   5   1 -11  14.493   2.082
   5   1 -11  15.274   2.206
   5   1 -11  15.853   2.061
  -5  -1  11  11.492   2.371
   4   1 -11  19.409   2.189
   4   1 -11  21.263   2.157
   4   1 -11  15.049   1.935
  -4  -1  11  20.006   2.103
  -4  -1  11  22.330   2.470
   4   1 -11  19.673   9.242
  -4  -1  11  -1.932   9.731
   3   1 -11  7.2169  1.4209
   3   1 -11  11.800   1.647
  -3  -1  11  7.5083  1.2497
  -3  -1  11  6.8850  1.6408
  -3  -1  11  9.3558  1.1147
  -3  -1  11  5.6463  1.0826
   3   1 -11  2.2815  5.3983
  -3  -1  11  3.8062  6.4460
   2   1 -11  17.739   1.450
   2   1 -11  19.055   1.487
   2   1 -11  16.851   1.972
  -2  -1  11  19.218   2.046
  -2  -1  11  14.317   1.187
  -2  -1  11  16.050   1.896
  -2  -1  11  20.871   1.383
   2   1 -11  12.814   6.103
  -2  -1  11  8.9521  6.8268
  -2  -1  11  11.370   7.565
   1   1 -11  10.787   1.231
   1   1 -11  10.575   1.393
  -1  -1  11  12.117   1.268
  -1  -1  11  11.005   1.929
  -1  -1  11  12.757   1.250
  -1  -1  11  11.308   1.443
   1   1 -11 -0.0194  5.0510
   1   1 -11  12.090   5.692
  -1  -1  11  3.8180  7.0640
  -1  -1  11  -2.360   6.800
   0   1 -11  28.514   1.854
   0   1 -11  26.147   2.016
   0  -1  11  27.395   1.915
   0  -1  11  26.552   1.166
   0  -1  11  27.981   2.335
   0  -1  11  28.246   2.146
   0  -1  11  25.358   1.894
   0  -1  11  23.581   2.120
   0   1 -11  25.183   7.258
   0   1 -11  17.822   6.158
   0  -1  11  19.759   7.145
   0  -1  11  23.113   6.917
  -1   1 -11  279.94   12.69
  -1   1 -11  277.50   10.70
  -1   1 -11  270.49   11.52
   1  -1  11  295.62    7.36
   1  -1  11  271.92    7.84
   1  -1  11  289.51   17.13
   1  -1  11  246.84    9.09
   1  -1  11  282.10   19.33
  -1   1 -11  244.74   23.84
   1  -1  11  262.76   19.74
   1  -1  11  287.63   22.55
  -2   1 -11  147.02    6.41
  -2   1 -11  141.05    5.36
   2  -1  11  153.62    5.43
   2  -1  11  147.85    6.93
   2  -1  11  139.52   13.13
   2  -1  11  140.87   11.82
   2  -1  11  152.18    5.99
  -2   1 -11  100.78   15.70
   2  -1  11  138.11   13.77
   2  -1  11  150.21   12.31
  -3   1 -11  78.800   5.717
  -3   1 -11  88.071   4.956
  -3   1 -11  83.422   5.023
   3  -1  11  80.683   3.730
   3  -1  11  95.969   5.426
   3  -1  11  76.351   6.295
   3  -1  11  84.071   3.872
  -3   1 -11  72.431  11.295
   3  -1  11  66.834   9.302
  -4   1 -11  201.14    8.44
   4  -1  11  214.98   11.06
   4  -1  11  192.94    7.21
   4  -1  11  205.07    8.77
   4  -1  11  195.50   17.63
  -5   1 -11  48.616   4.663
   5  -1  11  52.869   4.109
   5  -1  11  49.717   6.073
   5  -1  11  44.020  14.028
  -6   1 -11  3.8094  2.2581
   6  -1  11  0.5203  1.6873
   6  -1  11  -5.850  11.658
   6   0 -11  13.849   2.821
   6   0 -11  18.202   3.162
   6   0 -11  24.876   3.146
  -6   0  11  19.819   3.738
   5   0 -11  82.224   4.523
   5   0 -11  77.018   5.798
   5   0 -11  80.925   4.737
  -5   0  11  85.152   6.816
  -5   0  11  76.508   4.748
   5   0 -11  64.017  12.236
   4   0 -11  43.484   3.070
   4   0 -11  42.663   2.404
   4   0 -11  39.283   2.951
  -4   0  11  42.462   3.042
  -4   0  11  40.092   2.560
  -4   0  11  44.453   2.961
   4   0 -11  24.352   7.769
   3   0 -11  301.56   18.71
   3   0 -11  311.56   10.91
   3   0 -11  293.35    9.20
   3   0 -11  303.68   19.05
   3   0 -11  311.65   20.38
  -3   0  11  286.28   14.84
  -3   0  11  281.63   11.08
  -3   0  11  303.94    6.83
   3   0 -11  353.07   17.59
  -3   0  11  280.43   13.91
   2   0 -11  454.90   24.82
   2   0 -11  444.99   10.41
   2   0 -11  435.65   13.57
  -2   0  11  425.55   20.93
  -2   0  11  439.67   12.87
   2   0 -11  482.85   41.01
   2   0 -11  453.33   36.23
  -2   0  11  399.42   32.41
  -2   0  11  452.14   19.87
   1   0 -11  66.676   4.038
   1   0 -11  58.953   1.981
   1   0 -11  63.131   2.387
  -1   0  11  67.966   3.443
  -1   0  11  61.006   5.513
  -1   0  11  49.281   4.221
  -1   0  11  64.108   3.411
  -1   0  11  57.719   2.509
   1   0 -11  52.000   8.798
   1   0 -11  53.551   7.769
  -1   0  11  60.638   8.775
  -1   0  11  59.416   8.502
   0   0 -11  12.762   1.226
   0   0 -11  11.810   1.202
   0   0 -11  11.240   0.994
   0   0  11  10.497   0.958
   0   0  11  12.088   1.376
   0   0  11  12.688   1.525
   0   0  11  11.084   1.011
   0   0  11  11.963   1.650
   0   0  11  10.467   1.139
   0   0 -11  14.479   4.783
   0   0 -11  6.6448  3.9609
   0   0  11  8.9409  3.9176
   0   0  11  9.6997  4.5691
  -1   0 -11  92.237   3.861
  -1   0 -11  93.992   6.513
   1   0  11  92.584   3.225
   1   0  11  99.826   4.693
   1   0  11  97.368   3.057
   1   0  11  83.452   3.005
   1   0  11  86.633   3.571
  -1   0 -11  91.437  13.190
  -1   0 -11  71.804   7.830
   1   0  11  61.996   7.918
   1   0  11  76.681  11.464
  -2   0 -11  85.369   3.367
  -2   0 -11  75.307   3.887
  -2   0 -11  83.490   6.501
   2   0  11  72.513   3.131
   2   0  11  77.929   5.795
   2   0  11  69.821   3.463
   2   0  11  80.438   4.043
   2   0  11  82.464   5.098
  -2   0 -11  47.928   9.556
   2   0  11  38.966   8.891
  -3   0 -11  1.0687  0.6037
  -3   0 -11  2.3154  1.8788
  -3   0 -11  3.0482  0.8919
   3   0  11  4.0692  0.9406
   3   0  11  1.8488  0.8877
   3   0  11  2.6183  1.3336
  -3   0 -11  3.7750  6.0391
   3   0  11  4.9818  6.3704
  -4   0 -11  323.35   33.51
  -4   0 -11  351.32   14.11
  -4   0 -11  343.37   28.54
   4   0  11  344.38   19.92
   4   0  11  330.05   13.18
  -4   0 -11  371.16   23.99
   4   0  11  380.49   36.07
  -5   0 -11  18.361   2.407
   5   0  11  22.389   2.502
   5   0  11  23.153   2.282
   5   0  11  17.619   9.389
  -6   0 -11  30.763   3.377
   6   0  11  34.570   3.666
   6  -1 -11  88.441   7.670
   6  -1 -11  100.65    6.96
   6  -1 -11  101.85    7.45
  -6   1  11  90.469   9.628
  -6   1  11  108.61    5.73
   6  -1 -11  77.957  13.792
   5  -1 -11  0.0164  1.3421
   5  -1 -11  2.1830  1.2159
   5  -1 -11  4.5932  2.0316
  -5   1  11  4.1225  2.1381
  -5   1  11 -0.7160  2.2214
   4  -1 -11  2.7070  1.7851
   4  -1 -11  1.2225  1.4726
   4  -1 -11  6.3624  1.6445
  -4   1  11  1.9693  1.8337
  -4   1  11  3.7643  1.4361
  -4   1  11  2.9963  1.8561
   4  -1 -11  0.8567  8.1151
   3  -1 -11  2.5595  1.3968
   3  -1 -11  1.1869  0.4668
   3  -1 -11  1.4109  1.3657
   3  -1 -11  0.7443  1.0548
  -3   1  11  1.3116  1.1926
  -3   1  11  0.4560  1.0593
   3  -1 -11  16.406   9.021
   3  -1 -11  -4.745   6.437
  -3   1  11  -12.79    7.70
   2  -1 -11  43.354   3.105
   2  -1 -11  44.284   1.716
   2  -1 -11  47.185   2.433
  -2   1  11  42.274   1.919
  -2   1  11  46.589   3.495
   2  -1 -11  33.917   6.727
   2  -1 -11  35.343   6.237
  -2   1  11  26.233   5.901
   1  -1 -11  123.05    6.63
   1  -1 -11  116.83    4.02
   1  -1 -11  118.07    2.99
  -1   1  11  114.29    7.71
  -1   1  11  115.21    4.51
  -1   1  11  115.74    5.16
  -1   1  11  111.67    3.65
   1  -1 -11  108.06   11.23
   1  -1 -11  114.92   10.89
  -1   1  11  98.250  11.182
  -1   1  11  111.89   13.45
   0  -1 -11  325.56    9.76
   0  -1 -11  348.52   16.31
   0  -1 -11  328.44    8.94
   0   1  11  320.80   12.25
   0   1  11  321.30   12.71
   0   1  11  344.89    9.96
   0   1  11  349.28   12.74
   0   1  11  332.18   16.44
   0  -1 -11  323.69   23.04
   0  -1 -11  317.86   21.24
   0   1  11  299.05   22.42
   0   1  11  291.91   21.00
  -1  -1 -11  795.78   33.79
  -1  -1 -11  798.08   26.50
   1   1  11  763.10   34.55
   1   1  11  759.67   16.92
   1   1  11  843.29   21.63
   1   1  11  886.78   42.05
  -1  -1 -11  896.42   50.60
  -1  -1 -11  848.99   68.90
   1   1  11  877.83   67.79
   1   1  11  871.91   48.55
  -2  -1 -11  84.353   3.144
  -2  -1 -11  88.023   6.721
  -2  -1 -11  88.282   6.901
  -2  -1 -11  79.279   4.943
   2   1  11  90.330   4.177
   2   1  11  88.744   6.311
   2   1  11  91.092   7.835
   2   1  11  79.977   2.684
  -2  -1 -11  82.958   8.976
  -2  -1 -11  68.361   7.708
   2   1  11  74.214  10.581
   2   1  11  76.736   8.190
  -3  -1 -11  11.099   0.856
  -3  -1 -11  10.440   1.656
  -3  -1 -11  7.1503  1.4883
  -3  -1 -11  10.860   1.196
  -3  -1 -11  8.0677  0.8911
   3   1  11  8.9589  1.2097
   3   1  11  8.7920  1.6146
   3   1  11  6.8211  1.4067
   3   1  11  10.362   1.590
  -3  -1 -11  10.679   5.793
  -3  -1 -11  8.4098  6.4829
   3   1  11  7.7049  7.4341
  -4  -1 -11  21.599   2.434
  -4  -1 -11  23.072   1.806
  -4  -1 -11  20.648   2.166
  -4  -1 -11  22.639   2.160
   4   1  11  26.309   2.322
   4   1  11  21.383   1.974
  -4  -1 -11  11.501   9.151
   4   1  11  19.535   9.552
  -5  -1 -11  30.852   2.809
  -5  -1 -11  33.184   3.809
  -5  -1 -11  32.059   2.647
   5   1  11  31.632   2.527
   5   1  11  34.335   2.850
  -5  -1 -11  25.383  11.940
   5   1  11  33.387  13.164
  -6  -1 -11  4.3607  3.2220
   6   1  11  1.2349  1.4755
   6  -2 -11  20.551   3.859
   6  -2 -11  19.877   3.597
   6  -2 -11  26.157   3.457
  -6   2  11  25.148   3.434
  -6   2  11  25.125   3.310
   6  -2 -11  10.738  10.082
   5  -2 -11  0.0169  1.2639
   5  -2 -11  4.5771  1.6070
   5  -2 -11  4.5207  1.6110
  -5   2  11  2.3385  1.7334
  -5   2  11  2.3364  1.6388
  -5   2  11  3.7721  2.5357
   4  -2 -11  159.24    5.65
   4  -2 -11  165.95    9.17
   4  -2 -11  164.57    7.83
  -4   2  11  146.22    6.54
  -4   2  11  164.05   11.37
   4  -2 -11  154.95   16.33
   3  -2 -11  568.75   13.98
   3  -2 -11  568.64   14.48
   3  -2 -11  553.12   13.39
  -3   2  11  543.58   20.35
  -3   2  11  570.48   23.98
   3  -2 -11  559.13   48.07
   2  -2 -11  3.8737  0.9303
   2  -2 -11  4.3244  1.0485
   2  -2 -11  3.3488  0.9216
  -2   2  11  4.7925  1.5551
  -2   2  11  4.3776  0.8888
  -2   2  11  3.0307  0.3721
   2  -2 -11  7.7067  7.0974
   2  -2 -11  2.5027  5.2516
  -2   2  11 -0.6944  6.8329
   1  -2 -11  3.9951  1.1314
   1  -2 -11  2.5253  0.6143
  -1   2  11  3.7278  1.3304
  -1   2  11  2.7819  0.5693
  -1   2  11  1.6162  0.6602
   1  -2 -11  -2.277   4.306
   1  -2 -11  -1.022   3.672
  -1   2  11  -7.482   3.503
   0  -2 -11  24.830   1.335
   0  -2 -11  23.821   1.282
   0   2  11  24.741   2.290
   0   2  11  21.105   1.212
   0   2  11  22.647   1.112
   0   2  11  21.178   1.244
   0  -2 -11  25.431   4.690
   0  -2 -11  21.176   4.803
   0   2  11  17.623   4.247
  -1  -2 -11  37.243   1.855
  -1  -2 -11  40.892   1.597
   1   2  11  41.145   1.877
   1   2  11  36.367   1.517
  -1  -2 -11  29.180   7.014
  -1  -2 -11  21.201   5.523
   1   2  11  22.432   6.365
  -2  -2 -11  184.78    6.31
  -2  -2 -11  182.34   12.54
  -2  -2 -11  193.06    8.84
  -2  -2 -11  194.69    6.51
   2   2  11  181.98    6.75
   2   2  11  190.15    5.77
  -2  -2 -11  147.80   13.28
  -2  -2 -11  207.74   13.59
   2   2  11  163.58   15.00
  -3  -2 -11  51.407   3.590
  -3  -2 -11  54.887   3.526
  -3  -2 -11  53.110   3.693
  -3  -2 -11  51.776   2.768
  -3  -2 -11  56.499   3.814
   3   2  11  52.799   2.742
   3   2  11  51.749   2.674
  -3  -2 -11  29.281   6.416
  -3  -2 -11  46.613   9.848
   3   2  11  34.771   7.754
  -4  -2 -11  5.9812  1.3557
  -4  -2 -11  4.6552  1.3480
  -4  -2 -11  3.0952  1.2544
  -4  -2 -11  5.4848  1.7117
   4   2  11  5.5613  1.5926
   4   2  11  6.5696  1.4537
  -4  -2 -11  3.9516  5.4521
   4   2  11  2.1134  6.0505
  -5  -2 -11  1.9707  1.1258
  -5  -2 -11  1.0917  1.0586
  -5  -2 -11  -1.311   2.238
  -5  -2 -11  2.4724  1.4852
   5   2  11  4.9166  1.7463
   5   2  11  1.6787  1.5909
  -5  -2 -11  1.8908  6.1152
  -6  -2 -11  6.8964  2.6247
  -6  -2 -11  5.5839  1.9777
  -6  -2 -11  3.8601  1.8080
   6   2  11  6.4275  1.7584
   6   2  11  8.5998  2.0957
  -7  -2 -11  6.9613  3.7290
   7   2  11  1.6031  2.1819
   6  -3 -11  0.9245  2.6654
   6  -3 -11  1.5964  2.9973
  -6   3  11  3.5510  2.4572
  -6   3  11  2.7561  1.7112
   6  -3 -11  -7.144   8.325
   5  -3 -11  3.9326  2.2811
   5  -3 -11  3.4506  2.4653
  -5   3  11  3.3608  2.2883
  -5   3  11  5.3140  1.9164
   5  -3 -11   3.247  12.381
   4  -3 -11  42.663   2.734
   4  -3 -11  39.752   3.093
   4  -3 -11  41.717   2.452
  -4   3  11  43.651   3.612
  -4   3  11  47.509   4.059
   4  -3 -11  36.600   7.766
   3  -3 -11  109.91    3.33
   3  -3 -11  114.79    3.27
   3  -3 -11  119.03    3.80
  -3   3  11  118.81    5.91
  -3   3  11  113.41    4.68
   3  -3 -11  106.48    9.64
   2  -3 -11  317.24   15.29
   2  -3 -11  320.84    8.23
   2  -3 -11  306.78    9.59
  -2   3  11  302.91   22.26
  -2   3  11  322.20    9.44
  -2   3  11  332.75    9.30
   2  -3 -11  316.97   26.06
   2  -3 -11  348.00   17.90
  -2   3  11  299.57   18.33
   1  -3 -11  39.440   1.919
   1  -3 -11  42.244   2.919
   1  -3 -11  43.151   1.884
  -1   3  11  37.557   2.709
  -1   3  11  40.485   2.797
  -1   3  11  40.162   2.405
  -1   3  11  39.803   2.989
   1  -3 -11  27.104   4.322
   1  -3 -11  45.161   7.369
  -1   3  11  22.394   6.865
   0  -3 -11  3.0700  0.7936
   0  -3 -11  2.6728  0.8590
   0   3  11  3.6927  1.2962
   0   3  11  2.2175  0.6359
   0   3  11  1.5293  0.2911
   0  -3 -11  3.3789  3.1944
   0  -3 -11  1.4281  3.0672
   0   3  11  -1.764   3.442
  -1  -3 -11  727.01   32.40
   1   3  11  710.28   22.19
   1   3  11  737.00   25.98
  -1  -3 -11  799.45   42.27
  -1  -3 -11  767.33   32.96
   1   3  11  735.32   54.23
  -2  -3 -11  105.12    4.54
  -2  -3 -11  88.602   3.240
   2   3  11  95.943   5.459
   2   3  11  91.647   3.573
  -2  -3 -11  79.036  10.370
  -2  -3 -11  94.477   8.855
   2   3  11  70.751   8.858
  -3  -3 -11  142.46    7.48
  -3  -3 -11  145.90    6.42
  -3  -3 -11  137.27    6.50
  -3  -3 -11  136.77    5.23
   3   3  11  149.47    7.88
   3   3  11  151.80    6.83
  -3  -3 -11  151.33   16.04
  -3  -3 -11  147.74   11.73
   3   3  11  117.99   11.77
  -4  -3 -11  1.0338  1.3092
  -4  -3 -11  0.3072  1.2637
  -4  -3 -11  0.8620  1.3859
  -4  -3 -11 -0.2839  0.9282
   4   3  11  0.3229  0.9806
   4   3  11  0.4687  1.2804
  -4  -3 -11  -1.927   4.428
  -5  -3 -11  54.232   4.623
  -5  -3 -11  53.892   5.123
  -5  -3 -11  63.336   4.139
  -5  -3 -11  53.016   3.865
   5   3  11  60.528   4.522
   5   3  11  54.570   3.953
  -5  -3 -11  48.339  12.752
  -6  -3 -11  95.973   7.478
  -6  -3 -11  104.67    8.16
  -6  -3 -11  102.97    7.24
   6   3  11  112.51    7.89
   6   3  11  120.13    8.84
  -6  -3 -11  89.649  13.726
  -7  -3 -11  247.96   18.00
  -7  -3 -11  254.28   22.28
   7   3  11  275.87   21.21
   5  -4 -11  81.271   7.618
   5  -4 -11  88.053   7.287
  -5   4  11  100.39    8.11
   5  -4 -11  95.575  14.607
   4  -4 -11  47.933   2.786
   4  -4 -11  43.811   3.222
  -4   4  11  39.039   4.060
  -4   4  11  49.301   4.397
   4  -4 -11 -0.7939  5.1300
   3  -4 -11  0.7109  1.2035
   3  -4 -11  0.8163  1.1206
  -3   4  11  0.5823  1.5514
  -3   4  11  0.1895  1.2064
   3  -4 -11  0.7806  5.7005
   2  -4 -11  313.27    7.70
   2  -4 -11  311.06   15.83
  -2   4  11  332.80   20.89
  -2   4  11  341.63   10.85
   2  -4 -11  373.27   25.83
   2  -4 -11  329.13   16.90
   1  -4 -11  37.208   2.239
   1  -4 -11  42.014   2.212
  -1   4  11  35.798   2.486
  -1   4  11  36.996   2.396
  -1   4  11  36.785   2.692
  -1   4  11  41.665   1.733
   1  -4 -11  38.444   5.568
   1  -4 -11  32.642   4.989
  -1   4  11  24.955   6.559
   0  -4 -11  286.96    6.52
   0  -4 -11  291.07    7.25
   0   4  11  303.99    9.95
   0   4  11  254.38   10.58
   0   4  11  296.25   12.49
   0  -4 -11  337.30   21.56
   0  -4 -11  284.36   19.27
   0   4  11  277.96   29.58
  -1  -4 -11 3017.74  167.08
  -1  -4 -11 2610.33  228.37
   1   4  11 3040.36  242.22
  -2  -4 -11  418.84   20.73
  -2  -4 -11  426.62   15.90
   2   4  11  445.81   19.65
   2   4  11  457.93   15.59
  -2  -4 -11  491.51   26.62
  -2  -4 -11  457.88   39.94
   2   4  11  473.69   34.88
  -3  -4 -11  5.3685  1.0800
  -3  -4 -11  3.4367  1.3727
   3   4  11  3.0678  0.9473
   3   4  11  3.2227  1.2332
  -3  -4 -11  18.981   7.802
  -3  -4 -11  -2.297   5.463
  -4  -4 -11  7.9629  1.7320
  -4  -4 -11  6.7928  0.9816
  -4  -4 -11  6.0565  1.2949
   4   4  11  3.4843  1.2883
   4   4  11  4.3680  1.6580
  -4  -4 -11  5.0679  5.5176
  -5  -4 -11  41.955   3.481
  -5  -4 -11  39.314   3.188
  -5  -4 -11  36.366   3.482
   5   4  11  40.405   3.970
   5   4  11  43.023   2.982
  -5  -4 -11  26.230  11.069
  -6  -4 -11  17.589   3.680
  -6  -4 -11  12.012   2.772
  -6  -4 -11  8.7129  2.3588
   6   4  11  11.788   2.166
  -6  -4 -11  17.053  10.288
   5  -5 -11  110.05    6.29
   5  -5 -11  100.37    7.57
  -5   5  11  111.37    9.20
   5  -5 -11  107.37   16.55
   4  -5 -11  114.21    6.66
   4  -5 -11  105.62    6.04
  -4   5  11  105.20    6.13
   4  -5 -11  125.44   13.93
   3  -5 -11  1.0064  2.0627
   3  -5 -11  2.7383  1.3524
  -3   5  11  0.0974  1.3874
  -3   5  11  0.3605  1.7715
   3  -5 -11 -0.5479  4.4996
   2  -5 -11  32.908   2.416
   2  -5 -11  38.643   2.200
  -2   5  11  29.803   2.396
  -2   5  11  35.428   2.738
   2  -5 -11  26.497   6.770
   1  -5 -11  134.27    4.69
   1  -5 -11  133.99    4.56
  -1   5  11  130.90    6.77
   1  -5 -11  128.51   12.54
   1  -5 -11  143.79   11.79
   0  -5 -11  3.1520  1.3484
   0  -5 -11  6.6490  1.5292
   0   5  11  4.7606  0.7658
   0   5  11  3.6747  0.9033
   0  -5 -11  5.0568  3.4486
   0  -5 -11  5.4083  4.1563
  -1  -5 -11  17.530   1.995
  -1  -5 -11  19.487   1.672
  -1  -5 -11  18.260   1.389
   1   5  11  16.479   1.823
   1   5  11  16.309   1.279
  -1  -5 -11  6.3162  4.5635
  -1  -5 -11  25.350   5.738
  -2  -5 -11  421.23   14.76
  -2  -5 -11  420.27   13.30
  -2  -5 -11  420.87   16.21
   2   5  11  411.81   18.21
   2   5  11  423.50   17.78
  -2  -5 -11  454.66   34.53
  -2  -5 -11  445.88   34.24
  -3  -5 -11  8.8509  0.9881
  -3  -5 -11  9.2166  1.1994
  -3  -5 -11  9.3111  1.2790
   3   5  11  8.8170  1.4173
   3   5  11  9.5753  1.9109
  -3  -5 -11  5.1649  5.9792
  -4  -5 -11 -0.3247  1.7262
  -4  -5 -11  0.2435  1.6872
   4   5  11  1.0998  1.4547
   4   5  11 -0.1356  1.1561
  -4  -5 -11  3.3263  7.3810
  -5  -5 -11  493.31   26.45
  -5  -5 -11  494.85   26.20
   5   5  11  467.62   30.28
   5   5  11  447.40   21.73
  -5  -5 -11  513.67   33.81
  -6  -5 -11  59.836   5.450
  -6  -5 -11  54.508   4.458
   6   5  11  61.104   4.357
   6   5  11  64.670   4.731
  -6  -5 -11  48.448  14.990
   4  -6 -11  43.428   4.207
   4  -6 -11  48.121   4.017
  -4   6  11  51.092   4.208
   4  -6 -11  63.022  11.924
   3  -6 -11  173.04    6.92
   3  -6 -11  166.27    7.08
  -3   6  11  168.24   10.99
  -3   6  11  179.46   10.52
   2  -6 -11  220.57    9.60
   2  -6 -11  216.82    6.95
  -2   6  11  246.45   10.83
  -2   6  11  222.40   13.43
   2  -6 -11  246.70   20.83
   1  -6 -11  8.7629  1.9816
   1  -6 -11  6.5419  1.7914
  -1   6  11  9.0217  1.7197
   1  -6 -11  9.8949  4.9227
   1  -6 -11  13.566   5.742
   0  -6 -11  216.58    6.59
   0  -6 -11  222.44    8.81
   0   6  11  214.84   17.19
   0   6  11  219.41    8.40
   0  -6 -11  233.29   17.48
   0  -6 -11  233.78   16.98
  -1  -6 -11  6.5138  1.5187
  -1  -6 -11  4.3754  1.0737
  -1  -6 -11  3.4375  1.2767
   1   6  11  2.4118  1.2996
   1   6  11  3.1077  0.9772
  -1  -6 -11  4.0133  3.3673
  -1  -6 -11  2.1548  3.2207
  -2  -6 -11  426.99   20.20
  -2  -6 -11  443.35   21.55
  -2  -6 -11  442.68   16.86
   2   6  11  431.72   21.24
   2   6  11  445.12   22.01
  -2  -6 -11  466.19   27.03
  -2  -6 -11  452.18   28.30
  -3  -6 -11  33.475   2.562
  -3  -6 -11  34.485   1.952
  -3  -6 -11  33.522   3.265
   3   6  11  35.351   2.834
   3   6  11  33.982   2.945
  -3  -6 -11  24.688   6.964
  -4  -6 -11  35.248   3.026
  -4  -6 -11  29.896   3.291
   4   6  11  32.153   2.425
   4   6  11  32.566   3.537
  -4  -6 -11  34.378   9.096
  -5  -6 -11  151.40    9.96
  -5  -6 -11  149.16    8.22
   5   6  11  154.48    8.27
   5   6  11  144.24    9.43
  -5  -6 -11  142.00   15.89
  -6  -6 -11  115.41   10.25
  -6  -6 -11  117.70    9.49
   6   6  11  123.96    7.30
   6   6  11  114.57   10.97
  -6  -6 -11  99.422  12.820
   4  -7 -11  0.5585  1.9346
   4  -7 -11  1.3402  1.6649
  -4   7  11  1.8943  1.9682
   4  -7 -11   6.509  10.383
   3  -7 -11  34.748   2.848
   3  -7 -11  37.022   3.543
  -3   7  11  36.477   4.027
   3  -7 -11  29.223   8.454
   2  -7 -11  90.108   5.152
   2  -7 -11  92.717   4.506
  -2   7  11  94.573   5.224
  -2   7  11  79.222   5.492
   2  -7 -11  97.347  10.259
   1  -7 -11  2.5504  1.8198
   1  -7 -11  -1.381   1.696
  -1   7  11  1.8753  1.3187
  -1   7  11  0.1303  1.1709
   1  -7 -11  3.6422  3.4874
   1  -7 -11 -0.7731  3.9569
   0  -7 -11  0.3497  1.5101
   0  -7 -11  0.4696  1.6559
   0   7  11  0.8054  1.6222
   0  -7 -11  1.4836  4.4404
   0  -7 -11  -1.606   4.144
  -1  -7 -11  55.135   3.119
  -1  -7 -11  53.400   3.231
  -1  -7 -11  51.709   3.133
   1   7  11  58.500   3.909
  -1  -7 -11  56.092   7.461
  -1  -7 -11  57.905   7.084
  -2  -7 -11  108.47    6.62
  -2  -7 -11  108.34    5.54
  -2  -7 -11  109.83    4.99
   2   7  11  109.74    5.08
  -2  -7 -11  110.87    9.89
  -3  -7 -11  43.474   3.244
   3   7  11  41.197   3.333
  -3  -7 -11  45.876   9.237
  -4  -7 -11  -1.335   1.719
   4   7  11  0.7756  2.2505
  -4  -7 -11  2.2883  5.5353
  -5  -7 -11  0.7824  1.9909
  -5  -7 -11  -1.729   2.359
   5   7  11  0.0877  1.7471
   5   7  11  0.0670  1.3168
  -5  -7 -11  -3.378   6.817
   3  -8 -11  59.965   4.440
   3  -8 -11  58.875   4.508
  -3   8  11  62.860   4.956
   3  -8 -11  67.473  10.062
   2  -8 -11  25.466   2.377
   2  -8 -11  15.502   3.411
  -2   8  11  21.596   2.840
  -2   8  11  18.599   3.376
   2  -8 -11  31.834   6.662
   1  -8 -11  22.899   2.180
   1  -8 -11  21.369   2.674
  -1   8  11  19.924   2.502
  -1   8  11  22.049   2.860
   1  -8 -11  14.732   5.413
   1  -8 -11  19.103   5.152
   0  -8 -11  33.323   2.625
   0  -8 -11  34.008   2.969
   0   8  11  37.289   3.749
   0  -8 -11  31.635   5.735
   0  -8 -11  35.804   6.038
  -1  -8 -11  90.596   3.840
  -1  -8 -11  90.590   4.177
   1   8  11  83.541   6.166
  -1  -8 -11  85.618   9.068
  -1  -8 -11  83.767   7.457
  -2  -8 -11  421.28   26.92
  -2  -8 -11  436.29   28.34
  -2  -8 -11  441.62   35.52
   2   8  11  474.27   21.58
  -2  -8 -11  465.25   57.98
  -3  -8 -11  1.3370  2.1153
   3   8  11  1.3986  1.7767
  -3  -8 -11  1.6863  5.5746
  -4  -8 -11 -0.1038  1.5686
   4   8  11 -0.3798  2.3002
  -4  -8 -11  -2.644   4.772
  -5  -8 -11  4.4208  2.1769
  -5  -8 -11  5.7245  2.9135
   5   8  11  7.3438  3.3393
  -5  -8 -11  13.904  11.777
   2  -9 -11  60.837   5.829
  -2   9  11  67.253   5.756
   2  -9 -11  50.575   7.313
   2  -9 -11  75.156   6.800
   1  -9 -11  93.626   6.006
   1  -9 -11  104.52    6.15
  -1   9  11  87.124   5.361
  -1   9  11  85.813   6.138
   1  -9 -11  73.511   5.282
   1  -9 -11  77.720   5.153
   0  -9 -11  25.788   3.223
   0  -9 -11  24.641   2.591
   0   9  11  24.240   3.175
   0   9  11  25.585   3.305
   0  -9 -11  24.059   3.213
  -1  -9 -11  -1.244   2.024
   1   9  11  -1.741   2.372
  -1  -9 -11  6.1247  3.7200
  -1  -9 -11  0.8995  3.8784
  -2  -9 -11  35.246   4.097
   2   9  11  35.011   2.873
  -2  -9 -11  39.316   6.124
  -3  -9 -11  8.3158  2.1643
   3   9  11  2.8877  2.1379
  -3  -9 -11  5.9227  6.5084
  -4  -9 -11  6.1367  2.3512
   4   9  11  5.5419  2.7829
  -4  -9 -11  8.5561  6.0753
   0 -10 -11  77.698   6.258
   0  10  11  71.480   6.494
   0  10  11  72.872   6.838
   1  10  11  153.44   13.28
   1  10  11  145.77   11.86
  -2 -10 -11  142.91   11.69
   2  10  11  141.91   10.93
  -2 -10 -11  96.642   5.061
  -2 -10 -11  81.894   4.225
   2   7 -12  33.825   3.816
   2   7 -12  36.013   3.759
  -2  -7  12  29.536   3.678
  -2  -7  12  19.009  15.021
   1   7 -12  58.094   4.000
   1   7 -12  53.215   4.362
  -1  -7  12  67.682   5.536
  -1  -7  12  77.489  16.882
   0   7 -12  44.362   3.930
   0  -7  12  35.307   4.204
   0  -7  12  37.034   4.755
   0  -7  12  27.131  13.199
  -1   7 -12  425.39   25.56
   1  -7  12  448.71   24.18
   1  -7  12  433.99   29.01
   1  -7  12  429.30   34.77
   3   6 -12  11.770   2.093
   3   6 -12  6.2953  2.5738
  -3  -6  12  8.9430  2.4592
  -3  -6  12  28.558  18.715
   2   6 -12  35.122   3.222
   2   6 -12  44.004   3.813
  -2  -6  12  37.776   4.797
  -2  -6  12  62.980  16.799
   1   6 -12  2.4067  1.4438
   1   6 -12  3.2458  2.0031
  -1  -6  12  1.4179  2.6978
  -1  -6  12  17.149  12.503
   0   6 -12  2.3332  2.0029
   0   6 -12  0.6477  1.4148
   0  -6  12  2.4350  2.7880
   0  -6  12  0.8109  1.7551
   0  -6  12  -11.06   10.03
  -1   6 -12  25.496   3.188
   1  -6  12  25.531   3.075
   1  -6  12  23.941   3.629
   1  -6  12  -20.36   11.53
  -2   6 -12  4.3240  1.7839
   2  -6  12  1.4791  2.0404
   2  -6  12  0.6053  2.0387
   2  -6  12  -12.47   12.66
  -3   6 -12  1.8126  1.9806
   3  -6  12  0.8138  2.0468
   3  -6  12  1.6699  1.9958
   3  -6  12  -2.526  13.011
   4   5 -12  -1.950   1.549
   4   5 -12  0.4795  1.7846
  -4  -5  12  0.5793  2.3331
  -4  -5  12  0.7962  1.3556
  -4  -5  12   4.736  13.758
   3   5 -12  3.6089  1.6704
   3   5 -12  2.7603  1.5191
  -3  -5  12  8.9663  2.5409
  -3  -5  12   1.629  10.223
   2   5 -12  66.722   4.329
   2   5 -12  58.939   4.488
  -2  -5  12  68.612   5.064
  -2  -5  12  73.993  15.915
   1   5 -12  104.75    6.33
   1   5 -12  110.99    5.36
  -1  -5  12  99.374   5.485
  -1  -5  12  103.13    5.51
  -1  -5  12  70.598  13.977
   0   5 -12  7.7246  1.6757
   0   5 -12  11.389   2.493
   0  -5  12  7.5508  1.8737
   0  -5  12  9.6630  2.2543
   0  -5  12  7.1143  8.3437
  -1   5 -12  8.5345  1.9972
   1  -5  12  8.5071  1.6685
   1  -5  12  9.1443  1.7133
   1  -5  12  3.9349  6.3545
  -2   5 -12  184.00    8.02
  -2   5 -12  155.01   11.37
   2  -5  12  158.37    8.18
   2  -5  12  171.90    9.68
   2  -5  12  139.86   16.16
  -3   5 -12  41.849   3.586
  -3   5 -12  31.196   3.179
   3  -5  12  38.834   4.478
   3  -5  12  45.070   4.753
   3  -5  12  52.552  13.195
  -4   5 -12  152.79   12.41
  -4   5 -12  123.66    8.89
   4  -5  12  147.82   11.78
   4  -5  12  152.32   13.08
   4  -5  12  169.40   23.80
   5   4 -12  7.4693  2.8614
   5   4 -12  8.3797  2.9879
  -5  -4  12  9.5192  2.1409
  -5  -4  12   9.576  17.051
   4   4 -12  23.834   2.563
   4   4 -12  25.336   3.068
  -4  -4  12  25.466   2.915
  -4  -4  12   3.796  11.669
   3   4 -12  65.022   3.744
   3   4 -12  69.382   3.838
  -3  -4  12  66.482   6.379
  -3  -4  12  66.312   3.983
  -3  -4  12  60.338  11.190
   2   4 -12  180.62   10.86
   2   4 -12  178.22    8.67
  -2  -4  12  164.67   10.93
  -2  -4  12  195.29   11.76
  -2  -4  12  181.74   18.60
   1   4 -12  21.086   1.908
   1   4 -12  16.955   1.900
  -1  -4  12  18.151   2.495
  -1  -4  12  17.724   2.747
  -1  -4  12  20.497   9.362
   0   4 -12  17.564   2.361
   0   4 -12  17.726   2.240
   0  -4  12  19.331   2.382
   0  -4  12  19.826   2.127
   0  -4  12  14.194   8.956
  -1   4 -12  51.045   4.415
  -1   4 -12  60.304   3.617
   1  -4  12  54.836   4.134
   1  -4  12  62.865   4.012
   1  -4  12  36.783   8.633
  -2   4 -12  40.683   4.204
  -2   4 -12  29.569   2.727
   2  -4  12  28.295   2.704
   2  -4  12  28.179   2.503
   2  -4  12  42.156  11.607
  -3   4 -12  1.3678  2.1410
  -3   4 -12  1.6196  1.4004
   3  -4  12  3.1222  2.4349
   3  -4  12  3.2569  2.2100
   3  -4  12  5.1945  7.5067
  -4   4 -12  9.1302  3.4815
  -4   4 -12  7.6319  1.8745
   4  -4  12  8.9621  2.0364
   4  -4  12  7.1765  1.9671
   4  -4  12  -2.078   8.888
   5   3 -12  6.1151  1.6613
   5   3 -12  4.6350  1.7314
   5   3 -12  4.5091  1.7908
  -5  -3  12  4.7291  2.5042
  -5  -3  12  30.895  20.428
   4   3 -12  3.3680  1.3826
   4   3 -12  2.9048  1.7271
  -4  -3  12  4.6259  1.8724
  -4  -3  12  -3.866  14.157
   3   3 -12  18.508   2.294
   3   3 -12  22.279   1.872
  -3  -3  12  18.174   1.947
  -3  -3  12  18.151   2.114
  -3  -3  12  19.735   9.959
   2   3 -12  0.1408  1.4314
   2   3 -12  2.5018  1.4336
  -2  -3  12  0.7030  1.5132
  -2  -3  12  1.7138  1.0082
  -2  -3  12  4.4487  9.4916
   1   3 -12  92.454   4.846
   1   3 -12  102.23    3.86
  -1  -3  12  104.03    5.77
  -1  -3  12  95.143   4.613
  -1  -3  12  94.134   5.600
  -1  -3  12  92.981   6.546
  -1  -3  12  97.208  12.667
   0   3 -12  3.2816  1.2858
   0   3 -12  4.9977  1.5741
   0  -3  12  3.2800  1.1681
   0  -3  12  5.3309  1.5235
   0  -3  12  3.9057  0.5925
   0  -3  12  2.6380  1.2128
   0  -3  12  -3.017   5.801
  -1   3 -12  0.2950  0.9874
  -1   3 -12  0.9365  0.7989
  -1   3 -12  3.3930  1.6059
   1  -3  12  2.9563  1.1158
   1  -3  12  2.6808  1.2973
   1  -3  12  2.1288  0.9975
   1  -3  12  7.0912  7.1413
  -2   3 -12  70.539   4.220
  -2   3 -12  74.153   3.429
   2  -3  12  61.717   3.760
   2  -3  12  71.542   4.690
   2  -3  12  56.473   4.242
   2  -3  12  47.157   7.645
  -3   3 -12  200.62   12.66
  -3   3 -12  242.32    8.32
   3  -3  12  224.47   16.51
   3  -3  12  229.66   10.80
   3  -3  12  227.85   10.96
   3  -3  12  193.19   16.36
  -4   3 -12  126.10    6.46
  -4   3 -12  113.14    5.71
   4  -3  12  121.61    6.21
   4  -3  12  108.57    5.58
   4  -3  12  98.156  14.299
  -5   3 -12  3.0426  2.1632
  -5   3 -12  3.8120  3.2884
   5  -3  12  2.6418  1.7965
   5  -3  12  2.0673  1.9533
   5  -3  12   2.428  10.494
   5   2 -12  11.959   2.664
   5   2 -12  16.964   2.598
   5   2 -12  13.372   2.557
  -5  -2  12  21.991   3.188
   4   2 -12  152.15    7.68
   4   2 -12  145.42    7.71
   4   2 -12  149.90    8.05
  -4  -2  12  142.54    7.95
  -4  -2  12  123.62   15.60
   3   2 -12  256.38   10.23
   3   2 -12  226.63    8.48
  -3  -2  12  255.02   10.63
  -3  -2  12  246.53   21.88
  -3  -2  12  255.89   20.81
   2   2 -12  51.598   2.796
   2   2 -12  57.558   3.623
  -2  -2  12  61.389   3.913
  -2  -2  12  55.827   2.794
  -2  -2  12  58.242   3.774
   2   2 -12  41.620   9.093
  -2  -2  12  49.885  10.138
   1   2 -12  8.9956  1.4264
   1   2 -12  7.5369  1.4261
  -1  -2  12  10.912   1.617
  -1  -2  12  8.8686  1.0238
  -1  -2  12  10.807   1.895
  -1  -2  12  6.9467  1.6149
  -1  -2  12  7.2819  1.0740
   1   2 -12  0.5351  6.6488
  -1  -2  12  1.2373  7.7993
  -1  -2  12  19.396   8.648
   0   2 -12  79.190   5.013
   0   2 -12  82.351   4.120
   0  -2  12  84.591   3.985
   0  -2  12  83.537   3.929
   0  -2  12  89.011   4.409
   0  -2  12  69.659   3.157
   0  -2  12  80.555   2.738
   0   2 -12  56.238   8.608
   0  -2  12  55.036   8.209
   0  -2  12  71.204  10.146
  -1   2 -12  14.099   1.453
  -1   2 -12  20.304   2.472
  -1   2 -12  17.807   1.930
   1  -2  12  16.353   1.981
   1  -2  12  17.345   1.160
   1  -2  12  16.978   1.622
   1  -2  12  17.178   1.079
   1  -2  12  18.032   1.894
   1  -2  12  15.222   1.157
  -1   2 -12  9.2315  4.6706
   1  -2  12  19.982  11.141
   1  -2  12  5.9320  5.5500
  -2   2 -12  41.350   2.588
  -2   2 -12  34.555   3.639
   2  -2  12  31.174   2.184
   2  -2  12  37.568   2.929
   2  -2  12  33.246   2.353
   2  -2  12  29.033   7.007
  -3   2 -12  571.73   18.60
  -3   2 -12  518.90   24.21
   3  -2  12  543.57   27.25
   3  -2  12  561.47   20.94
   3  -2  12  524.20   23.17
   3  -2  12  591.96   36.52
  -4   2 -12  53.274   4.198
  -4   2 -12  43.237   4.001
   4  -2  12  41.807   3.843
   4  -2  12  43.877   3.054
   4  -2  12  40.688   3.136
   4  -2  12  30.439  11.325
  -5   2 -12  8.3862  3.5350
   5  -2  12  4.0596  1.5169
   5  -2  12  5.3719  1.8282
   5  -2  12  -5.517  12.308
   6   1 -12  -2.665   3.068
   6   1 -12 -0.1198  1.7524
   6   1 -12  4.0858  2.0092
  -6  -1  12  -1.145   1.730
   5   1 -12  32.707   3.534
   5   1 -12  33.468   2.915
   5   1 -12  34.608   3.369
  -5  -1  12  31.785   4.158
   4   1 -12  53.527   3.245
   4   1 -12  48.778   3.395
   4   1 -12  54.590   3.437
  -4  -1  12  50.354   2.969
  -4  -1  12  39.614   9.351
   3   1 -12  76.398   3.616
   3   1 -12  76.787   4.602
  -3  -1  12  70.039   5.366
  -3  -1  12  77.593   3.051
  -3  -1  12  75.612   5.101
  -3  -1  12  79.281   4.243
   3   1 -12  51.917  10.778
  -3  -1  12  48.368  13.462
   2   1 -12  30.717   1.740
   2   1 -12  34.249   1.705
  -2  -1  12  30.001   3.311
  -2  -1  12  32.313   3.420
  -2  -1  12  35.032   2.122
  -2  -1  12  30.197   1.922
   2   1 -12  15.622   7.495
  -2  -1  12  29.873  10.586
   1   1 -12  8.3884  1.2421
   1   1 -12  6.0224  1.4231
  -1  -1  12  5.9483  1.2983
  -1  -1  12  7.2396  1.0513
  -1  -1  12  5.8664  1.8409
  -1  -1  12  5.0033  1.1657
   1   1 -12  4.1434  4.5816
  -1  -1  12  6.8663  5.8359
  -1  -1  12  1.6644  5.9281
   0   1 -12  488.69   13.27
   0   1 -12  501.35   20.60
   0  -1  12  504.31   16.25
   0  -1  12  528.42   17.20
   0  -1  12  540.69   18.02
   0  -1  12  480.33   12.75
   0   1 -12  526.61   28.34
   0  -1  12  529.72   35.36
   0  -1  12  515.01   37.54
  -1   1 -12  124.16    5.05
  -1   1 -12  124.46    4.71
   1  -1  12  118.69    6.55
   1  -1  12  112.33    6.16
   1  -1  12  124.93    3.58
   1  -1  12  126.31    7.15
   1  -1  12  114.95    4.31
  -1   1 -12  110.80   12.13
   1  -1  12  97.361  10.113
   1  -1  12  101.60   11.33
  -2   1 -12  19.446   1.336
  -2   1 -12  19.410   2.301
  -2   1 -12  17.474   1.937
   2  -1  12  16.752   1.898
   2  -1  12  18.939   1.803
   2  -1  12  17.347   1.528
   2  -1  12  15.919   1.349
   2  -1  12  18.133   2.037
  -2   1 -12  15.391   5.561
   2  -1  12  12.378   6.449
   2  -1  12  0.6835  6.2171
  -3   1 -12  8.9826  1.9898
  -3   1 -12  16.965   1.643
   3  -1  12  11.473   1.478
   3  -1  12  13.529   1.953
   3  -1  12  13.777   1.841
  -3   1 -12  2.9757  5.7240
   3  -1  12  10.034   6.974
  -4   1 -12  5.8904  1.9313
  -4   1 -12  6.9547  1.4994
   4  -1  12  5.5925  1.4587
   4  -1  12  8.0255  1.8451
   4  -1  12  4.3780  1.4324
   4  -1  12  3.3608  8.9967
  -5   1 -12  4.9088  2.2847
   5  -1  12  3.2037  1.6006
   5  -1  12  4.2975  1.6147
   5  -1  12  7.5318  9.2260
  -6   1 -12  163.07   11.30
   6  -1  12  172.16   11.19
   6  -1  12  179.12   11.04
   6  -1  12  125.02   22.07
   6   0 -12 -0.9154  1.6477
   6   0 -12 -0.9226  1.6713
   6   0 -12  -1.577   2.519
  -6   0  12  3.3127  3.3488
   5   0 -12  94.984   5.565
   5   0 -12  95.089   6.355
   5   0 -12  88.775   6.093
  -5   0  12  92.727   5.875
   5   0 -12  57.779  15.804
   4   0 -12  303.74   11.98
   4   0 -12  290.96   11.79
   4   0 -12  293.13   19.72
  -4   0  12  297.92   24.15
  -4   0  12  318.15   12.52
  -4   0  12  324.94   20.48
   4   0 -12  291.88   21.82
   3   0 -12  3.1751  1.5949
   3   0 -12  10.021   1.786
   3   0 -12  6.0667  1.1143
  -3   0  12  6.0496  1.6901
  -3   0  12  9.7935  1.5984
  -3   0  12  6.0051  1.2614
   3   0 -12  10.423   8.164
  -3   0  12  -1.036  10.135
   2   0 -12  2.8621  0.9385
   2   0 -12  2.4768  0.8655
   2   0 -12  1.8802  0.8161
  -2   0  12  0.9775  1.0357
  -2   0  12  1.9884  1.6665
   2   0 -12  8.9927  6.6722
  -2   0  12  -5.945   7.744
   1   0 -12  9.2265  1.1406
   1   0 -12  7.4535  1.4479
   1   0 -12  11.201   1.444
  -1   0  12  8.5121  0.7636
  -1   0  12  7.2620  1.1405
  -1   0  12  8.4967  1.3411
  -1   0  12  7.7216  0.9743
   1   0 -12  0.1368  4.6711
   1   0 -12  13.736   6.391
  -1   0  12  -3.369   6.324
   0   0 -12  10.664   0.957
   0   0 -12  9.9172  1.4699
   0   0  12  10.056   0.862
   0   0  12  10.531   1.443
   0   0  12  10.135   1.143
   0   0  12  12.346   2.019
   0   0  12  11.836   1.175
   0   0 -12  2.0186  5.1224
   0   0 -12  9.1290  5.2459
   0   0  12  6.5770  6.0962
   0   0  12  9.2208  5.7442
  -1   0 -12  109.31    7.51
  -1   0 -12  106.76    4.20
   1   0  12  118.94    5.84
   1   0  12  113.84    7.10
   1   0  12  103.31    3.29
   1   0  12  114.06    3.64
   1   0  12  116.90    4.23
  -1   0 -12  107.29    9.73
  -1   0 -12  123.16   14.06
   1   0  12  111.83   13.60
   1   0  12  99.057  10.317
  -2   0 -12  59.889   3.043
  -2   0 -12  72.253   3.753
  -2   0 -12  63.646   4.776
   2   0  12  68.717   4.203
   2   0  12  64.205   2.558
   2   0  12  65.779   3.177
   2   0  12  61.106   5.284
   2   0  12  57.917   4.006
  -2   0 -12  33.914   7.707
   2   0  12  50.265   8.219
   2   0  12  32.888   8.660
  -3   0 -12  40.518   2.456
  -3   0 -12  39.168   2.316
  -3   0 -12  35.643   2.907
  -3   0 -12  47.158   2.584
   3   0  12  43.115   3.012
   3   0  12  33.954   2.894
  -3   0 -12  25.896   6.426
   3   0  12  24.324   7.366
  -4   0 -12  148.08    6.23
   4   0  12  152.09    8.02
   4   0  12  159.72    7.79
  -4   0 -12  131.79   14.79
   4   0  12  107.79   13.03
  -5   0 -12  149.56    9.09
   5   0  12  161.20    7.67
   5   0  12  168.92   10.07
   5   0  12  149.83   19.67
  -6   0 -12  -1.217   2.178
   6   0  12  1.1634  1.5785
   6  -1 -12  1.4243  2.4680
   6  -1 -12 -0.4513  2.0083
   6  -1 -12  2.0231  1.7732
  -6   1  12  -1.992   3.039
   5  -1 -12  2.0489  1.5173
   5  -1 -12  5.5595  1.7218
   5  -1 -12  1.3319  1.4898
  -5   1  12  3.6913  2.3625
  -5   1  12 -0.2473  1.4807
   5  -1 -12  -2.394   9.221
   4  -1 -12  398.71   15.48
   4  -1 -12  385.08   17.39
   4  -1 -12  394.21   16.82
  -4   1  12  412.07   26.71
  -4   1  12  395.73   22.10
  -4   1  12  432.00   25.82
   4  -1 -12  397.51   32.99
   3  -1 -12  457.07   12.39
   3  -1 -12  455.67   17.74
   3  -1 -12  460.32   13.08
  -3   1  12  467.59   15.01
  -3   1  12  508.86   24.29
   3  -1 -12  505.00   28.42
   2  -1 -12  24.679   1.580
   2  -1 -12  25.153   2.026
   2  -1 -12  22.186   1.228
  -2   1  12  23.295   1.528
  -2   1  12  26.422   2.037
   2  -1 -12  27.815   7.378
   2  -1 -12  18.126   6.858
  -2   1  12  12.278   8.362
   1  -1 -12  0.9748  0.8807
   1  -1 -12  1.6009  0.7233
   1  -1 -12  1.7178  0.6131
  -1   1  12  2.6052  1.3720
  -1   1  12  1.3910  0.7242
  -1   1  12  0.5556  0.5462
  -1   1  12  2.3004  0.7336
   1  -1 -12  11.303   6.171
   1  -1 -12  2.6233  5.7094
  -1   1  12  6.8506  6.6035
   0  -1 -12  309.38    8.97
   0  -1 -12  316.23   23.69
   0  -1 -12  295.80   10.08
   0   1  12  321.49   10.02
   0   1  12  292.05   10.55
   0   1  12  328.57   10.94
   0   1  12  303.25   14.42
   0  -1 -12  337.33   24.00
   0  -1 -12  309.52   25.65
   0   1  12  294.48   26.06
   0   1  12  295.18   21.88
  -1  -1 -12  70.364   3.048
  -1  -1 -12  70.306   2.473
   1   1  12  69.857   5.614
   1   1  12  67.550   2.776
   1   1  12  71.579   2.700
   1   1  12  74.440   4.481
   1   1  12  67.601   2.529
  -1  -1 -12  72.336   9.276
  -1  -1 -12  69.151   8.108
   1   1  12  64.929  12.005
   1   1  12  50.609   8.421
  -2  -1 -12  1.6648  0.5345
  -2  -1 -12  1.8632  0.9679
   2   1  12  3.0574  0.9975
   2   1  12  0.5208  1.1077
   2   1  12  1.1576  0.7887
   2   1  12  1.2074  1.0460
  -2  -1 -12  -3.877   6.564
  -2  -1 -12  2.5946  6.7420
   2   1  12  4.7707  6.7097
  -3  -1 -12  24.718   2.167
  -3  -1 -12  21.298   2.585
  -3  -1 -12  21.355   1.562
  -3  -1 -12  19.392   0.999
  -3  -1 -12  26.229   2.555
   3   1  12  21.268   1.991
   3   1  12  21.201   1.788
  -3  -1 -12  8.7526  7.2358
   3   1  12  8.5767  6.8354
  -4  -1 -12  90.107   3.872
  -4  -1 -12  85.890   4.900
  -4  -1 -12  83.736   7.135
   4   1  12  85.970   3.725
   4   1  12  94.183   4.689
  -4  -1 -12  85.412  12.029
   4   1  12  63.693  13.322
  -5  -1 -12  281.01   22.65
  -5  -1 -12  273.37   18.06
  -5  -1 -12  268.68   16.07
  -5  -1 -12  284.53    9.54
   5   1  12  277.22   11.34
   5   1  12  293.72   15.11
  -6  -1 -12  408.07   27.85
   6   1  12  417.14   28.57
   6  -2 -12  72.990   5.716
   5  -2 -12  26.180   3.514
   5  -2 -12  30.347   3.250
   5  -2 -12  28.493   2.850
  -5   2  12  24.520   3.160
  -5   2  12  29.569   3.341
  -5   2  12  28.206   3.538
   4  -2 -12  7.4538  1.6952
   4  -2 -12  6.8193  1.6281
   4  -2 -12  6.5752  1.7302
  -4   2  12  8.7383  1.8078
  -4   2  12  8.1148  1.8675
   4  -2 -12  -3.931   5.489
   3  -2 -12  453.27   12.28
   3  -2 -12  444.69   12.24
   3  -2 -12  463.76   15.19
  -3   2  12  498.83   19.82
  -3   2  12  480.45   24.35
   3  -2 -12  481.81   29.54
   2  -2 -12  28.841   2.217
   2  -2 -12  29.747   1.508
   2  -2 -12  26.537   2.390
  -2   2  12  28.055   2.497
  -2   2  12  23.626   2.322
   2  -2 -12  27.413   7.669
   2  -2 -12  21.691   7.006
  -2   2  12  5.8894  8.3005
   1  -2 -12  112.76    3.53
   1  -2 -12  113.90    3.35
  -1   2  12  113.00    4.15
  -1   2  12  116.36    6.79
  -1   2  12  108.13    8.14
  -1   2  12  100.23    7.82
   1  -2 -12  126.96   13.75
   1  -2 -12  114.00    8.72
  -1   2  12  92.268  10.096
   0  -2 -12 1748.98   45.13
   0   2  12 1765.15  105.78
   0   2  12 1713.74  102.93
   0   2  12 1855.61   45.67
   0  -2 -12 1849.96   96.55
   0  -2 -12 2096.87  171.86
   0   2  12 1860.83  106.88
  -1  -2 -12  270.92    6.96
  -1  -2 -12  271.39   11.40
   1   2  12  267.34    8.26
   1   2  12  284.40   10.83
  -1  -2 -12  306.23   23.80
  -1  -2 -12  260.10   23.69
   1   2  12  264.53   18.98
  -2  -2 -12  21.676   1.394
  -2  -2 -12  16.278   1.325
  -2  -2 -12  19.182   0.996
  -2  -2 -12  18.076   1.578
   2   2  12  19.915   1.577
   2   2  12  17.939   1.854
  -2  -2 -12  18.427   7.003
  -2  -2 -12  11.416   6.458
   2   2  12  6.8968  6.3432
  -3  -2 -12  13.699   1.567
  -3  -2 -12  17.216   2.123
  -3  -2 -12  17.557   1.360
  -3  -2 -12  16.485   1.342
  -3  -2 -12  17.155   1.443
   3   2  12  14.481   1.575
   3   2  12  17.015   1.718
  -3  -2 -12  10.033   4.748
   3   2  12  8.4901  5.6482
  -4  -2 -12  19.568   2.547
  -4  -2 -12  18.538   2.281
  -4  -2 -12  20.928   1.549
   4   2  12  21.966   2.221
   4   2  12  19.806   1.868
  -4  -2 -12  16.130   6.118
  -5  -2 -12  79.346   3.733
  -5  -2 -12  78.085   5.101
  -5  -2 -12  78.627   6.180
  -5  -2 -12  74.950   5.719
   5   2  12  79.521   4.983
   5   2  12  90.689   5.566
  -5  -2 -12  45.270  13.158
  -6  -2 -12  101.37    7.16
   6   2  12  108.38    6.08
   6   2  12  104.28    7.58
   5  -3 -12  152.36    9.00
   5  -3 -12  153.90    9.84
   5  -3 -12  162.07   11.95
  -5   3  12  152.38    8.95
  -5   3  12  154.16   11.10
   4  -3 -12  96.013   4.829
   4  -3 -12  102.19    5.00
   4  -3 -12  92.590   6.001
  -4   3  12  92.729   7.005
  -4   3  12  96.982   5.551
   4  -3 -12  75.760  11.005
   3  -3 -12  9.2993  1.8613
   3  -3 -12  12.958   1.832
   3  -3 -12  10.492   1.455
  -3   3  12  7.3978  1.8661
  -3   3  12  8.3063  1.8870
   3  -3 -12  4.1683  4.7086
   2  -3 -12  40.167   2.204
   2  -3 -12  36.392   2.187
   2  -3 -12  36.214   2.474
  -2   3  12  41.968   2.732
   2  -3 -12  46.538   8.172
   2  -3 -12  46.408   8.101
   1  -3 -12  25.114   1.426
   1  -3 -12  24.922   1.825
   1  -3 -12  29.645   1.826
  -1   3  12  22.931   1.878
  -1   3  12  24.032   1.821
  -1   3  12  24.268   1.760
  -1   3  12  25.456   2.308
   1  -3 -12  32.245   5.641
   1  -3 -12  33.516   7.564
  -1   3  12  24.442   5.557
   0  -3 -12  245.23   12.93
   0  -3 -12  303.07   12.52
   0   3  12  312.93   15.68
   0   3  12  280.54   12.56
   0   3  12  296.01    8.54
   0  -3 -12  349.02   36.48
   0  -3 -12  324.17   33.35
   0   3  12  277.05   23.84
  -1  -3 -12  33.759   1.798
   1   3  12  31.929   2.241
   1   3  12  33.250   1.848
  -1  -3 -12  31.821   7.157
  -1  -3 -12  21.589   4.907
   1   3  12  27.864   6.832
  -2  -3 -12  1.0779  0.9262
  -2  -3 -12  1.2768  1.0215
   2   3  12  3.0370  1.1352
   2   3  12  1.4248  1.0949
  -2  -3 -12  -2.387   5.834
  -2  -3 -12  -1.273   5.074
   2   3  12  10.746   6.648
  -3  -3 -12  4.4896  0.4124
  -3  -3 -12  5.4526  1.3133
  -3  -3 -12  2.6378  1.1029
  -3  -3 -12  4.3759  0.3773
   3   3  12  2.6960  1.2664
   3   3  12  4.0940  1.5185
  -3  -3 -12  1.1270  5.0731
  -3  -3 -12  9.2881  4.6489
  -4  -3 -12  686.02   53.04
  -4  -3 -12  629.31   21.90
  -4  -3 -12  632.54   30.00
   4   3  12  635.78   28.74
   4   3  12  621.71   33.49
  -4  -3 -12  680.00   49.68
  -5  -3 -12  37.496   3.564
  -5  -3 -12  34.883   3.569
  -5  -3 -12  35.099   3.034
   5   3  12  32.038   2.680
   5   3  12  33.962   2.763
  -5  -3 -12  29.847  11.898
  -6  -3 -12  21.771   3.584
  -6  -3 -12  30.135   3.276
  -6  -3 -12  28.072   3.933
   6   3  12  38.735   3.593
   6   3  12  29.589   3.584
  -6  -3 -12  33.490  12.100
   5  -4 -12  49.493   4.034
   5  -4 -12  37.329   4.155
  -5   4  12  55.446   4.964
   5  -4 -12  40.879  10.847
   4  -4 -12  64.752   3.945
   4  -4 -12  69.898   4.843
  -4   4  12  68.213   4.332
  -4   4  12  59.032   5.896
   4  -4 -12  58.663  11.467
   3  -4 -12  80.779   3.851
   3  -4 -12  89.657   4.513
  -3   4  12  90.709   5.599
  -3   4  12  79.959   6.107
   3  -4 -12  70.628  11.067
   2  -4 -12 -0.3876  1.5841
   2  -4 -12 -0.9732  1.6558
  -2   4  12  2.1918  1.4193
  -2   4  12  2.2026  1.6189
   2  -4 -12  -3.726   4.167
   1  -4 -12  288.02    6.47
   1  -4 -12  282.02    6.48
  -1   4  12  285.88   14.66
   1  -4 -12  278.84   26.86
   1  -4 -12  318.24   26.76
   0  -4 -12  28.217   1.721
   0  -4 -12  26.054   1.657
   0   4  12  29.846   2.157
   0   4  12  27.227   1.837
   0  -4 -12  17.972   6.035
   0  -4 -12  12.464   5.143
  -1  -4 -12  664.67   19.61
  -1  -4 -12  671.07   29.17
   1   4  12  690.85   23.92
   1   4  12  677.94   30.97
  -1  -4 -12  665.82   42.43
  -1  -4 -12  715.51   37.54
  -2  -4 -12  154.34    6.31
  -2  -4 -12  158.53    9.65
   2   4  12  161.68    6.66
   2   4  12  148.76    5.88
  -2  -4 -12  157.82   16.54
  -2  -4 -12  153.45   11.50
  -3  -4 -12  94.590   4.860
  -3  -4 -12  83.974   4.142
   3   4  12  89.643   4.316
   3   4  12  79.797   5.166
  -3  -4 -12  83.961   9.870
  -4  -4 -12  289.96   18.63
  -4  -4 -12  308.98   20.93
   4   4  12  319.16   17.94
   4   4  12  315.15   15.66
  -4  -4 -12  331.72   24.73
  -5  -4 -12  297.11   16.22
  -5  -4 -12  293.48   14.70
   5   4  12  277.02   16.97
   5   4  12  287.13   19.63
  -5  -4 -12  251.61   23.47
  -6  -4 -12  23.768   3.107
  -6  -4 -12  22.982   2.675
  -6  -4 -12  21.521   4.176
   6   4  12  25.361   3.238
   6   4  12  20.848   3.347
  -6  -4 -12  18.494   9.477
   5  -5 -12  1.2737  2.3126
   5  -5 -12  0.2036  3.0431
  -5   5  12 -0.0276  2.7675
   5  -5 -12  4.0236  9.8064
   4  -5 -12  4.5839  1.8543
   4  -5 -12  3.2083  2.2419
  -4   5  12  3.5243  2.2530
   3  -5 -12  40.669   3.338
   3  -5 -12  38.838   2.946
  -3   5  12  46.184   3.217
  -3   5  12  35.688   3.773
   3  -5 -12  32.770   7.468
   2  -5 -12  84.993   3.504
   2  -5 -12  82.264   3.176
  -2   5  12  86.723   5.167
  -2   5  12  90.277   3.600
   2  -5 -12  89.261  10.518
   1  -5 -12  150.86    7.13
   1  -5 -12  156.04    4.68
  -1   5  12  155.12    5.87
   1  -5 -12  169.88   14.96
   1  -5 -12  167.34   12.05
   0  -5 -12  16.701   2.268
   0  -5 -12  23.738   2.150
   0   5  12  21.100   1.489
   0   5  12  21.877   2.358
   0  -5 -12  17.094   4.628
   0  -5 -12  17.513   5.714
  -1  -5 -12  150.85    6.68
  -1  -5 -12  141.31    4.60
   1   5  12  140.54    6.08
   1   5  12  138.50    7.50
  -1  -5 -12  129.29   14.62
  -1  -5 -12  138.99   15.16
  -2  -5 -12  103.89    4.66
  -2  -5 -12  103.59    4.57
  -2  -5 -12  100.89    6.74
   2   5  12  98.649   3.770
   2   5  12  108.47    5.59
  -2  -5 -12  99.139  10.075
  -3  -5 -12  39.569   2.129
  -3  -5 -12  39.090   3.213
  -3  -5 -12  39.177   2.405
   3   5  12  35.269   3.042
   3   5  12  40.250   2.823
  -3  -5 -12  35.858   6.420
  -4  -5 -12  -3.043   1.470
   4   5  12  1.8574  1.6286
   4   5  12  2.6189  1.2644
  -4  -5 -12  8.2681  8.1410
  -5  -5 -12  41.994   3.480
  -5  -5 -12  39.630   4.234
   5   5  12  38.233   4.119
   5   5  12  39.190   2.917
  -5  -5 -12  43.847   9.992
  -6  -5 -12  18.035   2.458
  -6  -5 -12  12.905   2.640
   6   5  12  15.758   2.545
   6   5  12  16.310   3.284
  -6  -5 -12  1.4640  9.1280
   4  -6 -12  28.861   3.614
   4  -6 -12  19.577   3.370
  -4   6  12  19.200   2.916
   4  -6 -12  22.899  11.180
   3  -6 -12  18.809   3.122
   3  -6 -12  19.539   2.804
  -3   6  12  20.525   3.472
  -3   6  12  16.436   2.474
   3  -6 -12  20.058   6.609
   2  -6 -12  1.9981  1.5637
   2  -6 -12 -0.1738  2.0421
  -2   6  12  2.6510  1.8119
  -2   6  12  1.8719  1.8816
   2  -6 -12  7.2881  6.5211
   1  -6 -12  25.010   2.293
   1  -6 -12  23.531   2.330
  -1   6  12  25.780   2.365
   1  -6 -12  13.768   6.014
   0  -6 -12  35.690   2.207
   0  -6 -12  38.527   2.381
   0   6  12  38.950   2.381
   0  -6 -12  40.191   7.027
   0  -6 -12  42.227   6.460
  -1  -6 -12  225.54    7.67
  -1  -6 -12  237.60    7.24
   1   6  12  244.20   11.36
   1   6  12  231.24   13.08
  -1  -6 -12  250.69   23.06
  -1  -6 -12  205.59   21.40
  -2  -6 -12  13.340   1.480
  -2  -6 -12  15.657   1.365
  -2  -6 -12  13.428   1.968
   2   6  12  12.424   1.474
   2   6  12  16.243   2.109
  -2  -6 -12  9.2519  5.5413
  -3  -6 -12  55.861   4.076
  -3  -6 -12  59.778   3.584
  -3  -6 -12  59.191   3.919
   3   6  12  50.760   3.206
   3   6  12  55.591   3.460
  -3  -6 -12  52.671   8.673
  -4  -6 -12  30.560   3.044
   4   6  12  33.045   2.695
   4   6  12  33.725   3.718
  -4  -6 -12  28.478   8.989
  -5  -6 -12  83.303   6.753
  -5  -6 -12  72.396   7.717
   5   6  12  83.474   6.337
   5   6  12  78.074   5.353
  -5  -6 -12  52.813  13.727
  -6  -6 -12  6.9449  2.6156
  -6  -6 -12  8.5521  2.6299
   6   6  12  13.651   3.684
   6   6  12  10.721   3.647
  -6  -6 -12  -1.060   9.855
   3  -7 -12  285.22   12.89
   3  -7 -12  276.94   11.38
  -3   7  12  275.67   18.28
   3  -7 -12  278.46   26.41
   2  -7 -12  143.53    8.50
   2  -7 -12  154.24    6.14
  -2   7  12  141.03    9.06
  -2   7  12  144.35   10.13
   2  -7 -12  162.80   13.12
   1  -7 -12  24.552   2.797
   1  -7 -12  22.754   2.472
  -1   7  12  20.943   2.514
  -1   7  12  19.887   2.751
   1  -7 -12  17.002   6.470
   0  -7 -12  1.0712  1.7754
   0  -7 -12  0.3612  1.2625
   0   7  12  1.4558  1.6799
   0  -7 -12  0.0236  4.8098
  -1  -7 -12  78.479   3.434
  -1  -7 -12  77.579   4.337
   1   7  12  78.189   4.609
   1   7  12  76.383   5.595
  -1  -7 -12  66.566   8.708
  -2  -7 -12  46.027   2.769
  -2  -7 -12  50.442   2.607
  -2  -7 -12  39.976   3.055
   2   7  12  40.297   2.879
   2   7  12  38.812   3.829
  -2  -7 -12  48.372   7.823
  -3  -7 -12  37.839   3.250
   3   7  12  30.908   2.701
   3   7  12  33.280   3.474
  -3  -7 -12  26.613   8.523
  -4  -7 -12  1.9215  1.5849
   4   7  12  2.6493  1.8207
   4   7  12  0.9510  1.6865
  -4  -7 -12  5.3442  8.9532
  -5  -7 -12  44.384   5.556
   5   7  12  57.138   4.948
   5   7  12  51.369   4.655
  -5  -7 -12  48.299  12.426
   3  -8 -12  15.395   3.279
   3  -8 -12  11.498   2.501
  -3   8  12  14.081   2.862
   3  -8 -12  12.380   8.352
   2  -8 -12  9.9036  2.5844
   2  -8 -12  6.1462  1.9446
  -2   8  12  2.8393  2.0342
  -2   8  12  4.8743  2.0491
   2  -8 -12  3.4140  6.4153
   1  -8 -12  19.160   2.901
   1  -8 -12  17.604   2.456
  -1   8  12  18.582   2.793
  -1   8  12  17.293   2.211
   1  -8 -12  12.507   6.601
   0  -8 -12  82.797   4.626
   0  -8 -12  81.780   4.718
   0   8  12  84.550   6.141
   0  -8 -12  69.903   8.880
  -1  -8 -12  197.55   11.27
  -1  -8 -12  196.17   10.48
   1   8  12  204.26   11.87
  -1  -8 -12  219.33   13.22
  -2  -8 -12  16.302   2.316
   2   8  12  14.601   2.099
  -2  -8 -12  9.5079  6.6890
  -3  -8 -12  2.9191  2.0282
   3   8  12  0.5284  1.6124
  -3  -8 -12 -0.2139  5.4598
  -4  -8 -12  2.6775  1.6440
   4   8  12  1.6842  2.5711
   4   8  12  2.4449  1.7258
  -4  -8 -12  -1.626   7.424
   1  -9 -12  1.4750  2.8770
   1  -9 -12  0.7369  1.9141
  -1   9  12  1.7191  2.3953
  -1   9  12 -0.1446  1.5326
   1  -9 -12  -1.957   4.107
   0  -9 -12  73.962   4.993
   0  -9 -12  79.611   5.816
   0   9  12  67.446   5.780
   0   9  12  64.065   4.759
   0  -9 -12  71.692   7.188
   0  -9 -12  66.948   7.122
  -1  -9 -12  112.77    7.20
  -1  -9 -12  118.67    8.18
   1   9  12  127.82    8.60
  -1  -9 -12  115.44    8.81
  -2  -9 -12  69.372   4.392
   2   9  12  62.014   5.418
  -2  -9 -12  76.983   8.757
  -3  -9 -12  11.726   1.988
   3   9  12  13.062   3.279
  -3  -9 -12  13.709   8.618
   2   6 -13  4.6840  1.9023
   2   6 -13  7.5465  2.0233
  -2  -6  13  2.5740  2.9436
  -2  -6  13  -19.81   14.83
   1   6 -13  46.238   3.985
   1   6 -13  45.008   4.063
  -1  -6  13  45.646   4.965
  -1  -6  13  19.714  14.616
   0   6 -13  108.23    8.29
   0   6 -13  102.14    6.12
   0  -6  13  105.93    7.36
   0  -6  13  121.28    7.19
   0  -6  13  106.46   15.13
  -1   6 -13  51.969   4.416
   1  -6  13  49.923   5.165
   1  -6  13  46.380   4.747
   1  -6  13  24.773  11.023
  -2   6 -13  1.3939  2.7978
   2  -6  13  2.0768  1.9681
   2  -6  13  4.4750  3.0184
   2  -6  13  -1.089   9.137
   4   5 -13  26.525   3.008
  -4  -5  13  46.960  21.808
   3   5 -13  12.778   2.711
   3   5 -13  15.514   2.537
  -3  -5  13  16.472   3.382
  -3  -5  13  13.361  11.619
   2   5 -13  91.294   6.101
   2   5 -13  79.383   5.310
  -2  -5  13  95.011   8.098
  -2  -5  13  63.890  17.982
   1   5 -13  3.3726  2.0393
   1   5 -13  1.2041  1.5050
  -1  -5  13  2.0863  1.6760
  -1  -5  13  4.1431  2.6135
  -1  -5  13   8.319  12.421
   0   5 -13  0.5519  1.6726
   0   5 -13  0.3759  1.6093
   0  -5  13 -0.3816  2.1722
   0  -5  13  -1.405   2.087
   0  -5  13  -2.181   7.260
  -1   5 -13  0.4554  1.3603
   1  -5  13 -0.3419  1.5008
   1  -5  13  0.3691  2.2490
   1  -5  13  11.717  11.818
  -2   5 -13  1.3660  2.3232
   2  -5  13  0.9344  2.4553
   2  -5  13 -0.4121  1.7580
   2  -5  13  5.6728  8.1921
  -3   5 -13  54.979   5.335
   3  -5  13  51.722   5.303
   3  -5  13  51.813   5.589
   3  -5  13  26.457  15.537
   4   4 -13  128.80    8.22
   4   4 -13  105.05    6.76
  -4  -4  13  110.54    8.29
  -4  -4  13  64.162  21.061
   3   4 -13  88.539   4.992
   3   4 -13  95.614   5.556
  -3  -4  13  85.691   5.943
  -3  -4  13  76.519   5.296
  -3  -4  13  61.120  16.852
   2   4 -13  14.763   2.238
   2   4 -13  17.620   2.701
  -2  -4  13  12.761   2.331
  -2  -4  13  13.238  13.208
   1   4 -13  2.0416  1.2781
   1   4 -13  4.4866  2.0860
  -1  -4  13  0.1111  1.7619
  -1  -4  13 -0.6622  1.2769
  -1  -4  13 -0.3223  7.6260
   0   4 -13  0.6966  1.6000
   0   4 -13  0.9988  1.6465
   0  -4  13  3.8668  2.2249
   0  -4  13  4.5204  2.0965
   0  -4  13 -0.3176  9.8620
  -1   4 -13  44.082   3.042
  -1   4 -13  57.407   3.903
   1  -4  13  56.368   3.767
   1  -4  13  40.735   3.297
   1  -4  13  36.474   8.755
  -2   4 -13  223.34   11.21
  -2   4 -13  248.63   10.36
   2  -4  13  237.37   13.70
   2  -4  13  246.46   15.16
   2  -4  13  210.75   21.98
  -3   4 -13  25.043   3.061
  -3   4 -13  19.309   2.726
   3  -4  13  19.176   2.425
   3  -4  13  23.505   3.177
   3  -4  13  19.870  12.024
  -4   4 -13  3.3483  1.7078
  -4   4 -13  5.9626  2.5797
   4  -4  13  5.5543  2.8897
   4  -4  13  3.9731  2.7049
   4  -4  13  -17.14   13.91
   5   3 -13  23.131   2.699
   5   3 -13  32.924   3.668
   5   3 -13  25.968   3.277
  -5  -3  13  27.780   3.654
   4   3 -13  43.129   3.492
   4   3 -13  53.188   4.624
  -4  -3  13  49.850   4.875
  -4  -3  13  31.604  12.799
   3   3 -13  52.861   3.381
   3   3 -13  46.246   3.620
  -3  -3  13  43.760   3.717
  -3  -3  13  47.225   4.454
  -3  -3  13  35.815  11.184
   2   3 -13  5.0181  1.2734
   2   3 -13  5.5804  1.5571
  -2  -3  13  6.3381  1.4183
  -2  -3  13  6.6305  2.0018
  -2  -3  13  11.020  12.069
   1   3 -13  66.915   3.169
   1   3 -13  66.727   3.377
  -1  -3  13  66.079   4.022
  -1  -3  13  71.634   4.016
  -1  -3  13  62.296   4.379
  -1  -3  13  67.588   5.140
  -1  -3  13  49.207  11.692
   0   3 -13  17.709   1.995
   0   3 -13  21.214   2.046
   0  -3  13  22.058   2.301
   0  -3  13  20.070   2.143
   0  -3  13  18.290   1.828
   0  -3  13  12.831   7.446
  -1   3 -13  114.89    5.35
  -1   3 -13  99.658   7.052
  -1   3 -13  107.87    5.35
   1  -3  13  105.06    5.37
   1  -3  13  113.44    6.07
   1  -3  13  106.66    5.59
   1  -3  13  62.073   9.401
  -2   3 -13  68.403   4.028
  -2   3 -13  63.934   5.018
   2  -3  13  72.836   5.814
   2  -3  13  73.638   4.086
   2  -3  13  64.487   4.137
   2  -3  13  49.599  10.618
  -3   3 -13  73.187   4.689
  -3   3 -13  87.683   5.780
   3  -3  13  77.757   4.495
   3  -3  13  81.245   4.823
   3  -3  13  81.011   6.843
   3  -3  13  62.909  13.705
  -4   3 -13  3.5416  1.8836
  -4   3 -13  1.1647  1.6740
   4  -3  13  2.3611  1.8950
   4  -3  13  3.2460  2.5557
   4  -3  13  -4.781  14.024
  -5   3 -13  91.760   7.195
   5  -3  13  111.25   10.01
   5  -3  13  111.48   10.09
   5  -3  13  91.914  21.714
   5   2 -13  62.452   4.984
   5   2 -13  62.818   5.137
   5   2 -13  70.830   5.832
  -5  -2  13  71.665   6.981
   4   2 -13  0.1229  1.4918
   4   2 -13  0.8156  1.3458
   4   2 -13 -0.3562  1.1778
  -4  -2  13  3.0622  1.8477
  -4  -2  13  -8.404  14.904
   3   2 -13  5.8339  1.3454
   3   2 -13  8.2383  1.8077
  -3  -2  13  6.9160  1.6806
  -3  -2  13  4.6120  1.7454
  -3  -2  13  11.425  13.232
   2   2 -13  62.845   2.936
   2   2 -13  58.158   2.901
  -2  -2  13  64.996   5.004
  -2  -2  13  58.114   3.165
  -2  -2  13  62.922   4.723
  -2  -2  13  60.346  12.694
   1   2 -13  0.1378  1.1615
   1   2 -13  0.1174  1.0736
  -1  -2  13  0.8786  0.8823
  -1  -2  13  0.9058  1.3824
  -1  -2  13 -0.5718  1.8955
  -1  -2  13  2.1107  1.3302
  -1  -2  13  -1.855   8.654
   0   2 -13  303.54   10.74
   0   2 -13  312.81   13.04
   0  -2  13  312.76   19.45
   0  -2  13  308.90   12.37
   0  -2  13  319.17   13.87
   0  -2  13  337.51   12.68
   0  -2  13  359.25   25.88
  -1   2 -13  351.81   14.71
  -1   2 -13  331.71   12.53
   1  -2  13  333.28   15.95
   1  -2  13  326.87   32.66
   1  -2  13  333.46   14.53
   1  -2  13  311.76   11.92
   1  -2  13  346.92   23.94
  -2   2 -13  172.77    7.66
  -2   2 -13  180.16    6.46
  -2   2 -13  164.69   10.45
   2  -2  13  178.36    8.88
   2  -2  13  176.68    7.59
   2  -2  13  149.66    7.28
   2  -2  13  156.14   14.09
  -3   2 -13  54.508   4.029
  -3   2 -13  63.325   3.556
   3  -2  13  57.413   3.444
   3  -2  13  61.854   3.680
   3  -2  13  55.293   4.382
   3  -2  13  44.813  11.538
  -4   2 -13  22.980   2.578
  -4   2 -13  23.131   3.095
   4  -2  13  24.533   2.485
   4  -2  13  23.323   2.695
   4  -2  13  20.899   2.343
   4  -2  13  19.158  12.222
  -5   2 -13  1.6468  2.1738
  -5   2 -13  4.6555  1.5482
   5  -2  13  4.1757  1.5663
   5  -2  13  2.4588  1.5437
   5  -2  13  -14.51   12.75
   5   1 -13  137.29    8.61
   5   1 -13  135.74    8.88
   5   1 -13  129.83    9.45
  -5  -1  13  132.34   13.06
   4   1 -13  145.23    8.48
   4   1 -13  148.78    9.85
   4   1 -13  145.76    8.62
  -4  -1  13  159.30    8.90
   3   1 -13  38.927   3.328
   3   1 -13  34.169   2.904
  -3  -1  13  41.256   3.012
  -3  -1  13  35.635   3.172
  -3  -1  13  31.039   2.237
  -3  -1  13  40.989   2.484
   3   1 -13  27.315   9.151
  -3  -1  13  13.790   9.130
   2   1 -13  73.388   3.108
   2   1 -13  72.385   2.743
  -2  -1  13  72.783   4.395
  -2  -1  13  66.894   3.847
  -2  -1  13  73.514   5.213
   2   1 -13  47.845  10.169
  -2  -1  13  44.836  11.584
   1   1 -13  6.1260  1.5618
   1   1 -13  6.3879  1.0174
  -1  -1  13  6.6411  1.2823
  -1  -1  13  5.5263  1.5378
  -1  -1  13  5.4968  1.0808
  -1  -1  13  4.3354  0.9957
   1   1 -13  5.8937  3.6897
  -1  -1  13  7.2903  6.1172
   0   1 -13  45.838   1.873
   0   1 -13  40.030   2.386
   0  -1  13  45.921   2.914
   0  -1  13  43.546   2.502
   0  -1  13  49.869   3.068
   0  -1  13  48.515   2.795
   0   1 -13  30.675   6.391
   0  -1  13  29.262   7.964
  -1   1 -13  16.599   1.651
   1  -1  13  18.488   2.050
   1  -1  13  16.644   1.728
   1  -1  13  17.091   1.577
   1  -1  13  17.103   1.803
   1  -1  13  18.047   1.588
  -1   1 -13  7.3025  4.9405
   1  -1  13  8.5797  6.8442
  -2   1 -13  96.462   6.584
  -2   1 -13  112.63    8.37
  -2   1 -13  101.18    5.03
   2  -1  13  101.70    5.55
   2  -1  13  111.70    4.69
   2  -1  13  106.83    6.26
  -2   1 -13  82.419  10.973
   2  -1  13  75.852  12.604
  -3   1 -13  15.357   1.298
  -3   1 -13  15.915   1.968
  -3   1 -13  11.618   2.495
   3  -1  13  14.829   1.979
   3  -1  13  12.041   1.884
   3  -1  13  14.352   1.864
   3  -1  13  -1.438  10.279
  -4   1 -13  147.63    8.45
  -4   1 -13  159.61    7.25
   4  -1  13  153.57    8.65
   4  -1  13  160.46   12.59
   4  -1  13  150.09    6.72
   4  -1  13  133.73   16.47
  -5   1 -13  286.34   13.45
  -5   1 -13  271.10   13.66
   5  -1  13  280.98   19.21
   5  -1  13  269.22   18.48
   5  -1  13  239.05   32.94
   5   0 -13  10.093   2.499
   5   0 -13  8.6816  2.2821
   5   0 -13  10.030   2.000
  -5   0  13  8.4284  2.0665
   4   0 -13  73.067   4.457
   4   0 -13  71.713   3.690
   4   0 -13  73.975   4.196
  -4   0  13  78.834   4.535
  -4   0  13  70.117   3.993
  -4   0  13  71.896   6.463
   4   0 -13  52.565  12.317
   3   0 -13  1.6779  1.1291
   3   0 -13  0.8726  1.6947
   3   0 -13  1.7380  1.1796
  -3   0  13  1.1841  1.5687
  -3   0  13  1.8856  1.5492
  -3   0  13  3.0356  1.0535
   3   0 -13  5.5569  6.7412
  -3   0  13  4.1367  8.2277
   2   0 -13  92.857   4.428
   2   0 -13  95.368   3.902
  -2   0  13  96.296   5.663
  -2   0  13  95.247   5.950
   2   0 -13  90.721  11.766
  -2   0  13  87.161  11.119
   1   0 -13 1405.09   30.20
  -1   0  13 1448.85   78.23
  -1   0  13 1509.46   86.87
  -1   0  13 1522.99   64.95
   1   0 -13 1498.57   86.16
  -1   0  13 1545.80  108.01
   0   0 -13  170.48    5.20
   0   0 -13  175.40    5.10
   0   0  13  168.14    5.66
   0   0  13  165.97    8.31
   0   0  13  181.50    6.92
   0   0  13  157.26    9.09
   0   0 -13  161.51   12.93
   0   0  13  149.83   13.66
  -1   0 -13  13.813   1.210
  -1   0 -13  14.411   1.434
   1   0  13  12.218   1.221
   1   0  13  11.199   1.610
   1   0  13  11.296   1.860
   1   0  13  11.784   1.576
   1   0  13  15.517   1.391
  -1   0 -13  5.9545  5.3230
   1   0  13 -0.0941  5.9628
  -2   0 -13  29.005   1.995
  -2   0 -13  28.020   1.660
  -2   0 -13  26.244   2.450
   2   0  13  23.507   2.984
   2   0  13  27.373   2.063
   2   0  13  30.996   2.097
   2   0  13  31.306   2.766
   2   0  13  29.404   2.820
  -2   0 -13  14.604   7.511
   2   0  13  9.9954  7.9006
  -3   0 -13  1.8284  1.3632
  -3   0 -13  0.8526  0.7428
  -3   0 -13  0.8874  1.6860
   3   0  13  2.2025  1.1107
   3   0  13 -0.2252  0.9726
   3   0  13  3.0148  1.6051
  -3   0 -13  0.8690  5.6454
   3   0  13  11.385   9.173
  -4   0 -13  54.035   3.837
  -4   0 -13  60.147   3.759
  -4   0 -13  68.880   3.403
   4   0  13  66.160   4.215
   4   0  13  49.880   3.628
   4   0  13  39.498  10.391
  -5   0 -13  194.70    9.79
   5   0  13  199.61   17.52
   5   0  13  209.85   10.01
  -6   0 -13  8.0333  3.9040
   6   0  13  11.318   2.347
   5  -1 -13  167.83   10.95
   5  -1 -13  177.20   12.19
   5  -1 -13  177.94   10.54
  -5   1  13  192.14   12.86
  -5   1  13  174.87   13.02
   5  -1 -13  183.98   25.39
   4  -1 -13  9.9975  2.3218
   4  -1 -13  9.4838  1.5805
   4  -1 -13  9.8457  1.9701
  -4   1  13  5.7105  2.3463
  -4   1  13  15.044   2.326
  -4   1  13  12.902   2.702
   4  -1 -13  0.5215  9.7917
   3  -1 -13  63.978   2.967
   3  -1 -13  62.538   3.669
   3  -1 -13  68.184   3.025
  -3   1  13  71.318   4.727
  -3   1  13  67.396   3.978
   3  -1 -13  59.139  11.009
   2  -1 -13  129.87    3.99
   2  -1 -13  136.19    5.49
  -2   1  13  139.54    7.50
  -2   1  13  125.50    7.67
   2  -1 -13  124.52   13.25
  -2   1  13  107.66   12.14
   1  -1 -13  459.31   15.48
   1  -1 -13  436.30   13.30
  -1   1  13  481.61   21.55
  -1   1  13  467.62   22.95
  -1   1  13  456.40   21.54
   1  -1 -13  489.53   47.77
   1  -1 -13  488.04   26.65
  -1   1  13  444.72   33.84
   0  -1 -13  58.254   2.246
   0  -1 -13  54.696   2.831
   0   1  13  57.350   2.632
   0   1  13  60.476   3.851
   0   1  13  54.345   2.986
   0   1  13  51.749   2.620
   0  -1 -13  65.401  10.694
   0  -1 -13  46.618   6.623
   0   1  13  41.118   8.133
  -1  -1 -13  9.4206  1.2336
  -1  -1 -13  10.833   0.722
   1   1  13  7.8534  1.3168
   1   1  13  9.2709  1.6857
   1   1  13  10.171   1.448
  -1  -1 -13  1.8743  4.3947
   1   1  13  4.8330  5.5744
  -2  -1 -13  162.58    6.75
  -2  -1 -13  163.71    6.71
   2   1  13  156.37    4.93
   2   1  13  172.63    7.88
  -2  -1 -13  161.85   14.17
   2   1  13  136.67   14.37
  -3  -1 -13  168.15    7.01
  -3  -1 -13  167.11    8.31
  -3  -1 -13  161.88    9.16
  -3  -1 -13  161.86   11.17
   3   1  13  159.39    6.65
   3   1  13  175.84   10.12
  -3  -1 -13  155.55   16.67
   3   1  13  121.72   12.38
  -4  -1 -13  74.550   3.547
  -4  -1 -13  66.752   6.798
  -4  -1 -13  69.690   3.998
  -4  -1 -13  88.501   6.548
   4   1  13  77.022   4.494
   4   1  13  71.777   5.279
  -4  -1 -13  57.585  10.198
   4   1  13  36.326   8.649
  -5  -1 -13  35.334   2.699
  -5  -1 -13  34.232   3.464
   5   1  13  37.048   3.407
   5   1  13  32.832   2.338
  -6  -1 -13  88.728   8.263
   6   1  13  92.270   6.729
   5  -2 -13 -0.3449  2.2109
   5  -2 -13  4.0886  2.7402
   5  -2 -13  0.9678  1.3797
  -5   2  13  0.2790  1.7827
  -5   2  13 -0.4377  2.7696
  -5   2  13  1.3113  1.9786
   5  -2 -13  3.9460  9.0453
   4  -2 -13  23.852   2.731
   4  -2 -13  27.469   2.390
   4  -2 -13  29.018   2.719
  -4   2  13  26.465   3.098
  -4   2  13  28.291   2.979
   4  -2 -13  18.683   8.351
   3  -2 -13  0.8174  1.6889
   3  -2 -13  0.9941  1.3483
   3  -2 -13  1.7260  1.4574
  -3   2  13 -0.1037  1.0876
  -3   2  13  0.2083  1.7146
   3  -2 -13  -5.035   7.705
   2  -2 -13  174.75    6.13
   2  -2 -13  173.53    6.12
   2  -2 -13  169.32    6.90
  -2   2  13  157.68    7.11
   2  -2 -13  175.28   15.79
   1  -2 -13  24.675   2.112
   1  -2 -13  23.762   1.537
  -1   2  13  24.141   1.517
  -1   2  13  27.103   2.544
  -1   2  13  18.969   1.324
   1  -2 -13  20.501   6.960
   1  -2 -13  21.160   6.690
  -1   2  13  14.219   8.797
   0  -2 -13  805.59   19.99
   0   2  13  851.58   23.87
   0   2  13  881.06   52.98
   0   2  13  790.32   61.14
   0  -2 -13  888.08   80.26
   0  -2 -13  937.33   53.24
   0   2  13  882.29   57.02
  -1  -2 -13  297.73    7.77
  -1  -2 -13  302.02   12.70
   1   2  13  286.73   13.80
   1   2  13  298.13    8.97
  -1  -2 -13  335.07   24.66
  -1  -2 -13  288.01   19.99
   1   2  13  288.98   18.70
  -2  -2 -13  122.34    4.11
  -2  -2 -13  141.64    8.79
  -2  -2 -13  125.71    6.25
   2   2  13  117.43    5.81
   2   2  13  133.12    6.68
  -2  -2 -13  133.96   16.04
  -2  -2 -13  101.03   12.16
   2   2  13  97.929  12.421
  -3  -2 -13  307.44   15.35
  -3  -2 -13  320.86   14.56
  -3  -2 -13  317.67   12.62
   3   2  13  338.52   13.82
   3   2  13  332.00   17.80
  -3  -2 -13  359.98   36.65
   3   2  13  305.03   27.08
  -4  -2 -13  217.96   23.45
  -4  -2 -13  206.86   13.28
  -4  -2 -13  215.28   11.79
   4   2  13  219.73    9.82
   4   2  13  211.06   11.13
  -4  -2 -13  160.72   28.69
  -5  -2 -13  25.869   2.291
  -5  -2 -13  27.691   2.470
  -5  -2 -13  26.382   3.434
  -5  -2 -13  26.231   2.219
   5   2  13  29.310   2.685
   5   2  13  26.323   3.777
  -5  -2 -13  14.512  12.600
  -6  -2 -13  2.1795  2.7045
   6   2  13  0.9739  2.1829
   6   2  13  2.3798  2.3912
   5  -3 -13  6.7337  2.1907
   5  -3 -13  3.8166  2.0978
   5  -3 -13  5.2923  1.7158
  -5   3  13  4.7531  2.6725
  -5   3  13  2.3852  1.9701
   4  -3 -13  1.7914  1.5887
   4  -3 -13  0.0822  1.5296
   4  -3 -13  0.3468  1.9427
  -4   3  13  0.2996  1.4410
  -4   3  13  1.9536  1.8636
   4  -3 -13  -2.996   9.586
   3  -3 -13  24.289   2.169
   3  -3 -13  25.254   2.772
   3  -3 -13  22.430   2.108
  -3   3  13  29.188   2.633
  -3   3  13  23.032   2.829
   3  -3 -13  7.0063  7.9484
   2  -3 -13  167.44    8.73
   2  -3 -13  179.74    5.45
   2  -3 -13  190.00    8.88
  -2   3  13  191.13    9.27
   2  -3 -13  163.76   11.90
   1  -3 -13  52.747   3.063
   1  -3 -13  59.177   2.859
   1  -3 -13  53.991   3.629
  -1   3  13  52.235   3.802
  -1   3  13  52.866   3.774
  -1   3  13  59.856   3.632
   1  -3 -13  63.117  10.653
   1  -3 -13  45.970   6.709
   0  -3 -13  28.292   1.779
   0  -3 -13  30.584   1.597
   0   3  13  29.555   2.312
   0   3  13  26.455   1.579
   0   3  13  29.281   1.818
   0  -3 -13  34.885   7.938
   0  -3 -13  24.812   6.248
  -1  -3 -13  410.20    9.98
   1   3  13  388.47   15.54
   1   3  13  420.40   13.51
  -1  -3 -13  436.79   39.85
  -1  -3 -13  453.24   22.85
   1   3  13  423.54   28.84
  -2  -3 -13  13.055   1.614
  -2  -3 -13  9.0578  1.4037
   2   3  13  9.1653  1.1654
   2   3  13  7.3395  1.8036
  -2  -3 -13  10.761   5.425
  -2  -3 -13  5.2193  5.2613
  -3  -3 -13  108.46    7.01
  -3  -3 -13  109.65    4.53
   3   3  13  120.41    7.30
   3   3  13  109.63    5.94
  -3  -3 -13  103.75   14.36
  -4  -3 -13  0.1853  0.7955
  -4  -3 -13  0.6054  1.0095
   4   3  13  1.5411  1.8528
   4   3  13  3.3192  1.7647
  -4  -3 -13  -6.074   7.405
  -5  -3 -13  13.432   1.942
  -5  -3 -13  13.952   1.809
  -5  -3 -13  11.774   2.307
   5   3  13  16.558   2.683
   5   3  13  10.361   2.023
  -5  -3 -13  7.4166  8.5209
  -6  -3 -13  19.470   2.791
  -6  -3 -13  22.563   2.933
  -6  -3 -13  24.384   3.427
   6   3  13  27.531   3.218
   6   3  13  26.858   3.774
   5  -4 -13  17.163   2.618
   5  -4 -13  21.455   3.742
  -5   4  13  17.710   2.913
   5  -4 -13  1.6810  9.5897
   4  -4 -13  1.4462  2.4131
   4  -4 -13 -0.9658  1.9954
  -4   4  13  1.1256  2.0086
  -4   4  13  0.8323  1.9500
   4  -4 -13  -4.252   7.502
   3  -4 -13  7.4331  2.3496
   3  -4 -13  9.0716  2.2194
  -3   4  13  8.9802  2.1164
   3  -4 -13  5.7795  6.1636
   2  -4 -13  205.03    7.30
   2  -4 -13  192.44    6.91
  -2   4  13  208.59   10.67
  -2   4  13  200.40   11.99
   2  -4 -13  200.97   16.89
   1  -4 -13  3.8381  1.2463
   1  -4 -13  2.2814  1.0457
  -1   4  13  3.9000  1.2126
   1  -4 -13  -8.471   5.754
   0  -4 -13  237.01    7.63
   0  -4 -13  233.99   10.02
   0   4  13  245.04   14.20
   0   4  13  249.05    9.99
   0  -4 -13  256.88   22.19
   0  -4 -13  251.61   20.21
  -1  -4 -13  8.8302  1.1407
  -1  -4 -13  12.996   1.258
   1   4  13  9.5943  1.2166
   1   4  13  10.457   1.613
  -1  -4 -13  17.540   5.341
  -1  -4 -13  9.2260  4.2639
  -2  -4 -13  202.96    8.37
  -2  -4 -13  223.48   12.69
   2   4  13  203.78   10.90
   2   4  13  203.56    8.59
  -2  -4 -13  193.50   19.53
  -3  -4 -13  15.702   1.819
  -3  -4 -13  14.488   1.707
   3   4  13  14.486   2.137
   3   4  13  13.371   1.690
  -3  -4 -13  15.545   5.664
  -4  -4 -13  27.571   2.813
  -4  -4 -13  26.644   2.064
   4   4  13  30.659   2.595
   4   4  13  33.057   2.534
  -4  -4 -13  33.371  10.584
  -5  -4 -13  -1.077   1.811
  -5  -4 -13  1.3386  1.5835
   5   4  13  1.8232  1.4554
   5   4  13  0.8499  1.7582
  -5  -4 -13  -14.67    8.30
  -6  -4 -13  94.718   6.613
  -6  -4 -13  80.107   8.000
  -6  -4 -13  83.680   7.175
   6   4  13  102.30    6.17
   6   4  13  89.223   6.424
  -6  -4 -13  58.411  18.733
   4  -5 -13  162.00   10.81
   4  -5 -13  151.13    9.31
  -4   5  13  166.84   12.79
   3  -5 -13  63.201   4.487
   3  -5 -13  64.819   4.657
  -3   5  13  68.132   5.299
  -3   5  13  73.648   5.221
   3  -5 -13  74.651  10.817
   2  -5 -13  53.969   2.691
   2  -5 -13  45.115   2.899
  -2   5  13  45.387   4.284
  -2   5  13  47.102   3.641
   2  -5 -13  66.341   9.964
   1  -5 -13  16.803   1.693
   1  -5 -13  15.498   1.893
  -1   5  13  14.968   2.208
   1  -5 -13  9.3506  6.2826
   0  -5 -13  16.670   1.611
   0  -5 -13  13.465   1.307
   0   5  13  16.731   1.997
   0   5  13  12.484   1.867
   0  -5 -13  11.803   4.257
  -1  -5 -13  40.639   2.617
  -1  -5 -13  38.887   2.276
   1   5  13  37.565   2.465
   1   5  13  32.854   2.962
  -1  -5 -13  28.139   6.772
  -2  -5 -13  239.64    9.20
  -2  -5 -13  252.74   11.13
  -2  -5 -13  243.01   10.32
   2   5  13  233.04   11.24
   2   5  13  234.71   13.07
  -2  -5 -13  217.86   23.06
  -3  -5 -13  34.981   2.568
  -3  -5 -13  33.595   2.511
  -3  -5 -13  34.250   2.294
   3   5  13  35.021   2.780
   3   5  13  38.989   3.260
  -3  -5 -13  26.925   6.987
  -4  -5 -13  3.9988  1.1569
   4   5  13  3.8811  1.4345
   4   5  13  1.4173  1.7535
  -4  -5 -13  7.2662  5.7434
  -5  -5 -13  7.2519  2.0081
  -5  -5 -13  11.780   2.862
   5   5  13  14.784   2.204
   5   5  13  12.142   2.280
  -5  -5 -13  -4.568  11.186
  -6  -5 -13  8.0654  3.3036
  -6  -5 -13  3.2996  2.1909
   6   5  13  3.6834  2.3763
   6   5  13  2.0802  1.8319
  -6  -5 -13  14.145  11.474
   4  -6 -13  74.777   5.973
   4  -6 -13  79.788   6.316
  -4   6  13  84.548   6.103
   4  -6 -13  58.641  13.004
   3  -6 -13  51.240   4.535
   3  -6 -13  49.217   4.459
  -3   6  13  42.820   4.303
  -3   6  13  50.555   4.767
   3  -6 -13  37.827  11.147
   2  -6 -13  16.106   2.986
   2  -6 -13  16.917   2.803
  -2   6  13  21.236   2.354
  -2   6  13  17.330   2.648
   2  -6 -13  24.142   9.432
   1  -6 -13  179.30    7.58
   1  -6 -13  179.39    7.00
  -1   6  13  181.18    9.91
   1  -6 -13  190.29   14.38
   0  -6 -13  215.77    7.78
   0  -6 -13  211.03    7.94
   0   6  13  212.93   12.07
   0  -6 -13  223.07   16.38
  -1  -6 -13  17.274   2.156
  -1  -6 -13  18.007   1.853
   1   6  13  16.277   1.550
   1   6  13  15.697   2.125
  -1  -6 -13  26.219   7.351
  -2  -6 -13  3.4534  1.4980
  -2  -6 -13  2.0869  1.2171
  -2  -6 -13  3.9295  1.4892
   2   6  13  1.8432  1.3839
   2   6  13  2.1019  1.2040
  -2  -6 -13  0.7931  4.4727
  -3  -6 -13  17.907   1.731
  -3  -6 -13  19.192   2.632
  -3  -6 -13  17.798   2.112
   3   6  13  18.624   1.726
   3   6  13  20.887   2.685
  -3  -6 -13  11.020   4.928
  -4  -6 -13  0.8790  1.8984
   4   6  13 -0.6763  1.6580
   4   6  13 -0.5509  1.8415
  -4  -6 -13  -3.111   5.309
  -5  -6 -13  96.238   7.171
   5   6  13  96.892   6.779
   5   6  13  90.592   7.624
  -5  -6 -13  107.03   15.47
   3  -7 -13  3.3820  2.7115
   3  -7 -13  2.8371  1.9555
  -3   7  13 -0.0601  1.4829
   2  -7 -13  7.4801  2.0487
   2  -7 -13  13.533   2.938
  -2   7  13  9.0730  2.7636
  -2   7  13  9.0468  2.1140
   2  -7 -13  16.085   7.634
   1  -7 -13  148.53    6.01
   1  -7 -13  142.66    6.63
  -1   7  13  143.74    8.88
  -1   7  13  149.60    9.93
   1  -7 -13  132.62   13.23
   0  -7 -13  259.63   11.62
   0  -7 -13  260.31   11.04
   0   7  13  252.61   10.82
   0  -7 -13  281.28   16.55
  -1  -7 -13  195.39    9.57
  -1  -7 -13  198.10    9.34
   1   7  13  193.55   11.96
  -1  -7 -13  195.57   14.58
  -2  -7 -13  1.1034  1.6408
  -2  -7 -13  0.3128  1.4842
  -2  -7 -13 -0.6700  1.4472
   2   7  13 -0.4893  0.9716
   2   7  13  0.5006  1.4874
  -2  -7 -13  1.1992  6.4851
  -3  -7 -13  20.888   2.098
   3   7  13  22.426   3.172
   3   7  13  19.226   2.028
  -3  -7 -13  22.492   8.508
  -4  -7 -13  0.9242  2.1323
   4   7  13 -0.3838  1.9240
   4   7  13  0.3254  1.8858
  -4  -7 -13   3.985  10.713
  -5  -7 -13  28.479   3.920
   5   7  13  31.970   4.068
   5   7  13  28.576   3.452
  -5  -7 -13  14.840  11.871
   2  -8 -13  3.4859  1.8448
   2  -8 -13  -1.304   3.063
  -2   8  13  2.7599  1.4823
  -2   8  13  2.8469  2.4348
   1  -8 -13  4.7847  2.8330
   1  -8 -13  1.2010  1.9460
  -1   8  13  0.9607  1.4880
  -1   8  13  2.1582  2.4079
   1  -8 -13  -8.212   6.553
   0  -8 -13  16.243   2.132
   0  -8 -13  14.392   2.427
   0   8  13  13.987   2.618
   0  -8 -13  5.7654  5.9819
  -1  -8 -13  41.356   3.796
  -1  -8 -13  44.377   3.417
   1   8  13  32.509   3.362
  -1  -8 -13  40.783   8.866
  -2  -8 -13  26.688   3.209
   2   8  13  25.677   2.845
   2   8  13  25.621   2.713
  -2  -8 -13  17.850   7.601
  -3  -8 -13  73.808   6.989
   3   8  13  82.524   6.641
   3   8  13  75.647   6.937
  -3  -8 -13  88.705  10.724
  -4  -8 -13  142.92   11.24
   4   8  13  151.50   11.08
   4   8  13  142.85   11.61
  -4  -8 -13  132.23   17.00
   1  -9 -13  258.07   17.46
   1  -9 -13  252.81   17.94
  -1   9  13  268.90   22.70
  -1   9  13  261.09   24.46
   0  -9 -13  173.74   12.01
   0  -9 -13  181.86   12.01
   0   9  13  176.31   13.54
   0   9  13  171.06   11.23
   0  -9 -13  172.77   13.08
   1   9  13  11.648   2.398
  -1  -9 -13  14.707   6.662
  -2  -9 -13  6.6465  2.0003
   2   9  13  3.3458  3.1262
  -2  -9 -13  -1.391   6.815
  -3  -9 -13  0.1649  2.0380
   3   9  13  1.5234  1.3871
   3   9  13  1.5785  2.5281
  -3  -9 -13  12.098   9.454
   1   6 -14  12.132   2.199
   1   6 -14  9.2401  3.0807
  -1  -6  14  7.9679  2.8919
  -1  -6  14  -11.43   16.56
   0   6 -14  3.6931  3.0150
   0   6 -14  6.1007  2.5567
   0  -6  14  3.1030  2.7342
   0  -6  14  3.3861  2.1579
   0  -6  14  -3.228  14.598
   1  -6  14  103.22    9.31
   1  -6  14  93.175   8.802
   3   5 -14  69.390   5.945
   3   5 -14  62.171   6.125
  -3  -5  14  63.867   5.059
  -3  -5  14  19.034  19.633
   2   5 -14  1.7442  1.6988
   2   5 -14  2.5188  2.3373
  -2  -5  14  1.0564  2.8699
  -2  -5  14   3.765  17.207
   1   5 -14  2.3846  2.7345
   1   5 -14  3.1025  2.1921
  -1  -5  14  1.4689  2.1595
  -1  -5  14  0.0365  2.0925
  -1  -5  14   4.689  14.576
   0   5 -14  8.2828  2.0024
   0   5 -14  13.346   2.687
   0  -5  14  7.8001  2.5277
   0  -5  14  7.4933  2.2354
   0  -5  14  -9.950  12.695
  -1   5 -14  37.785   4.129
  -1   5 -14  32.429   3.662
   1  -5  14  34.457   4.678
   1  -5  14  35.112   4.075
   1  -5  14  46.245  14.914
  -2   5 -14  3.4293  1.5408
   2  -5  14 -0.4602  2.6096
   2  -5  14  3.7705  1.9132
   2  -5  14   8.456  11.270
   4   4 -14  9.8677  2.9082
   4   4 -14  7.8378  2.8112
  -4  -4  14  25.624  20.476
   3   4 -14  69.967   4.241
   3   4 -14  62.814   4.314
  -3  -4  14  49.057   4.883
  -3  -4  14  28.972  17.838
   2   4 -14  2.5963  1.9460
   2   4 -14  0.6337  1.4886
  -2  -4  14  2.3933  2.2872
  -2  -4  14   0.053  14.235
   1   4 -14  158.18    8.85
   1   4 -14  156.71    6.97
  -1  -4  14  155.75   11.06
  -1  -4  14  154.23    9.99
  -1  -4  14  165.36   18.83
   0   4 -14  140.71    9.38
   0   4 -14  135.54    8.97
   0  -4  14  134.71   10.20
   0  -4  14  134.53    7.42
   0  -4  14  137.25   17.70
  -1   4 -14  104.76    6.17
  -1   4 -14  100.73    8.78
   1  -4  14  98.591   6.990
   1  -4  14  99.826   6.706
   1  -4  14  95.559  17.959
  -2   4 -14  25.826   2.926
   2  -4  14  18.558   2.799
   2  -4  14  18.134   2.419
   2  -4  14  22.343  10.863
  -3   4 -14  17.423   2.725
  -3   4 -14  22.110   2.526
   3  -4  14  18.431   3.450
   3  -4  14  20.455   2.709
   3  -4  14  24.961  15.544
   4   3 -14  32.928   3.684
   4   3 -14  31.245   2.951
  -4  -3  14  33.957   3.502
  -4  -3  14  13.732  12.027
   3   3 -14  41.139   3.422
   3   3 -14  40.732   3.463
  -3  -3  14  30.409   3.268
  -3  -3  14  41.631   3.750
  -3  -3  14  23.800  15.932
   2   3 -14  -1.837   1.300
   2   3 -14  1.8767  1.3415
  -2  -3  14 -0.2338  1.6591
  -2  -3  14 -0.8099  1.0274
  -2  -3  14  -1.303  11.825
   1   3 -14  50.924   3.045
   1   3 -14  50.406   2.988
  -1  -3  14  42.529   4.042
  -1  -3  14  49.219   3.762
  -1  -3  14  40.929   3.828
  -1  -3  14  17.073   7.320
   0   3 -14 -0.3568  1.5895
   0   3 -14  0.2417  2.0439
   0  -3  14  1.3838  1.3313
   0  -3  14  0.3394  1.4130
   0  -3  14 -0.2302  1.1849
   0  -3  14  -3.420  10.883
  -1   3 -14  155.37    9.91
  -1   3 -14  149.25    6.61
   1  -3  14  148.11    7.95
   1  -3  14  149.04    9.49
   1  -3  14  140.25    9.39
   1  -3  14  127.20   15.34
  -2   3 -14  19.295   3.118
  -2   3 -14  26.543   2.971
  -2   3 -14  28.340   3.290
   2  -3  14  21.806   2.495
   2  -3  14  20.105   3.063
   2  -3  14  24.442   2.954
   2  -3  14  19.381  10.014
  -3   3 -14  8.4646  2.0266
  -3   3 -14  4.1576  2.5483
   3  -3  14  4.4226  1.8061
   3  -3  14  5.6725  1.6866
   3  -3  14  4.9033  1.9871
   3  -3  14  -2.171   8.157
  -4   3 -14  82.729   7.909
  -4   3 -14  100.37    8.46
   4  -3  14  97.189   7.190
   4  -3  14  96.869   6.945
   4  -3  14  57.737  13.148
   5   2 -14  24.304   3.407
   5   2 -14  26.563   3.011
   4   2 -14  -1.162   1.506
   4   2 -14  0.8469  1.4998
   4   2 -14  0.8596  1.5142
  -4  -2  14 -0.1466  1.5349
   3   2 -14  1.1133  1.8967
   3   2 -14  2.9940  1.6208
  -3  -2  14  4.2494  1.7420
  -3  -2  14  -6.750  13.023
   2   2 -14  308.66   13.67
   2   2 -14  322.43   12.26
  -2  -2  14  306.05   18.23
  -2  -2  14  305.04   16.24
  -2  -2  14  319.58   21.91
  -2  -2  14  293.72   22.92
   1   2 -14  41.975   3.099
   1   2 -14  37.722   2.874
  -1  -2  14  37.995   3.242
  -1  -2  14  36.661   3.436
  -1  -2  14  39.375   2.530
  -1  -2  14  43.391   3.728
  -1  -2  14  42.380  10.323
   0   2 -14  149.35    7.19
   0   2 -14  146.80    6.43
   0  -2  14  147.59    8.41
   0  -2  14  141.92    9.45
   0  -2  14  134.78    7.42
   0  -2  14  152.63    7.67
   0  -2  14  109.21   13.48
  -1   2 -14  254.14   11.15
  -1   2 -14  274.41   13.73
   1  -2  14  281.52   18.92
   1  -2  14  273.27   12.08
   1  -2  14  230.33   12.57
   1  -2  14  262.61   24.08
  -2   2 -14  9.3489  2.3717
  -2   2 -14  8.6364  1.8656
  -2   2 -14  12.239   1.392
   2  -2  14  10.741   2.144
   2  -2  14  13.341   2.151
   2  -2  14  8.0510  2.3928
   2  -2  14  2.0895  7.0952
  -3   2 -14  239.90   15.17
  -3   2 -14  286.84   15.17
   3  -2  14  262.73   14.77
   3  -2  14  255.84   13.22
   3  -2  14  254.91   14.88
   3  -2  14  233.87   21.09
  -4   2 -14  607.92   30.51
  -4   2 -14  600.85   34.02
   4  -2  14  583.77   59.34
   4  -2  14  544.79   37.44
   4  -2  14  616.79   33.53
   4  -2  14  662.86   64.83
  -5   2 -14  89.539   6.363
  -5   2 -14  67.256   5.091
   5  -2  14  79.222   6.867
   5  -2  14  59.500   5.281
   5  -2  14  54.640  19.733
   5   1 -14 -0.7560  1.9855
   5   1 -14 -0.5363  1.6406
   5   1 -14 -0.0447  2.3944
  -5  -1  14  -3.097   2.814
   4   1 -14  56.052   4.268
   4   1 -14  61.545   4.469
   4   1 -14  59.699   4.419
  -4  -1  14  52.388   5.451
   3   1 -14  118.53    6.14
   3   1 -14  122.23    7.46
  -3  -1  14  123.20    8.64
  -3  -1  14  126.07    5.17
  -3  -1  14  82.325  12.894
   2   1 -14  330.69   11.10
   2   1 -14  322.23   12.88
  -2  -1  14  322.67   12.29
  -2  -1  14  306.29   14.03
  -2  -1  14  341.29   22.52
   2   1 -14  303.20   24.39
  -2  -1  14  333.25   30.79
   1   1 -14  43.494   2.259
   1   1 -14  40.658   2.342
  -1  -1  14  42.367   3.360
  -1  -1  14  41.517   3.042
  -1  -1  14  40.961   3.591
  -1  -1  14  46.660   2.575
   1   1 -14  20.755   8.487
  -1  -1  14  35.232  11.778
   0   1 -14  41.995   2.487
   0   1 -14  39.938   2.468
   0  -1  14  41.553   3.412
   0  -1  14  41.949   2.332
   0  -1  14  43.788   3.097
   0   1 -14  28.003   9.387
   0  -1  14  25.507   9.547
  -1   1 -14  240.85   10.10
  -1   1 -14  256.40   17.05
   1  -1  14  239.88    9.72
   1  -1  14  228.38   10.31
   1  -1  14  255.19   13.80
  -1   1 -14  240.79   27.55
   1  -1  14  226.75   18.77
  -2   1 -14  38.441   2.910
  -2   1 -14  38.136   3.180
  -2   1 -14  31.737   3.764
   2  -1  14  30.445   2.593
   2  -1  14  38.385   3.466
   2  -1  14  42.067   3.127
   2  -1  14  19.464   7.639
  -3   1 -14  28.264   2.815
  -3   1 -14  32.653   2.462
  -3   1 -14  25.124   3.379
   3  -1  14  30.258   2.792
   3  -1  14  31.688   3.148
   3  -1  14  30.303   2.846
   3  -1  14  20.762   7.078
  -4   1 -14  27.258   2.441
  -4   1 -14  26.584   3.435
   4  -1  14  25.356   2.580
   4  -1  14  21.008   2.913
   4  -1  14  24.486   3.253
   4  -1  14  33.441  16.487
  -5   1 -14  119.33    9.37
  -5   1 -14  133.78    7.56
   5  -1  14  118.54    9.74
   5  -1  14  112.85    8.38
   5  -1  14  70.306  23.175
   5   0 -14  5.5998  2.2463
   5   0 -14  7.1438  1.8393
   5   0 -14  4.8358  1.9923
  -5   0  14  9.9292  2.5293
   4   0 -14  133.02    7.78
   4   0 -14  125.72    6.74
   4   0 -14  141.03    7.41
  -4   0  14  123.28    9.85
  -4   0  14  131.52   11.59
   3   0 -14  12.713   2.189
   3   0 -14  15.150   1.929
   3   0 -14  14.672   1.756
  -3   0  14  14.815   2.101
  -3   0  14  14.502   1.788
  -3   0  14  15.762   2.217
   3   0 -14  0.7351  7.5319
   2   0 -14  115.04    5.54
   2   0 -14  109.38    5.51
  -2   0  14  111.27    7.27
  -2   0  14  107.87    5.86
   2   0 -14  94.549  13.186
  -2   0  14  100.44   12.33
   1   0 -14  337.25   13.53
   1   0 -14  339.81   13.13
  -1   0  14  309.45   20.61
  -1   0  14  324.43   23.81
  -1   0  14  349.07   12.79
   1   0 -14  343.44   27.28
  -1   0  14  367.84   29.17
   0   0 -14  170.10    5.48
   0   0 -14  165.68    6.00
   0   0  14  157.28    5.69
   0   0  14  162.97    8.15
   0   0  14  158.48    7.56
   0   0 -14  147.34   14.89
   0   0  14  139.75   15.18
  -1   0 -14  76.173   3.446
  -1   0 -14  73.255   2.855
   1   0  14  72.225   3.532
   1   0  14  72.053   3.223
   1   0  14  68.004   3.541
  -1   0 -14  66.399   9.980
   1   0  14  71.368  12.675
  -2   0 -14  183.37    7.42
  -2   0 -14  186.63   10.08
   2   0  14  170.10    8.90
   2   0  14  181.53    9.40
   2   0  14  182.65    7.59
  -2   0 -14  154.72   16.48
   2   0  14  145.82   14.15
  -3   0 -14  121.67    4.91
  -3   0 -14  95.640   5.842
  -3   0 -14  109.03    6.91
   3   0  14  105.46    6.30
   3   0  14  116.53    6.75
   3   0  14  111.96    6.11
   3   0  14  79.979  14.391
  -4   0 -14  88.333   5.095
  -4   0 -14  95.101   5.321
  -4   0 -14  83.096   4.675
   4   0  14  86.891   7.014
   4   0  14  99.600   6.212
   4   0  14  83.036   5.249
   4   0  14  48.566  16.723
  -5   0 -14  30.083   3.664
  -5   0 -14  23.569   3.915
   5   0  14  25.672   3.414
   5   0  14  25.131   3.358
   5  -1 -14  -1.690   1.854
   5  -1 -14  1.3234  1.5195
   5  -1 -14  -1.623   1.645
  -5   1  14  -1.234   2.044
   5  -1 -14  -3.973   9.801
   4  -1 -14  81.568   4.412
   4  -1 -14  71.194   5.883
   4  -1 -14  77.473   5.276
  -4   1  14  73.793   4.647
  -4   1  14  85.036   5.423
  -4   1  14  78.383   5.849
   4  -1 -14  47.702  10.668
   3  -1 -14  343.88   12.03
   3  -1 -14  340.60   15.86
   3  -1 -14  340.58   12.65
  -3   1  14  312.61   20.25
  -3   1  14  364.70   33.64
   3  -1 -14  329.75   21.91
   2  -1 -14  134.16    6.89
   2  -1 -14  128.34    5.82
  -2   1  14  136.33    5.99
   2  -1 -14  127.04   15.11
   1  -1 -14  3.3194  0.8827
   1  -1 -14  2.8718  1.4446
  -1   1  14  4.5118  1.3746
  -1   1  14  0.9770  0.8885
  -1   1  14  1.2145  0.8954
   1  -1 -14  -2.691   5.279
  -1   1  14  -1.730   7.121
   0  -1 -14  141.42    5.96
   0  -1 -14  148.87    5.12
   0   1  14  139.50    6.29
   0   1  14  142.09    6.58
   0   1  14  148.02    8.67
   0  -1 -14  131.05   11.96
   0   1  14  105.53   11.07
  -1  -1 -14  2.9372  0.7422
  -1  -1 -14 -0.1220  0.9348
   1   1  14  1.7620  1.6549
   1   1  14  2.4026  0.9624
   1   1  14  2.3124  0.8873
  -1  -1 -14  -6.495   5.176
   1   1  14  -4.283   5.756
  -2  -1 -14  72.396   2.835
  -2  -1 -14  82.261   4.689
   2   1  14  81.642   3.832
   2   1  14  80.447   4.470
   2   1  14  69.345   4.510
  -2  -1 -14  53.851  10.014
   2   1  14  64.703  12.148
  -3  -1 -14  25.515   2.190
  -3  -1 -14  22.373   2.266
  -3  -1 -14  27.776   2.606
   3   1  14  20.955   2.107
   3   1  14  18.570   2.453
  -3  -1 -14  9.8479  8.9760
   3   1  14  13.329  11.284
  -4  -1 -14  0.5313  1.8919
  -4  -1 -14 -0.8640  1.7911
   4   1  14  1.5141  1.8927
   4   1  14  0.7222  1.4419
  -4  -1 -14 -0.0464  6.9712
  -5  -1 -14  33.192   3.919
  -5  -1 -14  40.398   3.404
   5   1  14  34.989   3.969
   5   1  14  33.125   3.477
  -6  -1 -14  40.777   5.579
   6   1  14  52.643   4.405
   5  -2 -14  32.348   4.251
   5  -2 -14  35.057   3.936
   5  -2 -14  39.092   3.637
  -5   2  14  36.468   3.987
  -5   2  14  32.626   5.276
  -5   2  14  40.223   4.242
   5  -2 -14  28.580  12.172
   4  -2 -14  9.6589  2.0491
   4  -2 -14  6.7447  1.8760
   4  -2 -14  9.6925  1.9060
  -4   2  14  10.434   2.853
  -4   2  14  7.7697  2.2233
   4  -2 -14   7.433  11.536
   3  -2 -14  280.80   12.20
   3  -2 -14  279.50   14.58
   3  -2 -14  288.92   10.33
  -3   2  14  288.31   18.82
  -3   2  14  319.06   16.47
   3  -2 -14  264.40   20.90
   2  -2 -14  25.342   1.892
   2  -2 -14  18.264   2.254
   2  -2 -14  22.743   1.613
  -2   2  14  18.739   2.668
   2  -2 -14  18.140   5.949
   1  -2 -14  89.983   4.451
   1  -2 -14  88.922   3.569
  -1   2  14  89.642   5.556
  -1   2  14  82.385   5.966
  -1   2  14  96.084   4.459
   1  -2 -14  82.885  12.401
   0  -2 -14  29.580   1.611
   0  -2 -14  29.250   2.295
   0   2  14  27.243   2.074
   0   2  14  30.237   2.916
   0   2  14  28.071   1.986
   0  -2 -14  28.106   5.463
   0   2  14  18.105   8.143
  -1  -2 -14  54.701   3.023
  -1  -2 -14  56.553   2.848
   1   2  14  59.343   4.284
   1   2  14  53.265   2.670
   1   2  14  51.181   3.492
  -1  -2 -14  38.051   6.693
   1   2  14  39.085   8.862
  -2  -2 -14  42.097   2.410
  -2  -2 -14  41.678   2.368
   2   2  14  41.178   2.296
   2   2  14  43.094   3.368
  -2  -2 -14  29.819   7.750
  -3  -2 -14  91.920   3.988
  -3  -2 -14  92.863   4.229
   3   2  14  94.258   4.845
   3   2  14  92.347   4.897
  -3  -2 -14  65.263  12.559
  -4  -2 -14  2.9958  1.4613
  -4  -2 -14  2.6165  1.8957
  -4  -2 -14  1.5621  1.4250
   4   2  14  4.8740  2.0494
   4   2  14  3.4508  1.2808
  -4  -2 -14  -12.47    9.08
  -5  -2 -14  192.97   10.25
  -5  -2 -14  188.76   11.84
   5   2  14  211.66   12.93
   5   2  14  185.85   10.23
  -6  -2 -14  77.004   5.535
   6   2  14  79.537   6.938
   5  -3 -14  147.47    9.58
   5  -3 -14  148.18   11.19
   5  -3 -14  149.36    9.74
  -5   3  14  152.76   11.99
  -5   3  14  158.24   10.15
   4  -3 -14  21.047   2.640
   4  -3 -14  13.560   2.349
   4  -3 -14  20.885   3.198
  -4   3  14  22.175   3.502
  -4   3  14  19.507   2.409
   4  -3 -14  -2.584   7.783
   3  -3 -14  18.330   2.754
   3  -3 -14  16.022   1.881
   3  -3 -14  18.807   2.249
  -3   3  14  20.195   2.108
  -3   3  14  16.480   2.437
   3  -3 -14  5.1251  6.3270
   2  -3 -14  16.162   1.874
   2  -3 -14  14.970   2.119
   2  -3 -14  14.288   1.436
  -2   3  14  10.435   1.650
   2  -3 -14  7.4142  6.0948
   1  -3 -14  11.797   1.092
   1  -3 -14  12.015   1.785
   1  -3 -14  12.506   1.579
  -1   3  14  11.883   2.151
   1  -3 -14  16.530   7.823
   0  -3 -14  1.4867  0.4381
   0  -3 -14 -0.0267  0.9240
   0   3  14  2.1803  0.8677
   0   3  14  1.8043  1.4647
   0   3  14  1.9473  0.8907
   0  -3 -14  6.7264  6.2606
  -1  -3 -14  503.67   14.02
   1   3  14  509.68   17.85
   1   3  14  505.30   25.02
  -1  -3 -14  622.45   34.63
  -2  -3 -14  257.52    9.01
   2   3  14  282.71   11.33
   2   3  14  253.32   11.75
  -2  -3 -14  297.00   19.74
  -3  -3 -14  62.672   3.595
  -3  -3 -14  71.714   4.283
   3   3  14  65.912   3.876
   3   3  14  76.924   4.550
  -3  -3 -14  68.332  11.155
  -4  -3 -14  97.861   5.206
  -4  -3 -14  91.348   5.980
   4   3  14  106.50    6.64
   4   3  14  112.15    6.62
  -4  -3 -14  91.475  11.761
  -5  -3 -14  6.0779  2.0125
  -5  -3 -14 -0.2834  1.9931
   5   3  14  2.6825  2.2744
   5   3  14  2.0916  1.6834
  -5  -3 -14  -4.041   8.911
  -6  -3 -14  2.9707  2.9777
   6   3  14  3.6458  1.9115
   6   3  14  2.2694  2.7111
   4  -4 -14  69.520   6.052
   4  -4 -14  66.423   4.876
  -4   4  14  53.414   7.014
  -4   4  14  76.813   6.010
   4  -4 -14  64.841  14.696
   3  -4 -14  5.8942  2.1657
   3  -4 -14  2.8802  1.4861
  -3   4  14  3.3921  1.6007
  -3   4  14  3.4147  2.3073
   3  -4 -14  6.2963  9.6266
   2  -4 -14  5.9144  2.0513
   2  -4 -14  5.1474  1.5900
  -2   4  14  5.4775  1.8947
   2  -4 -14  1.3277  7.3422
   1  -4 -14  39.250   2.716
   1  -4 -14  36.205   2.319
  -1   4  14  41.399   2.991
   1  -4 -14  29.372   8.146
   0  -4 -14  5.5726  1.2639
   0  -4 -14  7.6310  1.1619
   0   4  14  6.0548  0.9133
   0   4  14  6.8687  1.4961
   0  -4 -14  -1.723   5.777
  -1  -4 -14  179.77    6.48
  -1  -4 -14  177.44    6.38
   1   4  14  198.59    7.46
   1   4  14  176.91    9.47
  -1  -4 -14  191.44   13.86
  -2  -4 -14  172.78    6.98
  -2  -4 -14  160.46    6.69
   2   4  14  159.88    8.55
   2   4  14  147.74    7.01
  -2  -4 -14  135.81   13.16
  -3  -4 -14  1.0514  1.3934
  -3  -4 -14  2.4588  1.2667
   3   4  14  0.2514  1.1318
   3   4  14 -0.4063  1.7034
  -3  -4 -14  5.8884  7.7688
  -4  -4 -14  300.38   19.70
  -4  -4 -14  312.68   18.91
   4   4  14  317.22   18.10
   4   4  14  326.30   20.44
  -4  -4 -14  329.06   36.14
  -5  -4 -14  418.87   31.26
   5   4  14  388.53   23.19
   5   4  14  418.48   25.46
  -5  -4 -14  397.54   30.27
   6   4  14  7.4743  2.5134
   6   4  14  6.1993  3.2122
   4  -5 -14 -0.1859  1.9523
   4  -5 -14  6.5973  3.0279
  -4   5  14  1.4794  2.5388
   4  -5 -14  6.2872  7.8473
   3  -5 -14  15.285   2.697
   3  -5 -14  18.236   2.770
  -3   5  14  12.789   2.215
  -3   5  14  16.790   2.686
   3  -5 -14  16.048   9.716
   2  -5 -14  207.09   10.17
   2  -5 -14  216.34    8.55
  -2   5  14  220.87   12.99
  -2   5  14  213.52   14.12
   2  -5 -14  254.75   18.50
   1  -5 -14  371.90   13.62
   1  -5 -14  390.65   12.71
  -1   5  14  386.70   20.61
   1  -5 -14  468.37   28.60
   0  -5 -14  131.53    5.47
   0  -5 -14  124.91    4.99
   0   5  14  126.67    5.53
   0  -5 -14  145.82   13.89
  -1  -5 -14  33.591   2.483
  -1  -5 -14  36.530   2.757
   1   5  14  33.842   3.232
   1   5  14  30.994   2.408
  -1  -5 -14  23.295   7.043
  -2  -5 -14  21.322   2.178
  -2  -5 -14  22.579   2.320
  -2  -5 -14  19.500   2.005
   2   5  14  18.726   1.888
   2   5  14  25.282   2.896
  -2  -5 -14  13.608   6.190
  -3  -5 -14  34.290   2.383
  -3  -5 -14  30.610   2.444
  -3  -5 -14  30.843   2.751
   3   5  14  33.111   2.883
   3   5  14  31.191   3.430
  -3  -5 -14  28.747   9.558
  -4  -5 -14  0.5704  1.2120
   4   5  14 -0.1196  1.8393
   4   5  14  0.0993  2.1989
  -4  -5 -14  4.5318  6.2546
  -5  -5 -14  39.846   3.898
   5   5  14  41.434   4.745
   5   5  14  46.236   3.981
  -5  -5 -14  16.661  12.856
   3  -6 -14  25.476   3.355
   3  -6 -14  24.326   3.794
  -3   6  14  23.139   2.325
  -3   6  14  16.662   3.122
   3  -6 -14  26.356  10.817
   2  -6 -14  4.2469  2.8711
   2  -6 -14  4.7367  1.9831
  -2   6  14  6.3290  1.5358
  -2   6  14  6.3055  2.2724
   2  -6 -14  -4.665   8.153
   1  -6 -14  16.103   2.051
   1  -6 -14  16.233   2.093
  -1   6  14  17.569   2.333
   1  -6 -14  14.032   7.263
   0  -6 -14  1.1822  1.2082
   0  -6 -14  0.7375  1.5640
   0   6  14  1.6873  1.1311
   0  -6 -14  -9.610   6.843
  -1  -6 -14  35.855   2.167
  -1  -6 -14  30.060   2.787
   1   6  14  32.776   3.498
  -1  -6 -14  30.403   7.804
  -2  -6 -14  36.966   2.908
  -2  -6 -14  34.586   3.231
  -2  -6 -14  39.810   2.883
   2   6  14  34.369   3.545
   2   6  14  35.098   2.828
  -2  -6 -14  20.772   8.056
  -3  -6 -14  39.027   3.498
   3   6  14  38.551   3.344
   3   6  14  38.894   3.938
  -3  -6 -14  19.785   7.914
  -4  -6 -14  41.856   3.970
   4   6  14  41.105   3.865
   4   6  14  44.865   3.927
  -4  -6 -14  27.113   7.826
  -5  -6 -14  9.3773  2.2897
   5   6  14  13.739   2.803
   5   6  14  17.588   3.049
  -5  -6 -14  8.2210  9.3359
   3  -7 -14  75.993   6.304
   3  -7 -14  83.004   6.246
  -3   7  14  77.338   8.387
   2  -7 -14  386.48   21.24
   2  -7 -14  401.21   21.58
  -2   7  14  423.84   32.13
  -2   7  14  407.16   34.08
   2  -7 -14  467.66   39.61
   1  -7 -14  126.03    6.42
   1  -7 -14  117.37    6.95
  -1   7  14  114.04    8.14
  -1   7  14  116.94    7.86
   1  -7 -14  112.74   13.71
   0  -7 -14 -0.4454  1.3553
   0  -7 -14  0.8779  1.6111
   0   7  14  1.3308  1.8041
   0  -7 -14  -2.013   6.450
  -1  -7 -14  17.288   2.333
  -1  -7 -14  18.033   1.982
   1   7  14  23.701   3.056
  -1  -7 -14  21.127   8.092
  -2  -7 -14  1.8531  1.6555
  -2  -7 -14  1.6258  1.3315
  -2  -7 -14  3.1239  1.3751
   2   7  14  2.4235  1.3228
   2   7  14  2.2720  2.1030
  -2  -7 -14  -9.241   7.015
  -3  -7 -14  44.093   6.170
   3   7  14  51.947   4.290
   3   7  14  59.484   5.062
  -3  -7 -14  49.581   8.862
  -4  -7 -14  119.08   10.80
   4   7  14  132.28    9.22
   4   7  14  141.92    8.93
  -4  -7 -14  148.58   18.82
   2  -8 -14  8.2150  2.9137
   2  -8 -14  7.9161  2.5317
  -2   8  14  7.2291  2.8067
  -2   8  14  6.6285  2.8586
   2  -8 -14  10.241   9.825
   1  -8 -14  110.69    6.18
   1  -8 -14  104.62    5.23
  -1   8  14  105.76    6.99
  -1   8  14  103.47    9.31
   1  -8 -14  128.33   14.35
   0  -8 -14  3.3907  1.8106
   0  -8 -14  1.5403  1.7186
   0   8  14  1.8277  2.5030
   0  -8 -14  4.3753  5.7186
  -1  -8 -14  6.9541  2.3902
  -1  -8 -14  8.7158  2.4321
   1   8  14  7.0080  3.0851
  -1  -8 -14  13.104   8.418
  -2  -8 -14  37.661   3.684
   2   8  14  37.510   4.519
  -2  -8 -14  28.470   6.126
  -3  -8 -14  11.239   2.183
   3   8  14  16.465   2.544
   3   8  14  13.215   3.812
  -3  -8 -14  25.936  10.127
   0  -9 -14  14.815   2.696
   0  -9 -14  16.852   3.154
   0   9  14  17.687   2.759
   0   9  14  17.006   2.839
   0  -9 -14  12.396   6.516
   1   9  14  61.898   6.618
  -1  -9 -14  49.089   9.593
   2   9  14  28.489   4.072
  -2  -9 -14  28.681   9.962
   2   5 -15  14.292   2.238
   2   5 -15  15.246   2.502
  -2  -5  15  14.346   3.281
  -2  -5  15  -7.008  17.013
   1   5 -15  28.157   3.029
   1   5 -15  28.888   3.426
  -1  -5  15  27.155   3.130
  -1  -5  15  24.655  13.818
   0   5 -15  305.35   15.35
   0   5 -15  292.76   13.12
   0  -5  15  291.92   22.11
   0  -5  15  317.48   20.55
   0  -5  15  306.05   28.01
  -1   5 -15  54.456   4.441
  -1   5 -15  55.836   5.280
   1  -5  15  59.083   5.253
   1  -5  15  64.432   5.335
   1  -5  15  39.100  13.754
   3   4 -15  89.878   6.896
   3   4 -15  102.00    8.34
  -3  -4  15  76.799   6.486
  -3  -4  15  66.954  21.887
   2   4 -15  25.623   2.804
   2   4 -15  19.002   2.892
  -2  -4  15  18.763   2.776
  -2  -4  15   4.648  16.028
   1   4 -15  33.770   3.311
   1   4 -15  36.653   2.782
  -1  -4  15  29.921   3.442
  -1  -4  15  30.696   3.478
  -1  -4  15  10.101  14.025
   0   4 -15  42.662   3.731
   0   4 -15  40.699   3.614
   0  -4  15  41.278   3.710
   0  -4  15  41.447   4.021
   0  -4  15  10.381  15.102
  -1   4 -15  0.1658  1.2948
  -1   4 -15  1.2007  2.0675
   1  -4  15  0.6054  1.6440
   1  -4  15  0.4324  1.5564
   1  -4  15   7.173  14.397
  -2   4 -15  75.720   5.168
  -2   4 -15  83.027   6.613
   2  -4  15  74.434   6.154
   2  -4  15  88.485   5.972
   2  -4  15  71.536  14.153
  -3   4 -15  225.18   13.14
   3  -4  15  230.11   14.36
   3  -4  15  210.72   18.42
   3  -4  15  210.62   20.87
   4   3 -15  43.866   4.615
   4   3 -15  34.197   4.505
   3   3 -15  203.35   13.30
   3   3 -15  194.41   10.20
  -3  -3  15  168.46   22.42
   2   3 -15  5.9536  2.2841
   2   3 -15  11.725   2.414
  -2  -3  15  7.8858  2.0619
  -2  -3  15   3.900  13.622
   1   3 -15  68.938   3.810
   1   3 -15  67.196   4.056
  -1  -3  15  68.998   6.795
  -1  -3  15  61.970   5.078
  -1  -3  15  71.809   4.871
  -1  -3  15  66.179  16.197
   0   3 -15  294.35   15.59
   0   3 -15  314.19   15.75
   0  -3  15  315.78   14.17
   0  -3  15  314.96   19.71
   0  -3  15  307.71   18.81
   0  -3  15  283.33   24.39
  -1   3 -15  0.2963  1.7224
  -1   3 -15  0.3267  1.8657
   1  -3  15  2.1977  2.2165
   1  -3  15  3.4317  1.8847
   1  -3  15 -0.0396  1.3769
   1  -3  15  4.0271  8.6468
  -2   3 -15  10.682   2.094
  -2   3 -15  7.3832  2.5619
  -2   3 -15  9.7486  3.2887
   2  -3  15  6.1076  1.8187
   2  -3  15  7.3239  2.0705
   2  -3  15  4.7355  1.5606
   2  -3  15  -1.325  11.816
  -3   3 -15  35.277   3.858
  -3   3 -15  34.199   4.178
  -3   3 -15  33.678   3.543
   3  -3  15  30.024   3.434
   3  -3  15  29.752   3.129
   3  -3  15  29.476   3.759
   3  -3  15   4.388  10.859
  -4   3 -15  54.180   4.704
  -4   3 -15  38.118   4.978
   4  -3  15  41.345   4.739
   4  -3  15  39.267   4.826
   4   2 -15  9.2211  2.7981
   4   2 -15  11.425   2.619
   4   2 -15  6.1858  2.0875
  -4  -2  15  12.668   3.193
   3   2 -15  65.607   4.751
   3   2 -15  65.411   5.010
  -3  -2  15  56.179   5.930
  -3  -2  15  46.350  13.976
   2   2 -15  369.42   17.17
   2   2 -15  345.19   16.98
  -2  -2  15  359.16   25.56
  -2  -2  15  387.37   21.12
  -2  -2  15  332.41   23.98
  -2  -2  15  313.93   28.82
   1   2 -15  106.91    5.69
   1   2 -15  92.327   5.525
  -1  -2  15  97.071   6.941
  -1  -2  15  104.45    5.87
  -1  -2  15  94.296   5.868
  -1  -2  15  106.33    8.53
  -1  -2  15  88.518  17.174
   0   2 -15  2.8300  1.5242
   0   2 -15  1.1463  1.3643
   0  -2  15  1.0574  1.7882
   0  -2  15  2.8688  1.9539
   0  -2  15  0.9954  1.6279
   0  -2  15  2.2972  8.4741
  -1   2 -15 -0.0493  1.9783
  -1   2 -15  -1.029   1.440
   1  -2  15  0.3953  1.7966
   1  -2  15  0.8839  1.4408
   1  -2  15  0.1278  1.7883
   1  -2  15  -5.691   6.924
  -2   2 -15  32.294   4.004
  -2   2 -15  36.251   3.334
  -2   2 -15  38.034   3.251
   2  -2  15  35.826   3.132
   2  -2  15  41.111   3.344
   2  -2  15  38.821   3.609
   2  -2  15  23.940  11.970
  -3   2 -15  252.94   13.97
  -3   2 -15  221.22   15.15
  -3   2 -15  250.63   12.27
   3  -2  15  243.40   16.58
   3  -2  15  229.77   19.19
   3  -2  15  241.09   15.54
   3  -2  15  210.19   22.77
  -4   2 -15  96.796   6.267
  -4   2 -15  88.150   6.659
   4  -2  15  96.032   6.711
   4  -2  15  85.558   7.801
   4  -2  15  97.695   9.633
   4  -2  15  46.546  14.182
   4   1 -15  62.914   4.929
   4   1 -15  61.568   5.098
   4   1 -15  71.727   5.618
  -4  -1  15  72.293   5.456
   3   1 -15  43.511   3.124
   3   1 -15  40.293   3.541
  -3  -1  15  42.801   4.845
  -3  -1  15  44.478   4.111
   2   1 -15  6.0166  1.4907
   2   1 -15  7.3321  1.7209
  -2  -1  15  6.4928  1.8014
  -2  -1  15  5.6318  1.7926
  -2  -1  15  5.2172  1.5323
  -2  -1  15   5.017  11.195
   1   1 -15  230.71    9.59
   1   1 -15  218.75    9.40
  -1  -1  15  229.90   12.00
  -1  -1  15  210.92   16.23
  -1  -1  15  219.72   14.57
  -1  -1  15  227.74   13.27
  -1  -1  15  210.46   18.63
   0   1 -15  2.9278  1.1870
   0   1 -15  3.3913  1.3099
   0  -1  15  3.8078  1.6141
   0  -1  15  3.3672  1.2986
   0  -1  15  2.0581  1.4427
   0  -1  15  1.7497  9.6375
  -1   1 -15  227.25   13.14
  -1   1 -15  215.36    9.45
   1  -1  15  223.20   10.02
   1  -1  15  205.75   12.07
   1  -1  15  203.90   12.44
   1  -1  15  198.57   19.83
  -2   1 -15  1.9061  1.3500
  -2   1 -15  0.1688  1.3084
   2  -1  15  2.6792  1.8007
   2  -1  15  0.7784  1.3253
   2  -1  15  1.1296  1.8138
   2  -1  15  -4.715   7.618
  -3   1 -15  5.0573  2.7331
  -3   1 -15  2.3305  1.8359
  -3   1 -15  2.9017  1.2857
   3  -1  15  3.3607  2.3949
   3  -1  15  5.6831  2.0955
   3  -1  15  3.2216  1.9765
   3  -1  15  22.520  13.396
  -4   1 -15  37.378   3.308
  -4   1 -15  35.666   3.540
  -4   1 -15  40.818   4.630
   4  -1  15  36.756   4.634
   4  -1  15  30.143   4.007
   4  -1  15  35.390   4.212
   4  -1  15  20.681  12.710
  -5   1 -15  70.596   6.120
  -5   1 -15  62.634   5.970
   5  -1  15  75.947   6.918
   5  -1  15  75.789   6.776
   4   0 -15  147.01   10.79
   4   0 -15  145.82    8.74
   4   0 -15  143.52    6.61
  -4   0  15  140.85    8.09
  -4   0  15  145.25   11.90
   3   0 -15  23.594   2.188
   3   0 -15  19.109   2.133
   3   0 -15  21.733   2.394
  -3   0  15  26.025   3.692
  -3   0  15  23.764   2.208
  -3   0  15  25.824   2.954
   3   0 -15  1.0976  7.8521
   2   0 -15 -0.2644  1.7695
   2   0 -15  1.8080  1.2137
  -2   0  15  0.6278  2.1499
   2   0 -15  -8.764   8.871
   1   0 -15  262.17   10.39
   1   0 -15  258.81   10.42
  -1   0  15  267.09   22.39
  -1   0  15  270.80   20.00
  -1   0  15  251.99   11.31
   1   0 -15  234.99   26.32
  -1   0  15  232.19   24.30
   0   0 -15  8.0093  1.4178
   0   0 -15  9.9760  1.3475
   0   0  15  5.8033  1.1048
   0   0  15  7.9970  2.0977
   0   0  15  5.4906  1.3479
   0   0 -15  4.0746  5.7676
   0   0  15  5.8799  8.1186
  -1   0 -15  7.5035  1.3314
  -1   0 -15  9.6655  1.1666
   1   0  15  7.7746  1.5884
   1   0  15  7.8666  2.1223
   1   0  15  12.038   2.026
  -1   0 -15  11.383   7.159
   1   0  15  -0.049  10.544
  -2   0 -15  35.784   2.690
  -2   0 -15  35.369   2.249
   2   0  15  38.413   3.489
   2   0  15  35.482   2.754
   2   0  15  33.123   2.830
  -2   0 -15  12.442   8.692
   2   0  15  17.668   9.584
  -3   0 -15  6.2777  1.3891
  -3   0 -15  6.7857  1.6995
  -3   0 -15  11.248   2.868
   3   0  15  1.9836  1.9164
   3   0  15  8.1293  2.2619
   3   0  15  8.4133  1.9289
   3   0  15   3.391  12.272
  -4   0 -15  48.603   3.454
  -4   0 -15  51.284   3.632
   4   0  15  53.993   4.694
   4   0  15  53.703   3.525
   4   0  15  51.427   4.155
  -5   0 -15  6.7874  2.2030
  -5   0 -15  4.0261  2.3900
   5   0  15  -1.327   2.888
   5   0  15  5.1811  1.9785
   4  -1 -15  88.410   6.536
   4  -1 -15  103.38    7.26
   4  -1 -15  108.11    8.49
  -4   1  15  101.96    9.44
  -4   1  15  126.76    7.46
   4  -1 -15  72.262  15.753
   3  -1 -15  90.628   5.688
   3  -1 -15  99.435   5.115
   3  -1 -15  91.379   5.874
  -3   1  15  105.04    7.65
  -3   1  15  88.105   7.333
   3  -1 -15  73.872  14.009
   2  -1 -15  11.152   1.864
   2  -1 -15  14.676   1.853
  -2   1  15  12.339   2.336
   2  -1 -15  1.7966  8.5274
   1  -1 -15  82.908   3.483
   1  -1 -15  86.310   5.398
  -1   1  15  72.386   3.763
  -1   1  15  80.945   5.066
  -1   1  15  71.025   4.070
   1  -1 -15  64.213  11.987
   0  -1 -15  905.59   30.83
   0   1  15  988.70   65.51
   0   1  15  845.41   47.83
   0   1  15 1012.99   68.11
   0  -1 -15  924.36   83.42
   0   1  15 1036.07   89.06
  -1  -1 -15  366.32   11.23
  -1  -1 -15  384.50   20.31
   1   1  15  380.70   18.67
   1   1  15  397.81   22.09
   1   1  15  387.17   16.75
  -1  -1 -15  375.59   32.18
   1   1  15  383.81   29.06
  -2  -1 -15  117.82    6.23
  -2  -1 -15  115.57    5.36
   2   1  15  110.80    6.77
   2   1  15  110.96    6.40
   2   1  15  112.26    5.21
  -2  -1 -15  73.786  11.713
   2   1  15  94.715  12.411
  -3  -1 -15  129.29    7.29
   3   1  15  123.97    8.81
   3   1  15  133.66    8.02
   3   1  15  132.84    6.63
  -3  -1 -15  110.31   17.22
  -4  -1 -15 -0.3078  1.2208
  -4  -1 -15  0.6748  2.2884
   4   1  15  0.5723  2.0025
   4   1  15  1.7674  2.0403
  -5  -1 -15  6.3632  2.0254
  -5  -1 -15  7.2749  3.1038
   5   1  15  1.1904  1.8725
   5   1  15  5.5041  1.7621
   4  -2 -15  18.745   2.585
   4  -2 -15  20.702   3.364
   4  -2 -15  22.748   2.928
  -4   2  15  28.138   2.817
  -4   2  15  23.811   4.475
  -4   2  15  27.472   3.148
   4  -2 -15  22.136  12.760
   3  -2 -15  5.2660  1.5726
   3  -2 -15  5.0084  1.7147
   3  -2 -15  6.0143  2.1211
  -3   2  15  1.4069  2.3661
  -3   2  15  3.6130  1.9100
   3  -2 -15  -1.904   7.020
   2  -2 -15  21.639   1.832
   2  -2 -15  20.159   2.391
   2  -2 -15  26.590   1.891
  -2   2  15  22.332   2.632
   2  -2 -15  14.065   7.352
   1  -2 -15  29.887   2.358
   1  -2 -15  31.436   2.426
  -1   2  15  36.478   2.963
   1  -2 -15  11.087   6.432
   0  -2 -15  70.250   3.621
   0  -2 -15  75.983   4.362
   0   2  15  74.191   5.409
   0   2  15  66.967   4.202
   0   2  15  74.382   3.149
   0  -2 -15  63.468   9.749
  -1  -2 -15  55.422   3.626
   1   2  15  52.413   3.914
   1   2  15  57.506   3.220
   1   2  15  53.172   4.367
  -1  -2 -15  63.292  10.434
  -2  -2 -15  18.787   1.925
   2   2  15  15.978   2.349
   2   2  15  15.439   1.575
  -2  -2 -15  6.0405  7.8894
  -3  -2 -15  60.380   3.968
   3   2  15  55.517   3.699
   3   2  15  64.164   5.147
  -3  -2 -15  38.906   8.664
  -4  -2 -15  274.67   12.48
   4   2  15  291.49   15.45
   4   2  15  290.61   14.98
  -4  -2 -15  289.02   27.31
  -5  -2 -15  27.447   3.782
   5   2  15  36.613   3.776
   5   2  15  27.177   2.988
   4  -3 -15  -1.841   1.824
   4  -3 -15  1.7089  1.7301
   4  -3 -15  -1.060   1.640
  -4   3  15 -0.9280  1.6788
  -4   3  15  -3.489   2.521
   4  -3 -15   1.912  12.877
   3  -3 -15  107.54    6.33
   3  -3 -15  111.21    6.48
   3  -3 -15  105.05    6.02
  -3   3  15  102.91    8.80
  -3   3  15  117.55    8.49
   3  -3 -15  79.914  13.502
   2  -3 -15  246.28   12.52
   2  -3 -15  231.34    8.42
   2  -3 -15  237.29    8.52
  -2   3  15  240.00   16.33
   2  -3 -15  230.87   20.10
   1  -3 -15  60.614   3.681
   1  -3 -15  62.006   2.941
  -1   3  15  60.064   4.304
   1  -3 -15  34.459   9.919
   0  -3 -15  0.5965  1.2199
   0   3  15  1.2425  0.9541
   0   3  15  2.3475  1.4660
   0   3  15  1.0200  0.9599
   0  -3 -15  -1.292   7.044
  -1  -3 -15  128.24    5.78
   1   3  15  130.69    6.06
   1   3  15  130.05    7.40
  -1  -3 -15  122.08   13.78
  -2  -3 -15  95.807   4.894
   2   3  15  104.23    5.36
   2   3  15  91.284   5.575
  -2  -3 -15  69.427  11.531
  -3  -3 -15  5.0823  1.0921
  -3  -3 -15  4.1729  1.3863
   3   3  15  3.4867  1.2420
   3   3  15  3.9473  1.8325
  -3  -3 -15  2.3909  6.0727
  -4  -3 -15  227.92   18.46
  -4  -3 -15  214.45   10.48
   4   3  15  221.38   12.12
   4   3  15  224.83   11.75
  -4  -3 -15  198.39   22.72
   5   3  15  161.30    9.97
   5   3  15  144.62    9.44
  -5  -3 -15  94.305  20.162
   4  -4 -15  8.2893  3.0942
   4  -4 -15  4.2867  2.4650
  -4   4  15  6.9375  2.0763
  -4   4  15  4.2518  1.7325
   4  -4 -15  -0.614  12.302
   3  -4 -15  6.3599  2.3151
   3  -4 -15  1.2827  2.3740
  -3   4  15  1.8281  2.3562
  -3   4  15  2.9511  1.6605
   3  -4 -15  1.0219  6.4598
   2  -4 -15  4.0927  1.4964
   2  -4 -15  2.6726  1.3134
  -2   4  15  2.5937  1.4037
  -2   4  15  3.0738  2.0161
   2  -4 -15  -3.461   6.539
   1  -4 -15 -0.1341  1.3286
   1  -4 -15 -0.2742  1.7271
  -1   4  15 -0.2087  1.7585
   1  -4 -15  -3.449   7.966
   0  -4 -15  1.0855  1.1901
   0  -4 -15  3.8965  1.3531
   0   4  15  2.4095  1.8509
   0  -4 -15  1.9207  6.7086
  -1  -4 -15  31.215   2.490
  -1  -4 -15  36.599   2.602
   1   4  15  34.514   3.234
   1   4  15  31.248   2.186
  -1  -4 -15  23.633   7.414
  -2  -4 -15  -1.881   2.577
   2   4  15  1.7861  0.9879
   2   4  15  3.3799  1.9425
  -2  -4 -15  0.8212  5.2022
  -3  -4 -15  61.297   4.090
  -3  -4 -15  64.943   4.370
   3   4  15  61.714   3.913
   3   4  15  64.701   4.491
  -3  -4 -15  44.395  10.530
  -4  -4 -15  83.777   6.473
   4   4  15  74.808   4.764
   4   4  15  84.884   5.037
  -4  -4 -15  84.729  13.199
  -5  -4 -15  78.270   5.833
   5   4  15  76.700   5.235
   5   4  15  89.627   6.173
  -5  -4 -15   9.675  16.262
   3  -5 -15  174.47   10.61
   3  -5 -15  164.14    8.62
  -3   5  15  170.37   18.65
  -3   5  15  187.39   14.62
   3  -5 -15  169.31   20.86
   2  -5 -15  96.350   5.489
   2  -5 -15  101.75    5.13
  -2   5  15  93.949   8.148
  -2   5  15  106.25    7.77
   2  -5 -15  85.074  13.184
   1  -5 -15  31.842   2.766
   1  -5 -15  29.693   3.038
  -1   5  15  32.543   3.551
   1  -5 -15  37.221  10.120
   0  -5 -15  37.090   2.571
   0  -5 -15  24.320   1.942
   0   5  15  30.008   3.203
   0  -5 -15  28.818  10.169
  -1  -5 -15  49.717   3.360
  -1  -5 -15  52.159   3.480
   1   5  15  51.341   4.468
   1   5  15  53.157   3.966
  -1  -5 -15  38.039   7.566
  -2  -5 -15  188.43    8.62
  -2  -5 -15  175.16    8.64
   2   5  15  179.63   11.96
   2   5  15  189.87    8.82
  -2  -5 -15  192.78   17.68
  -3  -5 -15  144.22   11.36
  -3  -5 -15  141.77   11.98
  -3  -5 -15  140.83    9.49
   3   5  15  139.05    8.92
   3   5  15  154.69    8.73
  -3  -5 -15  148.55   15.85
  -4  -5 -15  16.847   2.618
   4   5  15  18.536   3.185
   4   5  15  20.133   2.367
  -4  -5 -15  11.481  11.147
  -5  -5 -15  49.290   4.340
   5   5  15  51.144   4.745
   5   5  15  50.646   4.459
  -5  -5 -15  41.669  12.702
   3  -6 -15  45.431   4.028
   3  -6 -15  37.986   3.770
  -3   6  15  31.190   4.449
  -3   6  15  44.627   4.629
   3  -6 -15  39.890   8.777
   2  -6 -15  196.55    9.82
   2  -6 -15  200.09   11.41
  -2   6  15  191.73   13.38
  -2   6  15  188.40   13.49
   2  -6 -15  190.02   19.42
   1  -6 -15  52.592   3.640
   1  -6 -15  57.195   3.630
  -1   6  15  53.121   5.326
   1  -6 -15  23.815   9.716
   0  -6 -15  21.221   2.902
   0  -6 -15  22.765   2.832
   0   6  15  19.128   2.915
   0  -6 -15  12.255   8.683
  -1  -6 -15  0.7348  1.3056
  -1  -6 -15  3.2525  1.5748
   1   6  15  1.3674  2.0603
  -1  -6 -15  -1.867   5.741
  -2  -6 -15 -0.8497  1.1066
   2   6  15  1.4454  2.1257
   2   6  15  2.2631  1.4298
  -2  -6 -15  -5.417   7.366
  -3  -6 -15  31.725   4.129
   3   6  15  34.329   3.097
   3   6  15  36.248   4.099
  -3  -6 -15  17.617   8.824
  -4  -6 -15  5.3666  1.7368
   4   6  15  1.9649  1.5542
   4   6  15  9.0859  2.9890
  -4  -6 -15   5.253  10.856
   2  -7 -15  -1.035   1.679
   2  -7 -15  1.2065  1.6509
  -2   7  15  0.6513  1.7043
  -2   7  15 -0.1453  2.2656
   2  -7 -15 -0.6104  9.1931
   1  -7 -15  78.089   5.257
   1  -7 -15  89.002   5.578
  -1   7  15  85.665   5.845
  -1   7  15  71.847   6.082
   1  -7 -15  76.911  12.810
   0  -7 -15  188.05    7.57
   0  -7 -15  190.96    9.64
   0   7  15  197.91   12.56
   0  -7 -15  207.97   17.75
  -1  -7 -15  89.535   5.612
  -1  -7 -15  84.681   5.877
   1   7  15  89.428   6.254
  -1  -7 -15  80.914  10.765
  -2  -7 -15  144.35    9.55
  -2  -7 -15  141.65    8.43
   2   7  15  149.64   12.05
  -2  -7 -15  151.96   16.52
  -3  -7 -15  51.517   4.849
   3   7  15  44.037   4.992
   3   7  15  45.357   4.468
  -3  -7 -15  32.610  11.722
  -4  -7 -15  24.505   3.237
   4   7  15  18.512   2.487
   4   7  15  27.330   4.991
  -4  -7 -15   5.020  11.247
   1  -8 -15 -0.2628  1.8575
   1  -8 -15  -1.923   1.945
  -1   8  15  0.1733  2.4108
  -1   8  15  -1.915   1.840
   1  -8 -15  1.9765  5.5561
   0  -8 -15  -1.887   1.833
   0  -8 -15  2.5022  2.9519
   0   8  15  1.6323  1.6340
   0  -8 -15  -7.378   7.701
  -1  -8 -15  27.088   3.320
  -1  -8 -15  24.242   4.102
   1   8  15  24.053   2.869
  -1  -8 -15  28.522   7.836
   2   8  15  28.339   3.463
  -2  -8 -15  18.137   7.256
  -3  -8 -15  18.731   3.663
   3   8  15  22.551   3.230
  -3  -8 -15  18.573  12.841
   2   4 -16  2.2301  1.8435
   2   4 -16  4.5272  1.9490
  -2  -4  16  4.2603  2.9892
  -2  -4  16  28.698  18.242
   1   4 -16  2.6143  1.4748
   1   4 -16  2.6995  2.7260
  -1  -4  16  1.6718  2.3744
  -1  -4  16  6.4751  2.7550
  -1  -4  16  -14.27   11.79
   0   4 -16  21.908   3.305
   0   4 -16  17.251   2.680
   0  -4  16  13.393   2.519
   0  -4  16  12.479   2.349
   0  -4  16  0.0000  9.7866
  -1   4 -16  50.723   4.600
  -1   4 -16  39.786   3.899
   1  -4  16  46.684   5.126
   1  -4  16  43.184   5.072
   1  -4  16  19.112  17.211
  -2   4 -16  58.004   4.818
  -2   4 -16  58.302   5.270
   2  -4  16  52.964   5.022
   2  -4  16  61.193   5.947
   2  -4  16  35.198  12.924
   3   3 -16  1.0584  1.6909
   3   3 -16  0.8935  2.2758
   2   3 -16  144.07    9.25
   2   3 -16  160.55    8.13
  -2  -3  16  151.76    9.84
  -2  -3  16  105.17   19.54
   1   3 -16  10.808   2.185
   1   3 -16  13.296   2.411
  -1  -3  16  12.064   2.677
  -1  -3  16  7.8301  2.3002
  -1  -3  16  6.3542  2.7882
  -1  -3  16  25.629  15.704
   0   3 -16  57.281   3.907
   0   3 -16  59.334   3.832
   0  -3  16  61.801   4.074
   0  -3  16  55.651   5.666
   0  -3  16  51.227   5.356
   0  -3  16  33.939  15.459
  -1   3 -16  8.8998  2.0606
  -1   3 -16  10.872   1.915
   1  -3  16  7.2561  2.2259
   1  -3  16  7.9428  2.6911
   1  -3  16  7.6495  2.7307
   1  -3  16  4.4025  8.9534
  -2   3 -16  17.963   2.355
  -2   3 -16  16.680   3.108
   2  -3  16  15.878   2.778
   2  -3  16  19.181   3.250
   2  -3  16  17.486   3.196
   2  -3  16   3.170  15.497
  -3   3 -16  143.08    9.35
  -3   3 -16  174.05    9.64
  -3   3 -16  120.29    9.32
   3  -3  16  139.41   11.58
   3  -3  16  143.36   12.03
   3  -3  16  162.45   10.38
   3  -3  16  141.67   24.19
   3   2 -16  1.5509  2.3751
   3   2 -16 -0.5398  2.1288
  -3  -2  16  -1.921   2.007
   2   2 -16  298.55   15.12
   2   2 -16  279.02   17.19
  -2  -2  16  285.66   18.44
  -2  -2  16  296.71   30.06
   1   2 -16  64.371   3.863
   1   2 -16  61.887   3.892
  -1  -2  16  62.436   5.887
  -1  -2  16  65.091   3.930
  -1  -2  16  59.628   4.757
  -1  -2  16  38.611  10.981
   0   2 -16  -2.601   1.536
   0   2 -16  1.0087  1.5488
   0  -2  16 -0.4859  1.3615
   0  -2  16  -1.370   1.859
   0  -2  16 -0.5030  2.5243
   0  -2  16  -3.955  13.442
  -1   2 -16  9.7709  2.6466
  -1   2 -16  11.086   1.607
   1  -2  16  9.0552  2.3660
   1  -2  16  10.540   1.842
   1  -2  16  9.4826  2.6397
   1  -2  16  13.740  11.223
  -2   2 -16  2.7899  2.4393
  -2   2 -16  4.0463  1.8166
   2  -2  16  -2.199   2.236
   2  -2  16  0.7220  1.4001
   2  -2  16  1.8097  2.0818
   2  -2  16  -7.973   8.950
  -3   2 -16  1.8231  2.0374
  -3   2 -16 -0.8496  2.9457
  -3   2 -16  -2.051   3.024
   3  -2  16 -0.5456  2.5397
   3  -2  16  1.8119  1.8536
   3  -2  16  2.1938  1.8970
   3  -2  16  -5.226  10.707
  -4   2 -16 -0.3189  2.5586
  -4   2 -16  3.6780  2.4782
   4  -2  16  4.8012  2.7117
   4  -2  16  0.9072  2.6245
   4   1 -16  2.5118  1.7377
   4   1 -16  0.5847  2.1065
   4   1 -16  2.3919  1.9031
  -4  -1  16  4.8950  2.7336
   3   1 -16  -1.550   2.020
   3   1 -16  1.0883  1.5192
  -3  -1  16  1.0372  2.1467
  -3  -1  16  -1.280   1.580
   2   1 -16  4.8819  1.2454
   2   1 -16  2.5563  1.3844
  -2  -1  16  6.4976  2.6188
  -2  -1  16  4.4430  1.2243
   1   1 -16  240.19   14.34
   1   1 -16  245.73   10.68
  -1  -1  16  237.06   18.38
  -1  -1  16  218.43   13.91
  -1  -1  16  249.93   18.18
  -1  -1  16  243.90   11.56
  -1  -1  16  242.80   24.89
   0   1 -16  202.65    8.39
   0   1 -16  200.59   11.17
   0  -1  16  199.61   11.66
   0  -1  16  180.29   11.25
   0  -1  16  207.56   10.91
   0  -1  16  158.38   13.63
  -1   1 -16  280.45    8.75
  -1   1 -16  283.14   19.44
   1  -1  16  259.83   15.73
   1  -1  16  256.04   15.10
   1  -1  16  269.51   15.39
   1  -1  16  242.17   25.18
  -2   1 -16  345.29   18.53
  -2   1 -16  348.87   21.88
   2  -1  16  347.68   20.18
   2  -1  16  334.99   22.29
   2  -1  16  314.41   20.15
   2  -1  16  338.99   33.87
  -3   1 -16  0.4111  2.0502
  -3   1 -16  4.2261  2.9004
   3  -1  16  4.8822  2.5511
   3  -1  16  4.0813  2.2694
   3  -1  16  5.3505  2.6410
   3  -1  16  13.664  10.577
  -4   1 -16  33.570   4.137
  -4   1 -16  24.235   4.390
   4  -1  16  30.412   3.758
   4  -1  16  26.338   3.435
   4  -1  16  30.476   4.490
   4   0 -16  1.9867  1.7627
   4   0 -16 -0.9545  1.8919
   4   0 -16  0.9676  1.8277
  -4   0  16  -1.252   2.482
  -4   0  16  -1.416   3.273
   3   0 -16 -0.9396  2.0937
   3   0 -16  0.5751  1.8781
   3   0 -16  -1.200   1.508
  -3   0  16  0.1293  2.7596
  -3   0  16  -3.222   2.030
   2   0 -16  32.384   2.654
   2   0 -16  31.672   2.500
  -2   0  16  32.544   2.642
  -2   0  16  27.880   3.079
   1   0 -16  89.614   5.708
   1   0 -16  89.672   4.736
  -1   0  16  92.571   5.156
  -1   0  16  95.562   6.360
  -1   0  16  88.318   5.155
   1   0 -16  57.768  12.128
   0   0 -16  42.286   3.506
   0   0 -16  48.172   3.040
   0   0  16  41.135   3.569
   0   0  16  40.949   3.127
   0   0  16  53.976   4.280
   0   0 -16  26.112   9.977
  -1   0 -16  35.710   2.982
  -1   0 -16  40.860   2.841
   1   0  16  42.271   3.751
   1   0  16  40.179   2.905
   1   0  16  48.119   3.806
   1   0  16  21.755  12.151
  -2   0 -16  8.5284  1.7781
   2   0  16  10.241   2.552
   2   0  16  6.2459  1.6042
   2   0  16  8.3548  1.6328
  -3   0 -16  115.56    6.16
   3   0  16  111.70    7.25
   3   0  16  112.18    8.77
   3   0  16  121.11    7.97
  -4   0 -16  1.9895  2.9782
  -4   0 -16  -2.089   3.422
   4   0  16  0.0205  2.1230
   4   0  16 -0.0625  2.4555
   4   0  16  1.3985  1.7372
   4  -1 -16  0.9362  1.3572
   4  -1 -16  3.3656  1.4412
   4  -1 -16  -1.870   1.611
  -4   1  16  2.2732  2.8286
  -4   1  16  4.3472  3.0493
   3  -1 -16  26.463   2.474
   3  -1 -16  25.736   2.752
   3  -1 -16  27.146   3.405
  -3   1  16  36.067   3.425
  -3   1  16  35.934   3.593
  -3   1  16  26.854   4.260
   3  -1 -16  3.9781  7.6509
   2  -1 -16  39.510   3.435
   2  -1 -16  46.120   3.493
  -2   1  16  44.476   3.824
   2  -1 -16  27.303  11.653
   1  -1 -16  49.132   3.314
   1  -1 -16  47.016   2.928
  -1   1  16  48.284   3.814
   1  -1 -16  45.660   9.770
   0  -1 -16  121.31    5.19
   0  -1 -16  112.70    7.88
   0   1  16  123.31    7.80
   0   1  16  98.141   7.123
   0   1  16  107.27    7.24
   0  -1 -16  100.92   14.04
  -1  -1 -16  33.958   2.696
   1   1  16  35.310   2.787
   1   1  16  41.040   3.511
   1   1  16  37.391   2.737
  -1  -1 -16  25.869   9.112
  -2  -1 -16  10.741   2.018
   2   1  16  9.7070  2.2290
   2   1  16  9.4303  2.3129
   2   1  16  6.6880  1.7578
  -2  -1 -16  5.6395  7.6644
  -3  -1 -16  234.42   12.69
   3   1  16  251.66   13.45
   3   1  16  237.46   13.10
   3   1  16  235.45   17.35
  -4  -1 -16  167.51    9.76
  -4  -1 -16  187.14   10.31
   4   1  16  179.39   10.96
   4   1  16  187.94   11.12
   4   1  16  183.14   14.35
  -5  -1 -16  62.553   6.487
  -5  -1 -16  67.716   4.953
   5   1  16  64.589   6.264
   5   1  16  66.208   5.484
   4  -2 -16  6.6066  2.2136
   4  -2 -16  0.5758  2.9132
   4  -2 -16  0.9839  2.1068
  -4   2  16  4.9775  2.3024
  -4   2  16  -2.345   2.782
  -4   2  16  4.8843  2.6015
   4  -2 -16 -0.3637  9.8871
   3  -2 -16  48.759   3.731
   3  -2 -16  54.875   3.843
   3  -2 -16  51.302   4.717
  -3   2  16  56.548   5.445
  -3   2  16  51.218   5.788
   3  -2 -16  17.305  13.849
   2  -2 -16  24.905   2.310
   2  -2 -16  21.474   2.013
   2  -2 -16  27.194   3.624
  -2   2  16  21.418   2.852
   2  -2 -16  8.8954  6.9909
   1  -2 -16  5.0289  1.7531
  -1   2  16  8.6358  1.7747
   1  -2 -16  -9.126   8.139
   0  -2 -16  15.952   1.722
   0   2  16  15.722   1.740
   0   2  16  15.956   2.558
   0   2  16  14.787   1.575
   0  -2 -16  15.189   8.685
  -1  -2 -16  3.1105  1.7446
   1   2  16  0.8427  1.0040
   1   2  16  0.0777  1.8088
   1   2  16  0.6097  1.3021
  -1  -2 -16  -2.735   6.936
  -2  -2 -16  14.332   1.584
   2   2  16  17.057   1.805
   2   2  16  19.003   2.424
   2   2  16  14.098   2.174
  -2  -2 -16  5.2699  6.7284
  -3  -2 -16  8.6097  2.1588
   3   2  16  10.456   1.911
   3   2  16  9.9529  2.2428
  -3  -2 -16  11.006  10.899
  -4  -2 -16  8.1677  2.2451
   4   2  16  6.2111  2.5792
   4   2  16  8.6030  1.7338
  -5  -2 -16  10.850   3.247
   5   2  16  14.671   3.293
   5   2  16  8.3023  2.7761
   4  -3 -16  17.677   3.517
   4  -3 -16  11.944   3.657
  -4   3  16  12.876   3.107
  -4   3  16  18.930   3.408
   4  -3 -16   7.486  10.681
   3  -3 -16  8.3151  2.0037
   3  -3 -16  10.404   2.562
  -3   3  16  8.4074  2.4869
  -3   3  16  13.510   2.746
   3  -3 -16  7.4465  9.1983
   2  -3 -16  3.4480  2.0913
   2  -3 -16  4.7442  1.5656
  -2   3  16  2.7274  2.1941
   2  -3 -16  -9.169   5.833
   1  -3 -16  17.596   1.999
   1  -3 -16  21.216   1.837
  -1   3  16  20.307   2.696
   1  -3 -16  11.968   7.871
   0  -3 -16  6.4813  1.3260
   0   3  16  6.3776  1.7202
   0  -3 -16  3.3084  6.0167
  -1  -3 -16  5.6937  1.2806
   1   3  16  8.0770  1.7896
   1   3  16  5.4893  1.3548
   1   3  16  6.1189  1.9515
  -1  -3 -16  17.638   7.711
  -2  -3 -16  106.54    5.81
   2   3  16  103.75    5.74
   2   3  16  121.40    6.56
  -2  -3 -16  82.151  12.667
  -3  -3 -16  150.40    7.89
   3   3  16  164.76    9.40
   3   3  16  165.90    8.65
  -3  -3 -16  136.32   16.79
  -4  -3 -16  269.89   18.04
  -4  -3 -16  284.37   21.69
   4   3  16  303.04   16.29
   4   3  16  304.78   16.24
  -4  -3 -16  311.09   29.08
   5   3  16  1.9060  2.2033
   5   3  16  3.9902  2.8665
   3  -4 -16  150.62    8.79
   3  -4 -16  133.22    9.04
  -3   4  16  138.07    9.35
  -3   4  16  144.72   10.66
   3  -4 -16  148.16   22.39
   2  -4 -16  57.278   4.756
   2  -4 -16  56.135   3.915
  -2   4  16  61.712   6.397
  -2   4  16  65.595   4.413
   2  -4 -16  51.721  10.759
   1  -4 -16  88.738   4.203
   1  -4 -16  87.531   4.705
  -1   4  16  96.783   6.943
   1  -4 -16  59.307  11.555
   0  -4 -16  25.530   2.317
   0  -4 -16  28.658   3.004
   0   4  16  25.097   2.976
   0  -4 -16  22.701   7.738
  -1  -4 -16 -0.4731  1.6449
  -1  -4 -16  1.4408  1.8246
   1   4  16  -1.003   1.319
   1   4  16  -2.418   1.943
  -1  -4 -16  2.5542  5.6189
  -2  -4 -16  0.1956  1.6403
   2   4  16  0.5030  1.1763
   2   4  16  0.2585  1.4530
  -2  -4 -16  -6.161   7.817
  -3  -4 -16  4.3943  1.3255
  -3  -4 -16  2.2096  1.2198
   3   4  16  1.7785  2.0797
   3   4  16  3.3656  1.3746
  -3  -4 -16  4.1881  9.7745
  -4  -4 -16  1.3322  1.2917
   4   4  16  4.3723  2.1997
   4   4  16  0.4391  1.3597
  -4  -4 -16  11.130  12.391
   5   4  16  9.8370  2.2487
   5   4  16  7.2579  2.4707
  -5  -4 -16  16.665  12.766
   3  -5 -16  4.2247  1.8021
   3  -5 -16  2.3745  2.1000
  -3   5  16 -0.0796  2.2958
  -3   5  16  0.9746  2.7613
   3  -5 -16  -10.03   11.81
   2  -5 -16  48.791   4.478
   2  -5 -16  52.713   4.984
  -2   5  16  56.913   4.918
  -2   5  16  51.237   4.611
   2  -5 -16  59.553  15.994
   1  -5 -16  29.008   3.387
   1  -5 -16  25.676   3.142
  -1   5  16  29.988   3.875
   1  -5 -16  9.7784  9.7557
   0  -5 -16  12.133   2.510
   0  -5 -16  14.820   2.473
   0   5  16  9.3478  2.1287
   0  -5 -16  8.0242  7.6138
  -1  -5 -16  161.20    6.54
  -1  -5 -16  163.34    7.60
   1   5  16  157.45    8.59
  -1  -5 -16  149.84   14.60
  -2  -5 -16  147.77    8.16
  -2  -5 -16  144.85    9.41
   2   5  16  149.95   10.01
   2   5  16  144.16    7.81
  -2  -5 -16  168.10   18.24
  -3  -5 -16  39.147   3.195
  -3  -5 -16  40.012   3.523
  -3  -5 -16  40.378   4.163
   3   5  16  39.398   3.889
   3   5  16  44.435   4.280
  -3  -5 -16  25.146  11.459
  -4  -5 -16  57.218   5.137
   4   5  16  62.601   5.718
   4   5  16  63.796   3.868
  -4  -5 -16  52.322  11.985
   2  -6 -16  0.2971  2.6956
   2  -6 -16  -5.879   2.768
  -2   6  16  0.6746  2.8229
  -2   6  16  2.2718  2.5165
   2  -6 -16   4.760  10.539
   1  -6 -16  28.276   2.897
   1  -6 -16  32.794   3.616
  -1   6  16  27.702   3.655
   1  -6 -16  40.968  12.679
   0  -6 -16  2.0547  2.0438
   0  -6 -16  -1.903   1.565
   0   6  16  2.8542  1.9378
   0  -6 -16  -1.466   7.243
  -1  -6 -16  16.722   2.476
  -1  -6 -16  19.611   2.806
   1   6  16  17.276   1.912
  -1  -6 -16  11.652   9.529
  -2  -6 -16  2.4082  1.8560
  -2  -6 -16  7.0305  1.8269
   2   6  16  5.9605  2.1386
  -2  -6 -16  1.5490  8.8499
  -3  -6 -16  225.87   18.02
   3   6  16  230.42   14.75
   3   6  16  218.60   10.65
  -3  -6 -16  215.06   24.02
  -4  -6 -16  1.0460  2.3281
   4   6  16  3.9422  3.0758
   4   6  16 -0.2632  1.6702
  -4  -6 -16  -5.254   7.794
   1  -7 -16  2.1766  2.1759
   1  -7 -16  -2.243   2.030
  -1   7  16  -1.349   2.797
   1  -7 -16  2.1676  5.2742
   0  -7 -16  3.2480  1.6196
   0  -7 -16  5.7279  2.7855
   0   7  16  -1.279   2.855
   0  -7 -16  3.1188  9.3284
  -1  -7 -16  100.50    7.64
  -1  -7 -16  93.545   6.370
   1   7  16  100.29    8.12
  -1  -7 -16  103.80   15.70
   2   7  16  15.751   2.603
  -2  -7 -16  9.0019  9.3541
  -3  -7 -16  26.593   3.856
   3   7  16  25.305   4.249
   3   7  16  29.181   7.245
  -3  -7 -16  19.458   9.719
  -1  -8 -16  101.82    6.98
  -1  -8 -16  103.08    8.68
   1   8  16  111.09    8.60
  -1  -8 -16  101.90   13.74
   2   3 -17  68.914   5.494
   2   3 -17  73.363   4.630
  -2  -3  17  38.626  17.430
   1   3 -17  67.252   5.769
   1   3 -17  65.370   4.520
  -1  -3  17  70.115   7.110
  -1  -3  17  55.842   5.039
  -1  -3  17  67.652   6.374
  -1  -3  17  42.687  21.326
   0   3 -17  62.469   5.145
   0   3 -17  68.668   4.028
   0  -3  17  66.638   6.577
   0  -3  17  66.737   6.225
   0  -3  17  67.920   5.780
   0  -3  17  84.872  22.719
  -1   3 -17  152.01    7.52
  -1   3 -17  129.49    9.08
   1  -3  17  137.00   11.80
   1  -3  17  145.02   11.64
   1  -3  17  138.23   11.34
   1  -3  17  139.99   25.16
  -2   3 -17  16.508   3.283
  -2   3 -17  12.045   2.671
   2  -3  17  12.230   3.246
   2  -3  17  15.110   3.550
   2  -3  17  12.185   3.632
   2  -3  17  -9.131  19.386
   2   2 -17  56.422   4.603
   2   2 -17  55.270   4.285
  -2  -2  17  52.014   5.171
   1   2 -17  15.670   2.177
   1   2 -17  11.872   2.602
  -1  -2  17  17.874   2.688
  -1  -2  17  15.335   3.021
  -1  -2  17  12.922   2.425
  -1  -2  17   2.386  16.286
   0   2 -17  93.270   6.257
   0   2 -17  97.097   7.194
   0  -2  17  98.062   9.019
   0  -2  17  88.377   8.007
   0  -2  17  88.848   8.605
   0  -2  17  77.774  18.438
  -1   2 -17  49.707   4.109
  -1   2 -17  61.103   5.103
   1  -2  17  54.901   4.703
   1  -2  17  60.233   5.600
   1  -2  17  60.998   6.168
   1  -2  17  55.002  17.428
  -2   2 -17  1.0066  3.3747
   2  -2  17 -0.0962  1.7386
   2  -2  17  1.9996  1.7729
   2  -2  17  1.1079  1.6646
   2  -2  17  -8.566  16.515
  -3   2 -17  2.2199  2.7823
  -3   2 -17  0.1152  2.2522
   3  -2  17  1.7320  2.1815
   3  -2  17  0.9830  2.0592
   3  -2  17  2.1715  2.2104
   3  -2  17  -38.93   19.59
   3   1 -17  37.776   4.207
   3   1 -17  41.554   4.332
  -3  -1  17  42.819   4.853
  -3  -1  17  43.763   4.187
   2   1 -17  6.3099  1.5193
   2   1 -17  5.2960  1.8857
  -2  -1  17  5.6648  2.6203
  -2  -1  17  4.5880  1.8022
   1   1 -17  4.5153  1.6523
   1   1 -17  4.1986  1.3961
  -1  -1  17  4.2408  2.9343
  -1  -1  17  2.0376  3.9310
   0   1 -17  0.5906  1.5150
   0   1 -17 -0.5541  1.6126
   0  -1  17 -0.1454  1.2354
   0  -1  17  0.9493  1.5042
   0  -1  17  1.6395  1.4095
  -1   1 -17  0.3702  2.1847
  -1   1 -17  0.9312  1.4087
   1  -1  17 -0.3578  2.2217
   1  -1  17  0.2498  1.4558
   1  -1  17  -1.015   1.312
   1  -1  17   4.716  12.623
  -2   1 -17  73.920   5.069
   2  -1  17  59.689   4.607
   2  -1  17  71.411   6.221
   2  -1  17  69.303   5.794
  -3   1 -17  96.662   5.997
   3  -1  17  120.82    7.38
   3  -1  17  109.17    7.68
   3  -1  17  114.86    8.40
   3   0 -17 -0.2162  2.2012
   3   0 -17  0.3360  1.3739
   3   0 -17 -0.2165  1.6244
  -3   0  17  0.9668  2.6382
  -3   0  17  0.3508  1.9102
   2   0 -17  27.078   2.762
   2   0 -17  19.113   2.501
  -2   0  17  31.312   2.986
  -2   0  17  23.415   3.211
   1   0 -17  138.22    7.84
   1   0 -17  139.45    7.36
  -1   0  17  151.40    9.47
   0   0 -17  55.103   3.443
   0   0  17  59.832   4.812
   0   0  17  54.939   5.139
   0   0  17  59.323   4.672
  -1   0 -17  6.5934  2.0098
   1   0  17  2.1953  1.9752
   1   0  17  3.8104  1.7880
   1   0  17  1.7998  2.3125
  -2   0 -17  15.805   2.176
   2   0  17  14.661   2.634
   2   0  17  18.918   3.075
   2   0  17  12.647   2.389
  -3   0 -17 -0.6194  2.5135
   3   0  17  1.4475  2.5911
   3   0  17  -1.760   1.439
   3   0  17 -0.5988  1.5674
  -4   0 -17  5.7455  3.1015
  -4   0 -17  5.2435  2.2491
   4   0  17  7.1094  3.0705
   4   0  17  1.2075  2.7045
   4   0  17  4.8460  3.0951
   3  -1 -17  2.8854  1.9866
   3  -1 -17  0.4168  1.6610
  -3   1  17  0.5382  2.4413
  -3   1  17  1.5640  1.8515
   2  -1 -17  1.3570  1.8207
   2  -1 -17 -0.7529  2.0094
  -2   1  17  2.8590  1.7927
   2  -1 -17  5.9926  8.1073
   1  -1 -17  68.258   5.686
  -1   1  17  71.578   5.932
   1  -1 -17  33.000  12.173
   0  -1 -17  1.3644  2.0565
   0   1  17  -1.227   2.134
   0   1  17 -0.1360  1.3872
   0   1  17 -0.5483  1.4351
   0  -1 -17 -0.9395  7.0086
  -1  -1 -17  125.73    7.11
   1   1  17  143.59   12.18
   1   1  17  121.60   10.23
   1   1  17  129.72    6.90
  -1  -1 -17  127.68   18.41
  -2  -1 -17  146.01    7.70
   2   1  17  152.55   10.21
   2   1  17  160.64   10.79
   2   1  17  147.17   12.62
  -3  -1 -17  142.51    7.84
   3   1  17  151.79   11.20
   3   1  17  149.05    9.53
   3   1  17  161.07    8.29
  -4  -1 -17  -1.997   2.430
   4   1  17  1.9733  2.1155
   4   1  17  2.3250  1.9391
   4   1  17  1.2869  1.7609
   3  -2 -17  124.65    8.65
   3  -2 -17  128.72    9.14
  -3   2  17  132.44   12.62
  -3   2  17  140.19   11.12
   3  -2 -17  94.349  19.616
   2  -2 -17  192.75   11.58
   2  -2 -17  197.33   11.03
  -2   2  17  199.47   16.26
   2  -2 -17  145.76   18.96
   1  -2 -17  45.349   3.254
  -1   2  17  54.252   4.016
   1  -2 -17  25.397  12.978
   0  -2 -17  14.215   2.579
   0   2  17  14.555   2.780
   0  -2 -17  9.6010  7.3050
  -1  -2 -17  24.494   2.460
   1   2  17  25.186   2.527
   1   2  17  23.209   2.105
   1   2  17  22.568   2.347
  -1  -2 -17  5.3050  8.4405
  -2  -2 -17  16.097   2.295
   2   2  17  17.007   2.322
   2   2  17  20.842   2.410
   2   2  17  17.661   3.157
  -2  -2 -17  9.1214  7.8093
  -3  -2 -17  8.9352  1.8752
   3   2  17  6.1680  1.7063
   3   2  17  10.238   2.792
   3   2  17  8.4046  1.7228
  -3  -2 -17  -2.878  12.399
  -4  -2 -17  1.7412  2.1290
   4   2  17  -3.523   2.329
   4   2  17  3.6118  2.1022
   3  -3 -17  56.961   4.786
   3  -3 -17  63.149   4.964
  -3   3  17  52.545   6.711
  -3   3  17  58.812   5.451
   3  -3 -17  37.651  18.809
   2  -3 -17  10.816   2.197
   2  -3 -17  11.931   2.639
  -2   3  17  16.298   3.393
   2  -3 -17  12.656   8.583
   1  -3 -17  13.026   2.089
   1  -3 -17  7.8049  1.9968
  -1   3  17  6.1217  2.1901
   1  -3 -17   8.015  10.590
   0  -3 -17  -2.374   2.053
   0   3  17  0.7717  1.5114
   0  -3 -17  -11.87    9.12
  -1  -3 -17  20.051   2.252
   1   3  17  16.656   2.250
   1   3  17  20.159   2.538
   1   3  17  18.952   2.095
  -1  -3 -17  3.6883  7.2438
  -2  -3 -17  43.159   2.886
   2   3  17  36.334   4.345
   2   3  17  37.810   3.348
  -2  -3 -17  25.551  10.258
  -3  -3 -17  2.7286  1.9965
   3   3  17  1.5517  2.9458
   3   3  17  -2.873   2.612
  -3  -3 -17   6.017  11.825
  -4  -3 -17  14.510   2.123
   4   3  17  17.275   3.042
   4   3  17  14.948   2.810
  -4  -3 -17  -8.077   9.713
   3  -4 -17  6.3754  2.4264
   3  -4 -17  4.0518  2.3879
  -3   4  17  1.6250  1.8803
  -3   4  17  0.4050  1.9144
   3  -4 -17   4.469  12.572
   2  -4 -17  40.461   4.522
   2  -4 -17  34.266   3.703
  -2   4  17  42.549   3.961
  -2   4  17  34.405   5.684
   2  -4 -17  16.554  10.045
   1  -4 -17  0.8608  1.6319
   1  -4 -17  1.6663  1.8347
  -1   4  17  1.9966  2.1977
   1  -4 -17  -3.698  10.982
   0  -4 -17  8.9477  2.5257
   0  -4 -17  11.778   2.020
   0   4  17  11.446   1.939
   0  -4 -17   4.099  11.153
  -1  -4 -17  95.802   6.964
  -1  -4 -17  100.69    5.90
   1   4  17  101.30    6.88
  -1  -4 -17  88.343  14.010
   2   4  17  729.56   53.02
   2   4  17  814.07   39.93
  -2  -4 -17  744.61   76.87
  -3  -4 -17  43.197   4.683
   3   4  17  41.140   4.133
   3   4  17  39.767   3.706
  -3  -4 -17  27.938   9.155
  -4  -4 -17  0.6470  1.9993
   4   4  17  1.2518  1.5676
   4   4  17  -2.091   2.815
  -4  -4 -17  -3.210  10.561
   2  -5 -17  2.0787  2.1279
   2  -5 -17  5.0008  2.8976
  -2   5  17  3.8808  2.5901
  -2   5  17  0.4971  2.0692
   2  -5 -17  -5.941  10.312
   1  -5 -17  24.682   2.603
   1  -5 -17  19.442   2.957
  -1   5  17  19.590   3.087
   1  -5 -17  17.828  10.832
   0  -5 -17  40.987   3.357
   0  -5 -17  32.529   3.380
   0   5  17  33.787   3.993
   0  -5 -17  23.940  11.576
  -1  -5 -17 -0.4370  2.1288
  -1  -5 -17  2.0349  2.0614
   1   5  17  1.1392  1.8722
  -1  -5 -17 -0.9298  6.7843
  -2  -5 -17  9.7522  2.1002
  -2  -5 -17  9.0898  1.7066
   2   5  17  10.598   2.665
  -2  -5 -17   7.253  10.159
  -3  -5 -17  81.776   5.777
  -3  -5 -17  78.582   5.733
   3   5  17  84.597   6.137
   3   5  17  78.715   5.618
  -3  -5 -17  58.812  15.519
  -4  -5 -17  59.211   7.002
   4   5  17  48.417   4.702
   4   5  17  64.120   6.484
  -4  -5 -17  31.117  16.453
   1  -6 -17  24.811   3.438
   1  -6 -17  18.771   3.510
  -1   6  17  22.802   2.461
   1  -6 -17  27.795  11.358
   0  -6 -17  411.86   19.23
   0  -6 -17  400.83   24.56
   0   6  17  413.86   30.11
   0  -6 -17  482.50   38.33
  -1  -6 -17  125.90    6.67
  -1  -6 -17  127.63    6.92
   1   6  17  129.98    8.49
  -1  -6 -17  133.69   18.31
  -2  -6 -17  7.7533  2.3933
  -2  -6 -17  5.9574  1.9215
   2   6  17  7.1459  3.0681
  -2  -6 -17   3.188  10.057
   3   6  17  198.97   13.44
   3   6  17  202.32   13.90
  -3  -6 -17  181.73   27.67
   0  -7 -17  28.508   3.565
   0  -7 -17  27.596   3.606
   0   7  17  26.628   3.275
   0  -7 -17  12.558  11.279
  -1  -7 -17  1.4781  1.9281
  -1  -7 -17  2.9394  2.6874
   1   7  17  2.9008  2.0540
  -1  -7 -17   5.419  10.865
   2   7  17  42.430   4.969
  -2  -7 -17  57.189  13.830
   1   2 -18  22.432   3.051
   1   2 -18  21.679   2.997
  -1  -2  18  18.350   3.813
   0   2 -18  -1.626   1.798
   0  -2  18  2.4459  3.2407
   0  -2  18  1.8957  2.7625
   0  -2  18  2.1026  2.5280
  -1   2 -18  13.564   2.894
   1  -2  18  18.559   4.144
   1  -2  18  11.110   2.655
   1  -2  18  12.970   2.396
  -2   2 -18  36.201   3.798
   2  -2  18  38.950   4.494
   2  -2  18  40.433   4.207
   2   1 -18  48.688   4.633
  -2  -1  18  46.749   5.008
   1   1 -18  3.1991  1.8761
  -1  -1  18  0.5538  2.1182
   0   1 -18  48.533   4.173
   0  -1  18  38.949   3.855
   0  -1  18  42.546   5.910
   0  -1  18  51.442   5.976
  -1   1 -18  72.995   5.706
   1  -1  18  84.435   7.309
   1  -1  18  68.809   6.668
   1  -1  18  62.010   7.130
  -2   1 -18  42.505   4.310
   2  -1  18  32.215   3.610
   2  -1  18  46.755   6.225
   2  -1  18  36.337   4.085
   3  -1  18  1.6041  2.7069
   2   0 -18  73.022   6.085
  -2   0  18  69.032   6.425
  -2   0  18  65.647   6.285
   1   0 -18  9.7042  2.6628
  -1   0  18  12.628   3.172
   0   0 -18  0.1474  1.6884
   0   0  18  0.2054  1.7305
  -1   0 -18  38.320   3.388
   1   0  18  27.582   3.201
   1   0  18  30.402   3.376
   1   0  18  33.205   3.676
  -2   0 -18  92.039   6.755
   2   0  18  95.809   8.188
   2   0  18  101.22    6.71
   2   0  18  106.67    7.94
  -3   0 -18  10.929   3.185
   3   0  18  8.0651  3.3330
   3   0  18  10.711   3.098
   3   0  18  8.9638  1.9267
   2  -1 -18  126.67    9.33
   2  -1 -18  119.06    9.45
  -2   1  18  129.30   12.08
   1  -1 -18  2.5934  1.5679
  -1   1  18  1.9701  2.2177
   0  -1 -18  64.561   4.649
   0   1  18  74.579   5.972
  -1  -1 -18  81.534   5.141
   1   1  18  75.782   6.151
   1   1  18  73.219   7.662
   1   1  18  81.380   7.467
  -2  -1 -18  2.8361  2.4985
   2   1  18 -0.8320  1.4520
   2   1  18  0.4844  2.2539
   2   1  18  5.0346  3.0416
  -3  -1 -18  41.843   4.083
   3   1  18  45.102   4.496
   3   1  18  38.679   4.002
   3   1  18  54.528   5.317
   2  -2 -18  3.3612  1.6850
   2  -2 -18  1.5881  2.6141
  -2   2  18  5.5126  2.6793
   2  -2 -18  -21.70   13.00
   1  -2 -18  6.6124  2.5477
  -1   2  18  5.4138  1.9252
   1  -2 -18  -6.411   8.570
   0  -2 -18  133.98    9.61
   0   2  18  152.83   13.89
   0  -2 -18  104.42   14.68
  -1  -2 -18  714.28   41.64
   1   2  18  713.19   59.00
   1   2  18  723.00   82.48
  -1  -2 -18  800.70   76.94
  -2  -2 -18  76.091   4.728
   2   2  18  71.063   5.646
   2   2  18  70.043   6.645
   2   2  18  85.491   6.892
  -2  -2 -18  57.257  12.559
  -3  -2 -18  13.072   2.706
   3   2  18  12.611   3.527
   3   2  18  16.719   3.144
   3   2  18  15.418   2.390
   2  -3 -18  7.0084  2.0180
   2  -3 -18  5.4048  3.0053
  -2   3  18  3.8636  2.7160
  -2   3  18  8.5925  3.0592
   2  -3 -18   6.549  11.133
   1  -3 -18  7.2727  2.1277
   1  -3 -18  3.4093  2.0894
  -1   3  18  4.5542  2.9237
   1  -3 -18  -2.882  11.427
   0  -3 -18  9.3886  1.9493
   0  -3 -18  11.186   2.814
   0   3  18  10.557   3.115
   0  -3 -18  -3.801  10.602
  -1  -3 -18  2.8680  1.9977
   1   3  18  4.7816  2.8246
  -1  -3 -18 -0.2088  5.7424
  -2  -3 -18  9.9302  2.6138
   2   3  18  5.6212  2.1680
   2   3  18  5.7474  2.0806
   2   3  18  6.1557  1.8401
  -2  -3 -18  -1.719  12.338
  -3  -3 -18  -1.525   1.518
   3   3  18  1.1663  1.5339
   3   3  18  0.5712  1.7003
  -3  -3 -18  -5.957   9.005
   2  -4 -18  7.6342  2.5406
   2  -4 -18  2.4694  2.9280
  -2   4  18  3.5672  2.9050
  -2   4  18  2.4339  2.5397
   2  -4 -18  11.993   8.570
   1  -4 -18  256.50   15.00
   1  -4 -18  255.29   15.86
  -1   4  18  264.52   21.57
   1  -4 -18  245.48   30.20
   0  -4 -18  116.47    6.48
   0  -4 -18  108.12    7.12
   0   4  18  118.13    9.03
   0  -4 -18  117.25   15.76
  -1  -4 -18  15.529   2.744
  -1  -4 -18  13.784   2.303
   1   4  18  18.575   3.452
  -1  -4 -18  12.752   9.513
  -2  -4 -18  59.706   5.281
   2   4  18  64.322   6.381
  -2  -4 -18  50.887  13.596
  -3  -4 -18  7.6421  2.4734
   3   4  18  8.7240  3.0958
   3   4  18  5.3785  2.2748
  -3  -4 -18  -3.022  12.824
   1  -5 -18  100.14    6.92
   1  -5 -18  86.400   6.341
  -1   5  18  94.272   6.865
   1  -5 -18  90.410  13.592
   0  -5 -18  5.6692  1.9533
   0  -5 -18  8.9314  2.3495
   0   5  18  7.8029  2.8168
   0  -5 -18  0.1919  7.8594
  -1  -5 -18  48.771   3.837
  -1  -5 -18  51.927   3.497
   1   5  18  38.150   3.980
  -1  -5 -18  41.957  12.828
  -2  -5 -18  31.927   3.199
  -2  -5 -18  32.510   3.753
   2   5  18  33.416   3.282
  -2  -5 -18  12.579  12.895
   3   5  18  -4.303   2.287
   3   5  18  0.6424  2.1670
  -3  -5 -18  -3.519  10.002
   0  -6 -18  6.8309  2.8399
   0  -6 -18  7.4099  3.1859
   0   6  18  8.1703  2.5739
   0  -6 -18  -8.081  11.992
  -1  -6 -18  89.050   6.605
  -1  -6 -18  84.728   6.327
   1   6  18  83.456   8.387
  -1  -6 -18  85.917  13.747
  -2  -6 -18  190.41   12.57
  -2  -6 -18  195.22   12.22
   2   6  18  220.26   19.54
  -2  -6 -18  197.29   31.39
   0   1 -19  8.2933  2.2977
   0  -1  19  11.598   3.430
  -1   1 -19  14.975   3.516
   1  -1  19  8.3340  2.2948
   1  -1  19  7.3062  2.1823
   1  -1  19  10.495   2.703
   1   0 -19  34.315   3.816
  -1   0  19  31.694   5.641
   0   0 -19  293.02   22.86
   0   0  19  311.47   30.82
  -1   0 -19  64.362   4.779
   1   0  19  70.332   6.875
   1   0  19  53.360   5.369
   1   0  19  57.202   6.383
  -2   0 -19  35.496   3.616
   2   0  19  27.245   3.703
   2   0  19  33.793   5.191
   2   0  19  30.463   3.959
   1  -1 -19  4.3862  2.7658
  -1   1  19  5.1023  2.4455
   0  -1 -19  129.40    9.11
   0   1  19  118.68   12.01
  -1  -1 -19  12.717   3.178
   1   1  19  19.875   4.075
  -2  -1 -19  1.0832  2.4345
   2   1  19  0.8039  2.6619
   2   1  19  2.4801  2.9075
   2   1  19  -1.180   2.184
   1  -2 -19  76.946   6.207
   1  -2 -19  79.802   6.293
  -1   2  19  80.926   8.697
   1  -2 -19  50.212  16.717
   0  -2 -19  3.4553  2.5044
   0   2  19  8.8545  3.1450
   0  -2 -19   5.990  13.472
  -1  -2 -19  127.66    9.89
   1   2  19  131.75   11.19
  -1  -2 -19  89.339  16.455
  -2  -2 -19  18.780   2.323
   2   2  19  17.249   3.517
   2   2  19  20.072   2.801
   2   2  19  24.038   3.914
   3   2  19  73.270   8.023
   1  -3 -19  40.591   4.490
   1  -3 -19  34.221   4.201
  -1   3  19  34.796   5.339
   1  -3 -19  37.614  12.309
   0  -3 -19  3.9141  1.7245
   0  -3 -19  4.5641  1.9713
   0   3  19  4.1043  2.9975
   0  -3 -19   5.826  10.023
  -1  -3 -19  0.5537  1.9632
   1   3  19  1.4374  2.6029
  -1  -3 -19  5.7907  9.8339
  -2  -3 -19  31.960   3.380
   2   3  19  28.306   4.641
  -2  -3 -19  20.772  18.231
   1  -4 -19  18.202   2.983
   1  -4 -19  20.057   3.039
  -1   4  19  19.288   4.043
   1  -4 -19 -0.4878  9.7682
   0  -4 -19  51.930   4.321
   0  -4 -19  54.786   4.270
   0   4  19  59.933   6.146
   0  -4 -19  32.172  15.968
  -1  -4 -19  81.297   6.421
  -1  -4 -19  81.051   6.280
   1   4  19  82.451   7.945
  -1  -4 -19  84.150  18.418
  -2  -4 -19  0.2568  2.4480
   2   4  19  0.0445  2.1144
  -2  -4 -19   8.982  10.041
   0  -5 -19  22.158   3.498
   0  -5 -19  16.901   2.679
   0   5  19  21.110   3.573
   0  -5 -19  17.084  15.765
  -1  -5 -19  28.797   3.919
  -1  -5 -19  27.429   3.551
   1   5  19  26.324   4.816
  -1  -5 -19  13.649  13.325
   0   0   0    0.00    0.00   0
;
_shelx_hkl_checksum   42638

