 
data_k13066
 
_audit_creation_method            SHELXL-2013 
# CIF file largely edited automatically on-the-fly by script CIFFIX. 
 
_publ_section_exptl_refinement 
; 
H atoms were found in difference Fourier maps and subsequently placed 
in idealized positions with constrained distances of 0.98 \%A (RCH~3~), 
0.99 \%A (R~2~CH~2~), 0.95 \%A (C~sp2~H), and with U~iso~(H) values set 
to either 1.2U~eq~ or 1.5U~eq~ (RCH~3~) of the attached atom. 

To ensure satisfactory refinement of the disordered parts of the structure, 
a combination of constraints and restraints were required.  The constraints 
(SHELXL commands EXYZ and EADP) were included to force coordinates and/or 
displacement parameters of superimposed or partially overlapping fragments 
to be equal. The restraints (SHELXL commands SAME, SADI and RIGU) were used 
to ensure similar geometries and/or displacement parameters for overlapping 
or nearby, chemically similar groups. 
; 

_publ_section_references 
; 
Hope, H. (1994). 
<i>Prog. Inorg. Chem.</i> <b>41</b>, 1---19. 

Nonius (1998). 
<i>Collect</i> Nonius BV, Delft, The Netherlands. 

Otwinowski, Z. & Minor, W. (1997). 
<i>Methods in Enzymology</i>, <b>276</b>, <i>Macromolecular 
Crystallography</i>, Part A, eds. C. W. Carter Jr & R. M. Sweet. 
307---326. New York: Academic Press. 

Parkin, S. & Hope, H. (1998). 
<i>J. Appl. Cryst.</i> <b>31</b>, 945---953. 

Parkin, S. (2000). 
<i>Acta Cryst.</i> A<b>56</b>, 157---162. 

Sheldrick, G.M. (2008). 
<i>Acta Cryst.</i> <b>A</b>64, 112---122. 

Sheldrick, G.M. (2013). 
<i>SADABS</i> University of G\"ottingen, Germany. 

Spek, A.L. (2009). 
<i>Acta Cryst.</i> <b>D</b>65, 148---155. 
; 

_chemical_name_systematic
;
 ?
;
_chemical_name_common             ?
_chemical_melting_point           ?
_chemical_formula_moiety          'C36 H40 F2 S2 Si2'   
_chemical_formula_sum             'C36 H40 F2 S2 Si2'   
_chemical_formula_weight          630.98

loop_
 _atom_type_symbol
 _atom_type_description
 _atom_type_scat_dispersion_real
 _atom_type_scat_dispersion_imag
 _atom_type_scat_source
 'C'  'C'   0.0033   0.0016
 'International Tables Vol C Tables 4.2.6.8 and 6.1.1.4'
 'H'  'H'   0.0000   0.0000
 'International Tables Vol C Tables 4.2.6.8 and 6.1.1.4'
 'F'  'F'   0.0171   0.0103
 'International Tables Vol C Tables 4.2.6.8 and 6.1.1.4'
 'S'  'S'   0.1246   0.1234
 'International Tables Vol C Tables 4.2.6.8 and 6.1.1.4'
 'Si'  'Si'   0.0817   0.0704
 'International Tables Vol C Tables 4.2.6.8 and 6.1.1.4'
 
_space_group_crystal_system       triclinic
_space_group_IT_number            2
_space_group_name_H-M_alt         'P -1'
_space_group_name_Hall            '-P 1'
 
_shelx_space_group_comment
;
The symmetry employed for this shelxl refinement is uniquely defined
by the following loop, which should always be used as a source of
symmetry information in preference to the above space-group names.
They are only intended as comments.
;
 
loop_
 _space_group_symop_operation_xyz
 'x, y, z'
 '-x, -y, -z'
 
_cell_length_a                    6.9958(2)
_cell_length_b                    7.2915(2)
_cell_length_c                    17.0802(5)
_cell_angle_alpha                 92.9074(11)
_cell_angle_beta                  91.3134(11)
_cell_angle_gamma                 105.6823(12)
_cell_volume                      837.14(4)
_cell_formula_units_Z             1
_cell_measurement_temperature     90.0(2) 
_cell_measurement_reflns_used     3814 
_cell_measurement_theta_min       1.00  
_cell_measurement_theta_max       27.48  
 
_exptl_crystal_description        plate  
_exptl_crystal_colour             red  
_exptl_crystal_density_meas       ? 
_exptl_crystal_density_method     ?              
_exptl_crystal_density_diffrn     1.252          
_exptl_crystal_F_000              334
_exptl_transmission_factor_min    ?                                             
_exptl_transmission_factor_max    ?                                             
_exptl_crystal_size_max           0.300
_exptl_crystal_size_mid           0.140
_exptl_crystal_size_min           0.020
_exptl_absorpt_coefficient_mu     0.266
_shelx_estimated_absorpt_T_min    0.924
_shelx_estimated_absorpt_T_max    0.995
_exptl_absorpt_correction_type    multi-scan  
_exptl_absorpt_correction_T_min   0.957 
_exptl_absorpt_correction_T_max   0.991 
_exptl_absorpt_process_details    'SADABS (Sheldrick, 2013)'  
 
_exptl_special_details 
; 
The crystal was mounted on a fine glass fibre in polyisobutene oil 
directly into the cold stream of a nitrogen-based cryostat, according 
to established methods (Hope, 1994; Parkin & Hope, 1998).
; 

_diffrn_ambient_temperature       90.0(2) 
_diffrn_radiation_wavelength      0.71073
_diffrn_radiation_type            MoK\a
_diffrn_source                    'fine-focus sealed-tube'                        
_diffrn_measurement_device_type   'Nonius KappaCCD diffractometer'  
_diffrn_measurement_method        '\f and \w scans at fixed \c = 55\%'  
_diffrn_detector_area_resol_mean  9.1  
_diffrn_reflns_number             7586
_diffrn_reflns_av_unetI/netI      0.0531
_diffrn_reflns_av_R_equivalents   0.0387
_diffrn_reflns_limit_h_min        -9
_diffrn_reflns_limit_h_max        9
_diffrn_reflns_limit_k_min        -9
_diffrn_reflns_limit_k_max        9
_diffrn_reflns_limit_l_min        -22
_diffrn_reflns_limit_l_max        22
_diffrn_reflns_theta_min          2.390
_diffrn_reflns_theta_max          27.488
_diffrn_reflns_theta_full         25.242
_diffrn_measured_fraction_theta_max                0.997
_diffrn_measured_fraction_theta_full               1.000
_diffrn_reflns_Laue_measured_fraction_max          0.997
_diffrn_reflns_Laue_measured_fraction_full         1.000
_diffrn_reflns_point_group_measured_fraction_max   0.997
_diffrn_reflns_point_group_measured_fraction_full  1.000
_reflns_number_total              3833
_reflns_number_gt                 2782
_reflns_threshold_expression      'I > 2\s(I)'
_reflns_Friedel_coverage          0.000
_reflns_Friedel_fraction_max      .
_reflns_Friedel_fraction_full     .
 
_reflns_special_details
;
 Reflections were merged by SHELXL according to the crystal
 class for the calculation of statistics and refinement.
 
 _reflns_Friedel_fraction is defined as the number of unique
 Friedel pairs measured divided by the number that would be
 possible theoretically, ignoring centric projections and
 systematic absences.
;
 
_computing_data_collection        'COLLECT (Nonius, 1998)' 
_computing_cell_refinement        'SCALEPACK (Otwinowski & Minor, 1997)' 
_computing_data_reduction         'DENZO-SMN (Otwinowski & Minor, 1997)' 
_computing_structure_solution     'SHELXS-97 (Sheldrick, 2008)' 
_computing_structure_refinement   'SHELXL-2013 (Sheldrick, 2013)'
_computing_molecular_graphics     'XP in SHELXTL (Sheldrick, 2008)' 
_computing_publication_material   'SHELX (Sheldrick, 2008) and local procedures' 
 
_refine_special_details 
; 
Refinement progress was checked using routines in Platon (Spek, 2009), by an 
R-tensor (Parkin, 2000), and finally by the IUCr utility checkCIF. 
; 

_refine_ls_structure_factor_coef  Fsqd
_refine_ls_matrix_type            full
_refine_ls_weighting_scheme       calc
_refine_ls_weighting_details
'w=1/[\s^2^(Fo^2^)+(0.0639P)^2^+0.2929P] where P=(Fo^2^+2Fc^2^)/3'
_atom_sites_solution_primary      ?
_atom_sites_solution_secondary    ?
_atom_sites_solution_hydrogens    geom
_refine_ls_hydrogen_treatment     constr
_refine_ls_extinction_method      none
_refine_ls_extinction_coef        .
_refine_ls_number_reflns          3833
_refine_ls_number_parameters      228
_refine_ls_number_restraints      117
_refine_ls_R_factor_all           0.0782
_refine_ls_R_factor_gt            0.0495
_refine_ls_wR_factor_ref          0.1333
_refine_ls_wR_factor_gt           0.1186
_refine_ls_goodness_of_fit_ref    1.051
_refine_ls_restrained_S_all       1.037
_refine_ls_shift/su_max           0.002
_refine_ls_shift/su_mean          0.000
 
loop_
 _atom_site_label
 _atom_site_type_symbol
 _atom_site_fract_x
 _atom_site_fract_y
 _atom_site_fract_z
 _atom_site_U_iso_or_equiv
 _atom_site_adp_type
 _atom_site_occupancy
 _atom_site_site_symmetry_order  
 _atom_site_calc_flag
 _atom_site_refinement_flags_posn
 _atom_site_refinement_flags_adp
 _atom_site_refinement_flags_occupancy
 _atom_site_disorder_assembly
 _atom_site_disorder_group
Si1 Si -0.32138(9) 0.07373(9) 0.81188(3) 0.03054(18) Uani 1 1 d D . . . .
C1 C -0.0830(3) 0.0272(3) 0.57302(11) 0.0231(4) Uani 1 1 d . . . . .
C2 C 0.1190(3) 0.1211(3) 0.56134(11) 0.0224(4) Uani 1 1 d . . . . .
C3 C 0.2385(3) 0.2459(3) 0.62080(11) 0.0244(4) Uani 1 1 d . . . . .
H3 H 0.1830 0.2703 0.6692 0.029 Uiso 1 1 calc R U . A 1
C4 C 0.4348(3) 0.3311(3) 0.60806(11) 0.0250(4) Uani 0.801(2) 1 d . U P B 1
S5 S 0.60653(15) 0.48940(14) 0.67318(6) 0.0287(2) Uani 0.801(2) 1 d . U P B 1
C6 C 0.7902(5) 0.4970(5) 0.60462(19) 0.0267(7) Uani 0.801(2) 1 d . U P B 1
F1 F 0.9737(2) 0.6043(2) 0.62594(11) 0.0352(4) Uani 0.801(2) 1 d . U P B 1
C7 C 0.736(2) 0.397(2) 0.5383(10) 0.0290(12) Uani 0.801(2) 1 d . U P B 1
H7 H 0.8233 0.3902 0.4970 0.035 Uiso 0.801(2) 1 calc R U P B 1
C8 C 0.5224(3) 0.2955(3) 0.53584(12) 0.0240(4) Uani 0.801(2) 1 d . U P B 1
C4' C 0.4348(3) 0.3311(3) 0.60806(11) 0.0250(4) Uani 0.199(2) 1 d . U P B 2
C5' C 0.572(3) 0.452(3) 0.6615(13) 0.0287(2) Uani 0.199(2) 1 d . U P B 2
H5' H 0.5440 0.4927 0.7126 0.034 Uiso 0.199(2) 1 calc R U P B 2
F1' F 0.9225(11) 0.6177(11) 0.6620(5) 0.0352(4) Uani 0.199(2) 1 d . U P B 2
C6' C 0.749(2) 0.500(3) 0.6288(9) 0.0267(7) Uani 0.199(2) 1 d . U P B 2
S7' S 0.764(2) 0.409(2) 0.5333(10) 0.0290(12) Uani 0.199(2) 1 d . U P B 2
C8' C 0.5224(3) 0.2955(3) 0.53584(12) 0.0240(4) Uani 0.199(2) 1 d . U P B 2
C9 C 0.4093(3) 0.1794(3) 0.47714(11) 0.0241(4) Uani 1 1 d . . . . .
H9 H 0.4677 0.1577 0.4291 0.029 Uiso 1 1 calc R U . B 1
C10 C 0.2041(3) 0.0905(3) 0.48735(11) 0.0228(4) Uani 1 1 d . . . . .
C11 C -0.1646(3) 0.0500(3) 0.64810(12) 0.0257(4) Uani 1 1 d . . . . .
C12 C -0.2297(3) 0.0659(3) 0.71200(12) 0.0282(5) Uani 1 1 d . . . . .
C13 C -0.5960(3) 0.0411(3) 0.80575(13) 0.0369(5) Uani 1 1 d D . . . .
H13A H -0.6487 0.0173 0.8587 0.044 Uiso 1 1 calc R U . . .
H13B H -0.6210 0.1615 0.7899 0.044 Uiso 1 1 calc R U . . .
C14 C -0.7109(4) -0.1214(4) 0.74865(16) 0.0500(7) Uani 1 1 d . . . . .
H14A H -0.6634 -0.0974 0.6956 0.075 Uiso 1 1 calc R U . . .
H14B H -0.8528 -0.1289 0.7493 0.075 Uiso 1 1 calc R U . . .
H14C H -0.6901 -0.2421 0.7645 0.075 Uiso 1 1 calc R U . . .
C15 C -0.2663(14) -0.1305(10) 0.8619(5) 0.0403(15) Uani 0.740(6) 1 d D U P C 1
H15A H -0.3493 -0.2504 0.8353 0.048 Uiso 0.740(6) 1 calc R U P C 1
H15B H -0.1259 -0.1265 0.8530 0.048 Uiso 0.740(6) 1 calc R U P C 1
C16 C -0.299(2) -0.1419(16) 0.9506(6) 0.0544(15) Uani 0.740(6) 1 d D U P C 1
H16A H -0.2341 -0.0179 0.9775 0.082 Uiso 0.740(6) 1 calc R U P C 1
H16B H -0.2410 -0.2393 0.9709 0.082 Uiso 0.740(6) 1 calc R U P C 1
H16C H -0.4413 -0.1758 0.9599 0.082 Uiso 0.740(6) 1 calc R U P C 1
C17 C -0.1804(8) 0.3061(8) 0.8630(6) 0.0352(12) Uani 0.740(6) 1 d D U P C 1
H17A H -0.2239 0.4099 0.8393 0.042 Uiso 0.740(6) 1 calc R U P C 1
H17B H -0.2171 0.3049 0.9186 0.042 Uiso 0.740(6) 1 calc R U P C 1
C18 C 0.0452(7) 0.3531(8) 0.8604(3) 0.0512(11) Uani 0.740(6) 1 d D U P C 1
H18A H 0.0896 0.2486 0.8831 0.061 Uiso 0.740(6) 1 calc R U P C 1
H18B H 0.0832 0.3585 0.8049 0.061 Uiso 0.740(6) 1 calc R U P C 1
C19 C 0.1514(6) 0.5369(6) 0.9033(2) 0.0663(14) Uani 0.740(6) 1 d D U P C 1
H19A H 0.1021 0.6402 0.8837 0.099 Uiso 0.740(6) 1 calc R U P C 1
H19B H 0.2942 0.5637 0.8951 0.099 Uiso 0.740(6) 1 calc R U P C 1
H19C H 0.1277 0.5275 0.9595 0.099 Uiso 0.740(6) 1 calc R U P C 1
C15' C -0.223(3) 0.317(2) 0.8616(18) 0.0352(12) Uani 0.260(6) 1 d D U P C 2
H15C H -0.2978 0.4033 0.8419 0.042 Uiso 0.260(6) 1 calc R U P C 2
H15D H -0.2402 0.3097 0.9188 0.042 Uiso 0.260(6) 1 calc R U P C 2
C16' C -0.002(2) 0.396(3) 0.8457(11) 0.0512(11) Uani 0.260(6) 1 d D U P C 2
H16D H 0.0460 0.5265 0.8692 0.077 Uiso 0.260(6) 1 calc R U P C 2
H16E H 0.0156 0.3973 0.7889 0.077 Uiso 0.260(6) 1 calc R U P C 2
H16F H 0.0733 0.3155 0.8686 0.077 Uiso 0.260(6) 1 calc R U P C 2
C17' C -0.230(5) -0.105(3) 0.8655(16) 0.0403(15) Uani 0.260(6) 1 d D U P C 2
H17C H -0.2767 -0.2332 0.8382 0.048 Uiso 0.260(6) 1 calc R U P C 2
H17D H -0.0833 -0.0681 0.8698 0.048 Uiso 0.260(6) 1 calc R U P C 2
C18' C -0.319(8) -0.105(5) 0.948(2) 0.0544(15) Uani 0.260(6) 1 d D U P C 2
H18C H -0.2476 0.0120 0.9795 0.065 Uiso 0.260(6) 1 calc R U P C 2
H18D H -0.4610 -0.1065 0.9428 0.065 Uiso 0.260(6) 1 calc R U P C 2
C19' C -0.301(3) -0.276(2) 0.9882(8) 0.090(6) Uani 0.260(6) 1 d D U P C 2
H19D H -0.3714 -0.2838 1.0375 0.135 Uiso 0.260(6) 1 calc R U P C 2
H19E H -0.1607 -0.2657 0.9994 0.135 Uiso 0.260(6) 1 calc R U P C 2
H19F H -0.3600 -0.3908 0.9543 0.135 Uiso 0.260(6) 1 calc R U P C 2
 
loop_
 _atom_site_aniso_label
 _atom_site_aniso_U_11
 _atom_site_aniso_U_22
 _atom_site_aniso_U_33
 _atom_site_aniso_U_23
 _atom_site_aniso_U_13
 _atom_site_aniso_U_12
Si1 0.0292(3) 0.0386(4) 0.0238(3) -0.0032(2) 0.0053(2) 0.0098(3)
C1 0.0254(10) 0.0223(10) 0.0240(10) 0.0010(8) 0.0041(8) 0.0106(8)
C2 0.0235(10) 0.0225(10) 0.0226(10) 0.0000(8) 0.0012(8) 0.0088(8)
C3 0.0257(10) 0.0262(10) 0.0211(10) -0.0022(8) 0.0032(8) 0.0070(8)
C4 0.0271(10) 0.0236(10) 0.0250(10) -0.0005(8) 0.0002(8) 0.0084(8)
S5 0.0255(5) 0.0294(5) 0.0289(5) -0.0056(3) -0.0010(3) 0.0050(4)
C6 0.0186(16) 0.0263(11) 0.034(2) 0.0014(15) 0.0016(11) 0.0038(11)
F1 0.0232(9) 0.0390(8) 0.0387(11) -0.0064(8) -0.0008(7) 0.0021(7)
C7 0.024(3) 0.0285(16) 0.0364(17) 0.0029(11) 0.004(2) 0.0094(18)
C8 0.0246(10) 0.0227(10) 0.0270(10) 0.0026(8) 0.0016(8) 0.0099(8)
C4' 0.0271(10) 0.0236(10) 0.0250(10) -0.0005(8) 0.0002(8) 0.0084(8)
C5' 0.0255(5) 0.0294(5) 0.0289(5) -0.0056(3) -0.0010(3) 0.0050(4)
F1' 0.0232(9) 0.0390(8) 0.0387(11) -0.0064(8) -0.0008(7) 0.0021(7)
C6' 0.0186(16) 0.0263(11) 0.034(2) 0.0014(15) 0.0016(11) 0.0038(11)
S7' 0.024(3) 0.0285(16) 0.0364(17) 0.0029(11) 0.004(2) 0.0094(18)
C8' 0.0246(10) 0.0227(10) 0.0270(10) 0.0026(8) 0.0016(8) 0.0099(8)
C9 0.0239(10) 0.0245(10) 0.0253(10) 0.0007(8) 0.0058(8) 0.0084(8)
C10 0.0233(10) 0.0225(10) 0.0244(10) 0.0016(8) 0.0027(8) 0.0091(8)
C11 0.0213(10) 0.0261(10) 0.0288(11) -0.0023(8) -0.0012(8) 0.0056(8)
C12 0.0247(10) 0.0314(11) 0.0281(11) -0.0018(8) 0.0031(8) 0.0073(9)
C13 0.0318(12) 0.0482(14) 0.0325(12) -0.0013(10) 0.0099(10) 0.0139(10)
C14 0.0324(13) 0.0639(17) 0.0486(15) -0.0082(13) 0.0033(11) 0.0064(12)
C15 0.040(4) 0.050(3) 0.0319(16) 0.0001(18) 0.003(2) 0.014(3)
C16 0.085(4) 0.054(5) 0.0297(16) 0.013(2) 0.005(2) 0.026(3)
C17 0.032(3) 0.0500(16) 0.0250(12) -0.0068(12) 0.005(2) 0.0145(17)
C18 0.032(2) 0.064(3) 0.054(3) -0.011(2) -0.0087(18) 0.0101(17)
C19 0.051(2) 0.078(3) 0.052(2) -0.016(2) 0.0029(19) -0.009(2)
C15' 0.032(3) 0.0500(16) 0.0250(12) -0.0068(12) 0.005(2) 0.0145(17)
C16' 0.032(2) 0.064(3) 0.054(3) -0.011(2) -0.0087(18) 0.0101(17)
C17' 0.040(4) 0.050(3) 0.0319(16) 0.0001(18) 0.003(2) 0.014(3)
C18' 0.085(4) 0.054(5) 0.0297(16) 0.013(2) 0.005(2) 0.026(3)
C19' 0.154(16) 0.084(9) 0.058(7) 0.020(7) 0.058(8) 0.071(10)
 
_geom_special_details
;
 All esds (except the esd in the dihedral angle between two l.s. planes)
 are estimated using the full covariance matrix.  The cell esds are taken
 into account individually in the estimation of esds in distances, angles
 and torsion angles; correlations between esds in cell parameters are only
 used when they are defined by crystal symmetry.  An approximate (isotropic)
 treatment of cell esds is used for estimating esds involving l.s. planes.
;
 
loop_
 _geom_bond_atom_site_label_1
 _geom_bond_atom_site_label_2
 _geom_bond_distance
 _geom_bond_site_symmetry_2
 _geom_bond_publ_flag
Si1 C12 1.840(2) . ?
Si1 C17' 1.869(13) . ?
Si1 C15' 1.870(13) . ?
Si1 C13 1.871(2) . ?
Si1 C17 1.874(5) . ?
Si1 C15 1.876(5) . ?
C1 C10 1.412(3) 2_556 ?
C1 C2 1.417(3) . ?
C1 C11 1.436(3) . ?
C2 C3 1.419(3) . ?
C2 C10 1.442(3) . ?
C3 C4 1.373(3) . ?
C3 H3 0.9500 . ?
C4 C8 1.433(3) . ?
C4 S5 1.753(2) . ?
S5 C6 1.750(3) . ?
C6 C7 1.306(17) . ?
C6 F1 1.341(4) . ?
C7 C8 1.477(14) . ?
C7 H7 0.9500 . ?
C8 C9 1.365(3) . ?
C5' C6' 1.34(3) . ?
C5' H5' 0.9500 . ?
F1' C6' 1.373(19) . ?
C6' S7' 1.75(2) . ?
C9 C10 1.425(3) . ?
C9 H9 0.9500 . ?
C10 C1 1.412(3) 2_556 ?
C11 C12 1.205(3) . ?
C13 C14 1.527(3) . ?
C13 H13A 0.9900 . ?
C13 H13B 0.9900 . ?
C14 H14A 0.9800 . ?
C14 H14B 0.9800 . ?
C14 H14C 0.9800 . ?
C15 C16 1.541(8) . ?
C15 H15A 0.9900 . ?
C15 H15B 0.9900 . ?
C16 H16A 0.9800 . ?
C16 H16B 0.9800 . ?
C16 H16C 0.9800 . ?
C17 C18 1.524(6) . ?
C17 H17A 0.9900 . ?
C17 H17B 0.9900 . ?
C18 C19 1.491(6) . ?
C18 H18A 0.9900 . ?
C18 H18B 0.9900 . ?
C19 H19A 0.9800 . ?
C19 H19B 0.9800 . ?
C19 H19C 0.9800 . ?
C15' C16' 1.530(18) . ?
C15' H15C 0.9900 . ?
C15' H15D 0.9900 . ?
C16' H16D 0.9800 . ?
C16' H16E 0.9800 . ?
C16' H16F 0.9800 . ?
C17' C18' 1.55(2) . ?
C17' H17C 0.9900 . ?
C17' H17D 0.9900 . ?
C18' C19' 1.484(17) . ?
C18' H18C 0.9900 . ?
C18' H18D 0.9900 . ?
C19' H19D 0.9800 . ?
C19' H19E 0.9800 . ?
C19' H19F 0.9800 . ?
 
loop_
 _geom_angle_atom_site_label_1
 _geom_angle_atom_site_label_2
 _geom_angle_atom_site_label_3
 _geom_angle
 _geom_angle_site_symmetry_1
 _geom_angle_site_symmetry_3
 _geom_angle_publ_flag
C12 Si1 C17' 105.9(10) . . ?
C12 Si1 C15' 111.0(9) . . ?
C17' Si1 C15' 110.2(12) . . ?
C12 Si1 C13 109.03(10) . . ?
C17' Si1 C13 117.2(10) . . ?
C15' Si1 C13 103.4(6) . . ?
C12 Si1 C17 107.9(3) . . ?
C13 Si1 C17 113.29(18) . . ?
C12 Si1 C15 106.6(3) . . ?
C13 Si1 C15 109.7(3) . . ?
C17 Si1 C15 110.2(3) . . ?
C10 C1 C2 121.22(17) 2_556 . ?
C10 C1 C11 119.54(17) 2_556 . ?
C2 C1 C11 119.23(17) . . ?
C1 C2 C3 121.28(17) . . ?
C1 C2 C10 119.33(17) . . ?
C3 C2 C10 119.39(17) . . ?
C4 C3 C2 119.66(17) . . ?
C4 C3 H3 120.2 . . ?
C2 C3 H3 120.2 . . ?
C3 C4 C8 121.26(18) . . ?
C3 C4 S5 126.85(16) . . ?
C8 C4 S5 111.89(15) . . ?
C6 S5 C4 89.09(14) . . ?
C7 C6 F1 126.4(7) . . ?
C7 C6 S5 117.2(7) . . ?
F1 C6 S5 116.4(2) . . ?
C6 C7 C8 111.2(11) . . ?
C6 C7 H7 124.4 . . ?
C8 C7 H7 124.4 . . ?
C9 C8 C4 120.10(18) . . ?
C9 C8 C7 129.3(7) . . ?
C4 C8 C7 110.6(7) . . ?
C6' C5' H5' 125.7 . . ?
C5' C6' F1' 126.8(14) . . ?
C5' C6' S7' 117.5(15) . . ?
F1' C6' S7' 115.7(10) . . ?
C8 C9 C10 120.52(18) . . ?
C8 C9 H9 119.7 . . ?
C10 C9 H9 119.7 . . ?
C1 C10 C9 121.58(17) 2_556 . ?
C1 C10 C2 119.42(17) 2_556 . ?
C9 C10 C2 119.00(18) . . ?
C12 C11 C1 178.1(2) . . ?
C11 C12 Si1 175.30(19) . . ?
C14 C13 Si1 114.80(16) . . ?
C14 C13 H13A 108.6 . . ?
Si1 C13 H13A 108.6 . . ?
C14 C13 H13B 108.6 . . ?
Si1 C13 H13B 108.6 . . ?
H13A C13 H13B 107.5 . . ?
C13 C14 H14A 109.5 . . ?
C13 C14 H14B 109.5 . . ?
H14A C14 H14B 109.5 . . ?
C13 C14 H14C 109.5 . . ?
H14A C14 H14C 109.5 . . ?
H14B C14 H14C 109.5 . . ?
C16 C15 Si1 118.0(5) . . ?
C16 C15 H15A 107.8 . . ?
Si1 C15 H15A 107.8 . . ?
C16 C15 H15B 107.8 . . ?
Si1 C15 H15B 107.8 . . ?
H15A C15 H15B 107.1 . . ?
C15 C16 H16A 109.5 . . ?
C15 C16 H16B 109.5 . . ?
H16A C16 H16B 109.5 . . ?
C15 C16 H16C 109.5 . . ?
H16A C16 H16C 109.5 . . ?
H16B C16 H16C 109.5 . . ?
C18 C17 Si1 115.8(4) . . ?
C18 C17 H17A 108.3 . . ?
Si1 C17 H17A 108.3 . . ?
C18 C17 H17B 108.3 . . ?
Si1 C17 H17B 108.3 . . ?
H17A C17 H17B 107.4 . . ?
C19 C18 C17 114.0(4) . . ?
C19 C18 H18A 108.8 . . ?
C17 C18 H18A 108.8 . . ?
C19 C18 H18B 108.8 . . ?
C17 C18 H18B 108.8 . . ?
H18A C18 H18B 107.7 . . ?
C18 C19 H19A 109.5 . . ?
C18 C19 H19B 109.5 . . ?
H19A C19 H19B 109.5 . . ?
C18 C19 H19C 109.5 . . ?
H19A C19 H19C 109.5 . . ?
H19B C19 H19C 109.5 . . ?
C16' C15' Si1 110.2(13) . . ?
C16' C15' H15C 109.6 . . ?
Si1 C15' H15C 109.6 . . ?
C16' C15' H15D 109.6 . . ?
Si1 C15' H15D 109.6 . . ?
H15C C15' H15D 108.1 . . ?
C15' C16' H16D 109.5 . . ?
C15' C16' H16E 109.5 . . ?
H16D C16' H16E 109.5 . . ?
C15' C16' H16F 109.5 . . ?
H16D C16' H16F 109.5 . . ?
H16E C16' H16F 109.5 . . ?
C18' C17' Si1 105.2(15) . . ?
C18' C17' H17C 110.7 . . ?
Si1 C17' H17C 110.7 . . ?
C18' C17' H17D 110.7 . . ?
Si1 C17' H17D 110.7 . . ?
H17C C17' H17D 108.8 . . ?
C19' C18' C17' 109.6(17) . . ?
C19' C18' H18C 109.8 . . ?
C17' C18' H18C 109.8 . . ?
C19' C18' H18D 109.8 . . ?
C17' C18' H18D 109.8 . . ?
H18C C18' H18D 108.2 . . ?
C18' C19' H19D 109.5 . . ?
C18' C19' H19E 109.5 . . ?
H19D C19' H19E 109.5 . . ?
C18' C19' H19F 109.5 . . ?
H19D C19' H19F 109.5 . . ?
H19E C19' H19F 109.5 . . ?
 
_refine_diff_density_max    0.442
_refine_diff_density_min   -0.255
_refine_diff_density_rms    0.064

_shelxl_version_number 2013-4

_iucr_refine_instructions_details 
;
TITL k13066 - P1bar
CELL 0.71073   6.9958   7.2915  17.0802  92.9074  91.3134 105.6823
ZERR    1  0.0002  0.0002  0.0005  0.0011  0.0011  0.0012
LATT  1
SFAC C  H  F  S  Si
UNIT    36   40    2    2    2
REM Cell 3814, 1.00, 27.48
REM Ntot = 24338
REM Rint = 0.085
REM FORM plate
REM COLR red
SIZE 0.30 0.14 0.02
TEMP -183
LIST 4
ACTA
BOND $H
FMAP 2
PLAN 10
L.S.  8
OMIT  -5.0000 55
REM Obscured by the beamstop.
OMIT 0 0 1
EXYZ C4 C4'
EXYZ C8 C8'
EADP C4 C4'
EADP S5 C5'
EADP C6 C6'
EADP F1 F1'
EADP C7 S7'
EADP C8 C8'
RIGU 0.010 C4 > C8'
WGHT    0.063900    0.292900
FVAR       0.34865   0.80144   0.74005
SI1   5   -0.321378    0.073726    0.811882    11.00000    0.02916    0.03860 =
         0.02383   -0.00319    0.00529    0.00975
C1    1   -0.082972    0.027219    0.573019    11.00000    0.02542    0.02232 =
         0.02400    0.00104    0.00407    0.01062
C2    1    0.118954    0.121114    0.561335    11.00000    0.02351    0.02247 =
         0.02258    0.00000    0.00116    0.00884
C3    1    0.238491    0.245864    0.620804    11.00000    0.02568    0.02619 =
         0.02108   -0.00225    0.00319    0.00700
AFIX  43
H3    2    0.182974    0.270283    0.669182    11.00000   -1.20000
AFIX   0
PART   1
C4    1    0.434763    0.331064    0.608056    21.00000    0.02710    0.02355 =
         0.02498   -0.00046    0.00015    0.00838
S5    4    0.606528    0.489404    0.673179    21.00000    0.02547    0.02943 =
         0.02889   -0.00558   -0.00102    0.00497
C6    1    0.790209    0.497002    0.604618    21.00000    0.01864    0.02629 =
         0.03368    0.00143    0.00157    0.00379
F1    3    0.973699    0.604344    0.625942    21.00000    0.02318    0.03904 =
         0.03869   -0.00645   -0.00082    0.00208
C7    1    0.736283    0.396908    0.538281    21.00000    0.02378    0.02845 =
         0.03644    0.00293    0.00404    0.00936
AFIX  43
H7    2    0.823263    0.390190    0.496983    21.00000   -1.20000
AFIX   0
C8    1    0.522432    0.295517    0.535838    21.00000    0.02458    0.02268 =
         0.02699    0.00264    0.00160    0.00995
PART   2
C4'   1    0.434763    0.331064    0.608056   -21.00000    0.02710    0.02355 =
         0.02498   -0.00046    0.00015    0.00838
C5'   1    0.571974    0.451796    0.661524   -21.00000    0.02547    0.02943 =
         0.02889   -0.00558   -0.00102    0.00497
AFIX  43
H5'   2    0.544050    0.492733    0.712643   -21.00000   -1.20000
AFIX   0
F1'   3    0.922494    0.617740    0.662016   -21.00000    0.02318    0.03904 =
         0.03869   -0.00645   -0.00082    0.00208
C6'   1    0.749161    0.500181    0.628801   -21.00000    0.01864    0.02629 =
         0.03368    0.00143    0.00157    0.00379
S7'   4    0.764045    0.409151    0.533289   -21.00000    0.02378    0.02845 =
         0.03644    0.00293    0.00404    0.00936
C8'   1    0.522432    0.295517    0.535838   -21.00000    0.02458    0.02268 =
         0.02699    0.00264    0.00160    0.00995
PART   0
C9    1    0.409264    0.179434    0.477143    11.00000    0.02386    0.02452 =
         0.02526    0.00070    0.00577    0.00842
AFIX  43
H9    2    0.467745    0.157739    0.429117    11.00000   -1.20000
AFIX   0
C10   1    0.204051    0.090529    0.487352    11.00000    0.02328    0.02249 =
         0.02442    0.00158    0.00267    0.00913
C11   1   -0.164572    0.049993    0.648096    11.00000    0.02131    0.02608 =
         0.02879   -0.00229   -0.00123    0.00565
C12   1   -0.229739    0.065872    0.712003    11.00000    0.02468    0.03140 =
         0.02807   -0.00185    0.00311    0.00729
C13   1   -0.595998    0.041107    0.805750    11.00000    0.03182    0.04824 =
         0.03250   -0.00127    0.00988    0.01390
AFIX  23
H13A  2   -0.648680    0.017296    0.858686    11.00000   -1.20000
H13B  2   -0.621030    0.161497    0.789850    11.00000   -1.20000
AFIX   0
C14   1   -0.710893   -0.121351    0.748654    11.00000    0.03238    0.06393 =
         0.04856   -0.00824    0.00326    0.00638
AFIX 137
H14A  2   -0.663448   -0.097358    0.695600    11.00000   -1.50000
H14B  2   -0.852843   -0.128861    0.749268    11.00000   -1.50000
H14C  2   -0.690114   -0.242081    0.764457    11.00000   -1.50000
AFIX   0
EADP C15 C17'
EADP C16 C18'
EADP C17 C15'
EADP C18 C16'
SADI 0.020 Si1 C13 Si1 C15 Si1 C15' Si1 C17 Si1 C17'
SAME 0.020 C15' > C19'
RIGU 0.010 C15 > C19
RIGU 0.010 C15' > C19'
PART 1
C15   1   -0.266328   -0.130546    0.861853    31.00000    0.04028    0.04995 =
         0.03188    0.00014    0.00273    0.01449
AFIX  23
H15A  2   -0.349326   -0.250444    0.835323    31.00000   -1.20000
H15B  2   -0.125910   -0.126512    0.853044    31.00000   -1.20000
AFIX   0
C16   1   -0.298630   -0.141910    0.950604    31.00000    0.08471    0.05400 =
         0.02969    0.01295    0.00528    0.02566
AFIX 137
H16A  2   -0.234088   -0.017855    0.977481    31.00000   -1.50000
H16B  2   -0.241023   -0.239299    0.970922    31.00000   -1.50000
H16C  2   -0.441325   -0.175804    0.959856    31.00000   -1.50000
AFIX   0
C17   1   -0.180374    0.306069    0.862984    31.00000    0.03174    0.05003 =
         0.02504   -0.00684    0.00469    0.01447
AFIX  23
H17A  2   -0.223915    0.409939    0.839305    31.00000   -1.20000
H17B  2   -0.217078    0.304860    0.918628    31.00000   -1.20000
AFIX   0
C18   1    0.045228    0.353102    0.860353    31.00000    0.03173    0.06445 =
         0.05353   -0.01140   -0.00870    0.01010
AFIX  23
H18A  2    0.089607    0.248596    0.883080    31.00000   -1.20000
H18B  2    0.083227    0.358549    0.804866    31.00000   -1.20000
AFIX   0
C19   1    0.151392    0.536883    0.903339    31.00000    0.05085    0.07801 =
         0.05235   -0.01640    0.00290   -0.00925
AFIX 137
H19A  2    0.102064    0.640228    0.883695    31.00000   -1.50000
H19B  2    0.294232    0.563694    0.895067    31.00000   -1.50000
H19C  2    0.127652    0.527510    0.959506    31.00000   -1.50000
AFIX   0
PART 2
C15'  1   -0.222644    0.316845    0.861577   -31.00000    0.03174    0.05003 =
         0.02504   -0.00684    0.00469    0.01447
AFIX  23
H15C  2   -0.297811    0.403329    0.841874   -31.00000   -1.20000
H15D  2   -0.240178    0.309672    0.918795   -31.00000   -1.20000
AFIX   0
C16'  1   -0.002096    0.396161    0.845667   -31.00000    0.03173    0.06445 =
         0.05353   -0.01140   -0.00870    0.01010
AFIX  33
H16D  2    0.046037    0.526477    0.869242   -31.00000   -1.50000
H16E  2    0.015589    0.397332    0.788926   -31.00000   -1.50000
H16F  2    0.073328    0.315468    0.868646   -31.00000   -1.50000
AFIX   0
C17'  1   -0.230322   -0.105208    0.865543   -31.00000    0.04028    0.04995 =
         0.03188    0.00014    0.00273    0.01449
AFIX  23
H17C  2   -0.276737   -0.233191    0.838152   -31.00000   -1.20000
H17D  2   -0.083331   -0.068083    0.869801   -31.00000   -1.20000
AFIX   0
C18'  1   -0.319345   -0.105171    0.948054   -31.00000    0.08471    0.05400 =
         0.02969    0.01295    0.00528    0.02566
AFIX  23
H18C  2   -0.247620    0.011984    0.979545   -31.00000   -1.20000
H18D  2   -0.460952   -0.106531    0.942784   -31.00000   -1.20000
AFIX   0
C19'  1   -0.301343   -0.275867    0.988206   -31.00000    0.15394    0.08402 =
         0.05841    0.01971    0.05811    0.07098
AFIX  33
H19D  2   -0.371411   -0.283793    1.037478   -31.00000   -1.50000
H19E  2   -0.160718   -0.265739    0.999382   -31.00000   -1.50000
H19F  2   -0.360011   -0.390783    0.954271   -31.00000   -1.50000
PART 0

AFIX   0
HKLF 4

REM  k13066 - P1bar
REM R1 =  0.0495 for    2782 Fo > 4sig(Fo)  and  0.0782 for all    3833 data
REM    228 parameters refined using    117 restraints

END

WGHT      0.0627      0.3042

REM Highest difference peak  0.442,  deepest hole -0.255,  1-sigma level  0.064
Q1    1  -0.4647 -0.2817  0.9555  11.00000  0.05    0.37
Q2    1   0.6172  0.3413  0.5379  11.00000  0.05    0.37
Q3    1   0.3104  0.1370  0.4902  11.00000  0.05    0.35
Q4    1   0.0204  0.0782  0.5632  11.00000  0.05    0.35
Q5    1  -0.5330 -0.1471  1.0494  11.00000  0.05    0.33
Q6    1   0.3470  0.2983  0.6136  11.00000  0.05    0.31
Q7    1   0.2100  0.1797  0.5990  11.00000  0.05    0.30
Q8    1  -0.1965 -0.0160  0.6799  11.00000  0.05    0.30
Q9    1  -0.6847 -0.0466  0.8574  11.00000  0.05    0.29
Q10   1   0.8993  0.6620  0.7026  11.00000  0.05    0.28
;
_shelx_res_checksum   95557

_shelx_hkl_file
;
   0   0   1   -0.20    0.10   1
   0   0   2    3.50    0.10   1
   0   0  -2    3.20    0.10   1
   0   0   3  106.90    3.00   1
   0   0  -3  110.90    2.70   1
   0   0   4  169.40    5.00   1
   0   0  -4  175.70    4.00   1
   0   0   5    8.70    0.40   1
   0   0  -5    9.70    0.20   1
   0   0   6  182.80    4.60   1
   0   0  -6  182.90    3.60   1
   0   0   7    9.00    0.40   1
   0   0  -7    9.10    0.30   1
   0   0   8    2.50    0.20   1
   0   0  -8    2.70    0.20   1
   0   0   9    2.20    0.20   1
   0   0  -9    2.50    0.10   1
   0   0  10    1.70    0.20   1
   0   0 -10    1.70    0.10   1
   0   0  11    2.90    0.30   1
   0   0 -11    2.50    0.10   1
   0   0  12    9.50    0.80   1
   0   0 -12   10.60    0.40   1
   0   0  13    1.70    0.50   1
   0   0 -13    1.70    0.10   1
   0   0  14   26.20    1.20   1
   0   0 -14   26.80    1.10   1
   0   0  15   33.40    1.70   1
   0   0 -15   40.00    1.80   1
   0   0  16   15.10    1.00   1
   0   0 -16   15.90    1.00   1
   0   0  17    3.30    0.70   1
   0   0 -17    3.80    0.80   1
   0   0  18    3.90    0.70   1
   0   0 -18    3.70    1.00   1
   0   0  19    4.10    1.00   1
   0   0 -19    4.30    1.20   1
   0   0  20    1.60    0.90   1
   0   0 -20    0.00    0.90   1
   0   0  21   45.90    3.40   1
   0   0 -21   50.70    5.20   1
   0   0  22    1.50    1.20   1
   0   0 -22   -0.40    1.40   1
   0   1 -22    1.10    1.40   1
   0  -1  22    3.60    1.10   1
   0   1 -21    5.40    1.30   1
   0  -1  21    8.40    1.50   1
   0   1 -20   14.50    1.80   1
   0  -1  20   11.10    1.20   1
   0   1 -19    1.30    1.00   1
   0  -1  19    2.70    1.20   1
   0   1 -18   56.50    3.80   1
   0  -1  18   46.40    2.00   1
   0   1 -17   15.80    1.10   1
   0  -1  17   10.30    3.90   1
   0   1 -16    0.70    0.50   1
   0  -1  16    0.90    0.50   1
   0   1 -15   -0.30    0.40   1
   0  -1  15    1.10    0.50   1
   0   1 -14   21.80    1.10   1
   0  -1  14   19.80    0.90   1
   0   1 -13   67.60    2.60   1
   0  -1  13   65.20    1.80   1
   0   1 -12    8.40    0.50   1
   0  -1  12    7.90    0.50   1
   0   1 -11    6.60    0.40   1
   0  -1  11    6.70    0.50   1
   0   1 -10   12.90    0.40   1
   0  -1  10   11.70    0.80   1
   0   1  -9    1.00    0.10   1
   0  -1   9    1.10    0.20   1
   0   1  -8   55.30    1.00   1
   0  -1   8   52.10    1.50   1
   0   1  -7    0.10    0.10   1
   0  -1   7    0.20    0.10   1
   0   1  -6    2.20    0.10   1
   0  -1   6    2.60    0.10   1
   0   1  -5  201.20    3.90   1
   0  -1   5  193.20    3.90   1
   0   1  -4  814.30   17.00   1
   0  -1   4  794.60   16.30   1
   0   1  -3  497.40   10.20   1
   0  -1   3  508.80    9.50   1
   0   1  -2    0.40    0.00   1
   0  -1   2    0.40    0.10   1
   0   1  -1   12.70    0.30   1
   0  -1   1   12.50    0.20   1
   0   1   0   51.50    1.00   1
   0  -1   0   52.30    1.00   1
   0   1   1  239.70    5.10   1
   0  -1  -1  251.30    4.80   1
   0   1   2  105.60    2.10   1
   0  -1  -2  106.80    2.00   1
   0   1   3   86.80    1.60   1
   0  -1  -3   97.80    2.30   1
   0   1   4   10.20    0.30   1
   0  -1  -4   10.80    0.30   1
   0   1   5    6.70    0.20   1
   0  -1  -5    6.90    0.10   1
   0   1   6   14.80    0.60   1
   0  -1  -6   14.40    0.30   1
   0   1   7   26.20    0.70   1
   0  -1  -7   27.20    0.60   1
   0   1   8   50.20    1.50   1
   0  -1  -8   50.60    1.10   1
   0   1   9   81.60    2.00   1
   0  -1  -9   81.80    1.90   1
   0   1  10    0.10    0.30   1
   0  -1 -10    0.00    0.10   1
   0   1  11   48.50    1.70   1
   0  -1 -11   46.00    1.50   1
   0   1  12    0.70    0.40   1
   0  -1 -12    0.30    0.20   1
   0   1  13  144.30    5.40   1
   0  -1 -13  142.10    4.30   1
   0   1  14   33.80    1.50   1
   0  -1 -14   33.70    1.00   1
   0   1  15   29.00    1.30   1
   0  -1 -15   31.00    2.30   1
   0   1  16   66.90    2.50   1
   0  -1 -16   72.00    4.50   1
   0   1  17   11.20    0.80   1
   0  -1 -17   13.90    1.60   1
   0   1  18    3.10    0.80   1
   0  -1 -18    2.70    0.90   1
   0   1  19   10.40    1.00   1
   0  -1 -19   11.80    1.40   1
   0   1  20   -0.30    0.80   1
   0  -1 -20   -0.40    0.90   1
   0   1  21   -0.90    1.30   1
   0  -1 -21    0.10    1.50   1
   0   2 -21    3.70    1.60   1
   0  -2  21    1.60    1.10   1
   0   2 -20    1.50    1.20   1
   0  -2  20    1.30    1.40   1
   0   2 -19    2.10    0.60   1
   0  -2  19    4.30    0.80   1
   0   2 -18    0.20    0.60   1
   0  -2  18   -1.30    0.80   1
   0   2 -17    8.40    0.80   1
   0  -2  17    7.80    1.00   1
   0   2 -16    9.90    0.80   1
   0  -2  16   10.10    1.20   1
   0   2 -15    7.60    0.70   1
   0  -2  15    9.20    0.60   1
   0   2 -14   12.80    0.70   1
   0  -2  14   13.20    0.80   1
   0   2 -13   12.30    0.80   1
   0  -2  13   11.20    0.60   1
   0   2 -12   65.20    2.60   1
   0  -2  12   60.40    2.00   1
   0   2 -11    1.40    0.30   1
   0  -2  11    1.90    0.30   1
   0   2 -10   22.90    0.70   1
   0  -2  10   22.60    0.70   1
   0   2  -9  300.20    6.20   1
   0  -2   9  287.20    5.70   1
   0   2  -8   95.80    1.90   1
   0  -2   8   91.30    1.80   1
   0   2  -7    6.10    0.20   1
   0  -2   7    5.80    0.20   1
   0   2  -6   36.20    0.80   1
   0  -2   6   35.00    0.70   1
   0   2  -5   52.60    1.10   1
   0  -2   5   53.30    1.10   1
   0   2  -4    6.90    0.20   1
   0  -2   4    6.20    0.20   1
   0   2  -3  143.10    3.20   1
   0  -2   3  145.90    2.70   1
   0   2  -2   16.70    0.40   1
   0  -2   2   16.40    0.30   1
   0   2  -1   24.90    0.60   1
   0  -2   1   25.10    0.50   1
   0   2   0  269.00    5.20   1
   0  -2   0  277.10    4.60   1
   0   2   1   13.70    0.30   1
   0  -2  -1   14.00    0.30   1
   0   2   2  264.50    5.10   1
   0  -2  -2  279.40    4.70   1
   0   2   3    0.70    0.10   1
   0  -2  -3    0.70    0.10   1
   0   2   4   15.10    0.30   1
   0  -2  -4   15.30    0.40   1
   0   2   5   33.10    0.60   1
   0  -2  -5   35.10    0.80   1
   0   2   6  323.80    8.60   1
   0  -2  -6  338.80    6.30   1
   0   2   7   10.00    0.40   1
   0  -2  -7   10.90    0.30   1
   0   2   8  113.00    2.80   1
   0  -2  -8  117.90    2.50   1
   0   2   9   69.70    2.10   1
   0  -2  -9   71.00    1.80   1
   0   2  10    2.40    0.40   1
   0  -2 -10    2.80    0.30   1
   0   2  11    1.40    0.40   1
   0  -2 -11    1.00    0.30   1
   0   2  12  307.50    9.30   1
   0  -2 -12  311.60    9.70   1
   0   2  13   79.00    3.20   1
   0  -2 -13   80.70    2.50   1
   0   2  14   -0.30    0.50   1
   0  -2 -14    0.10    0.40   1
   0   2  15    1.10    0.70   1
   0  -2 -15    0.30    0.40   1
   0   2  16    1.10    0.60   1
   0  -2 -16    0.60    0.50   1
   0   2  17    1.40    0.60   1
   0  -2 -17    0.70    0.50   1
   0   2  18    1.90    0.80   1
   0  -2 -18    2.10    0.70   1
   0   2  19    0.10    0.80   1
   0  -2 -19    0.40    0.60   1
   0   2  20    3.00    1.10   1
   0  -2 -20    2.50    0.90   1
   0   2  21    4.80    1.60   1
   0  -2 -21    4.20    1.00   1
   0   3 -21    0.00    1.40   1
   0  -3  21   -0.80    1.40   1
   0   3 -20    4.10    1.00   1
   0  -3  20    5.40    1.10   1
   0   3 -19    0.20    0.80   1
   0  -3  19   -0.20    0.70   1
   0   3 -18   40.00    2.70   1
   0  -3  18   35.80    2.10   1
   0   3 -17    1.80    0.60   1
   0  -3  17    0.80    0.70   1
   0   3 -16   -0.20    0.50   1
   0  -3  16    0.00    0.50   1
   0   3 -15   -0.70    0.40   1
   0  -3  15    0.50    0.50   1
   0   3 -14   28.50    1.40   1
   0  -3  14   30.00    1.30   1
   0   3 -13    0.80    0.40   1
   0  -3  13    0.50    0.40   1
   0   3 -12  126.70    4.80   1
   0  -3  12  127.90    3.60   1
   0   3 -11   29.40    1.20   1
   0  -3  11   27.50    0.90   1
   0   3 -10    1.80    0.30   1
   0  -3  10    1.50    0.20   1
   0   3  -9   37.20    1.20   1
   0  -3   9   35.20    0.90   1
   0   3  -8    9.20    0.40   1
   0  -3   8    8.30    0.30   1
   0   3  -7   75.60    1.50   1
   0  -3   7   72.50    1.60   1
   0   3  -6    0.20    0.10   1
   0  -3   6    0.30    0.20   1
   0   3  -5   29.70    0.70   1
   0  -3   5   27.70    0.70   1
   0   3  -4   31.70    0.80   1
   0  -3   4   32.60    0.70   1
   0   3  -3    0.10    0.10   1
   0  -3   3    0.00    0.10   1
   0   3  -2    2.80    0.10   1
   0  -3   2    2.80    0.10   1
   0   3  -1   17.80    0.40   1
   0  -3   1   18.00    0.40   1
   0   3   0    0.60    0.10   1
   0  -3   0    0.60    0.10   1
   0   3   1   31.70    0.60   1
   0  -3  -1   33.70    0.60   1
   0   3   2    4.20    0.10   1
   0  -3  -2    4.10    0.20   1
   0   3   3  153.90    3.50   1
   0  -3  -3  172.00    3.30   1
   0   3   4  145.60    3.20   1
   0  -3  -4  156.30    2.80   1
   0   3   5   63.00    1.20   1
   0  -3  -5   65.00    1.40   1
   0   3   6    1.60    0.10   1
   0  -3  -6    1.50    0.20   1
   0   3   7  205.50    4.70   1
   0  -3  -7  203.90    5.60   1
   0   3   8    0.60    0.30   1
   0  -3  -8    1.40    0.20   1
   0   3   9  127.90    3.80   1
   0  -3  -9  133.30    4.20   1
   0   3  10    0.60    0.30   1
   0  -3 -10    0.40    0.20   1
   0   3  11   12.00    0.70   1
   0  -3 -11   12.50    0.70   1
   0   3  12    4.00    0.50   1
   0  -3 -12    4.60    0.50   1
   0   3  13    0.40    0.60   1
   0  -3 -13    0.10    0.40   1
   0   3  14   -0.70    0.80   1
   0  -3 -14   -0.40    0.40   1
   0   3  15    1.50    0.60   1
   0  -3 -15    1.40    0.50   1
   0   3  16   -0.10    0.60   1
   0  -3 -16    0.90    0.60   1
   0   3  17    7.10    1.00   1
   0  -3 -17    7.30    1.00   1
   0   3  18   -0.30    0.80   1
   0  -3 -18   -0.40    0.60   1
   0   3  19    7.40    1.70   1
   0  -3 -19    8.80    1.00   1
   0   3  20   -0.70    1.40   1
   0  -3 -20   -0.30    0.80   1
   0   4 -20    1.90    1.10   1
   0  -4  20    1.00    1.30   1
   0   4 -19    5.30    1.10   1
   0  -4  19    5.60    1.00   1
   0   4 -18   -1.20    0.90   1
   0  -4  18    0.10    0.70   1
   0   4 -17   13.50    1.10   1
   0  -4  17   12.80    1.50   1
   0   4 -16   -0.40    0.60   1
   0  -4  16    0.90    0.60   1
   0   4 -15    3.50    0.60   1
   0  -4  15    1.90    0.50   1
   0   4 -14    0.50    0.50   1
   0  -4  14    0.40    0.50   1
   0   4 -13    2.20    0.70   1
   0  -4  13    3.60    0.40   1
   0   4 -12   -0.20    0.50   1
   0  -4  12   -0.20    0.30   1
   0   4 -11   21.60    1.00   1
   0  -4  11   19.40    0.60   1
   0   4 -10   49.30    1.90   1
   0  -4  10   47.60    1.40   1
   0   4  -9   38.40    1.40   1
   0  -4   9   36.50    1.10   1
   0   4  -8   10.30    0.50   1
   0  -4   8    9.60    0.40   1
   0   4  -7    7.10    0.40   1
   0  -4   7    6.50    0.30   1
   0   4  -6    1.50    0.20   1
   0  -4   6    1.60    0.20   1
   0   4  -5    4.30    0.30   1
   0  -4   5    4.10    0.20   1
   0   4  -4    4.20    0.30   1
   0  -4   4    4.40    0.20   1
   0   4  -3   34.70    0.90   1
   0  -4   3   34.90    0.70   1
   0   4  -2   21.90    0.60   1
   0  -4   2   22.30    0.60   1
   0   4  -1  137.10    2.80   1
   0  -4   1  142.30    3.50   1
   0   4   0    7.10    0.30   1
   0  -4   0    6.70    0.30   1
   0   4   1   91.00    1.80   1
   0  -4  -1   94.50    2.00   1
   0   4   2    2.90    0.30   1
   0  -4  -2    2.30    0.20   1
   0   4   3  136.70    2.80   1
   0  -4  -3  144.10    3.50   1
   0   4   4  100.80    2.20   1
   0  -4  -4  101.40    2.80   1
   0   4   5    4.30    0.20   1
   0  -4  -5    3.50    0.30   1
   0   4   6   20.20    0.50   1
   0  -4  -6   19.60    0.80   1
   0   4   7    0.40    0.10   1
   0  -4  -7    0.20    0.20   1
   0   4   8    3.20    0.20   1
   0  -4  -8    2.50    0.40   1
   0   4   9    1.80    0.30   1
   0  -4  -9    0.90    0.30   1
   0   4  10    1.10    0.50   1
   0  -4 -10    1.30    0.40   1
   0   4  11    1.40    0.50   1
   0  -4 -11    1.10    0.40   1
   0   4  12   54.20    2.00   1
   0  -4 -12   57.30    2.20   1
   0   4  13    0.70    0.60   1
   0  -4 -13    2.80    0.60   1
   0   4  14   12.60    1.00   1
   0  -4 -14   16.00    0.90   1
   0   4  15    0.60    0.70   1
   0  -4 -15    0.00    0.70   1
   0   4  16    0.90    0.80   1
   0  -4 -16    1.90    0.60   1
   0   4  17    0.10    0.80   1
   0  -4 -17    1.00    0.80   1
   0   4  18   14.10    1.60   1
   0  -4 -18   16.70    1.90   1
   0   4  19   -0.90    1.00   1
   0  -4 -19    0.50    1.50   1
   0   5 -19    7.80    1.30   1
   0   5 -18    2.10    1.10   1
   0  -5  18    0.30    1.20   1
   0   5 -17    0.10    0.80   1
   0  -5  17    1.30    1.30   1
   0   5 -16    1.20    0.70   1
   0  -5  16    0.10    1.10   1
   0   5 -15    2.50    0.80   1
   0  -5  15    1.60    0.60   1
   0   5 -14   25.50    1.70   1
   0  -5  14   23.10    1.20   1
   0   5 -13    3.80    0.60   1
   0  -5  13    1.70    0.40   1
   0   5 -12   15.70    1.20   1
   0  -5  12   14.60    0.80   1
   0   5 -11    4.10    0.60   1
   0  -5  11    2.80    0.40   1
   0   5 -10    0.40    0.40   1
   0  -5  10    0.10    0.30   1
   0   5  -9   -0.10    0.40   1
   0  -5   9    0.00    0.30   1
   0   5  -8   18.20    0.80   1
   0  -5   8   16.40    0.70   1
   0   5  -7   25.60    1.10   1
   0  -5   7   23.60    0.80   1
   0   5  -6   31.30    1.10   1
   0  -5   6   29.60    0.80   1
   0   5  -5    8.40    0.40   1
   0  -5   5    7.40    0.40   1
   0   5  -4    1.60    0.30   1
   0  -5   4    1.60    0.30   1
   0   5  -3    0.40    0.20   1
   0  -5   3    0.70    0.20   1
   0   5  -2   29.60    1.10   1
   0  -5   2   31.00    0.90   1
   0   5  -1   68.40    1.90   1
   0  -5   1   71.40    1.90   1
   0   5   0   69.40    1.40   1
   0  -5   0   67.20    2.30   1
   0   5   1   45.70    1.60   1
   0  -5  -1   44.60    1.60   1
   0   5   2    2.70    0.40   1
   0  -5  -2    2.40    0.40   1
   0   5   3    3.70    0.40   1
   0  -5  -3    3.50    0.40   1
   0   5   4   -0.30    0.30   1
   0  -5  -4   -0.10    0.30   1
   0   5   5    0.30    0.10   1
   0  -5  -5    0.90    0.40   1
   0   5   6   -0.10    0.20   1
   0  -5  -6    0.10    0.40   1
   0   5   7   16.50    0.50   1
   0  -5  -7   18.30    0.80   1
   0   5   8    2.70    0.20   1
   0  -5  -8    2.40    0.40   1
   0   5   9    5.10    0.30   1
   0  -5  -9    3.20    0.50   1
   0   5  10   10.50    0.80   1
   0  -5 -10    9.90    0.70   1
   0   5  11    7.40    0.80   1
   0  -5 -11    9.30    1.10   1
   0   5  12    0.00    0.70   1
   0  -5 -12   -0.30    0.90   1
   0   5  13    3.40    0.80   1
   0  -5 -13    2.80    0.90   1
   0   5  14    0.00    0.70   1
   0  -5 -14   -0.50    0.90   1
   0   5  15   16.50    1.80   1
   0  -5 -15   20.80    2.20   1
   0   5  16    5.80    1.10   1
   0  -5 -16    8.00    1.40   1
   0   5  17   16.30    1.60   1
   0  -5 -17   20.80    2.30   1
   0   6 -17    7.60    1.40   1
   0   6 -16    1.70    1.10   1
   0  -6  16   -1.20    1.20   1
   0   6 -15    1.80    1.00   1
   0  -6  15    0.90    0.80   1
   0   6 -14    1.90    0.80   1
   0  -6  14    0.90    0.60   1
   0   6 -13    3.80    0.70   1
   0  -6  13    3.50    0.60   1
   0   6 -12    0.00    0.60   1
   0  -6  12    0.90    0.40   1
   0   6 -11   31.80    1.70   1
   0  -6  11   29.80    1.10   1
   0   6 -10    0.60    0.50   1
   0  -6  10    1.00    0.40   1
   0   6  -9   10.80    0.90   1
   0  -6   9    8.80    0.60   1
   0   6  -8    2.90    0.50   1
   0  -6   8    1.50    0.40   1
   0   6  -7    4.50    0.50   1
   0  -6   7    3.30    0.40   1
   0   6  -6    8.30    0.60   1
   0  -6   6    5.80    0.50   1
   0   6  -5    6.40    0.60   1
   0  -6   5    6.60    0.40   1
   0   6  -4    1.50    0.30   1
   0  -6   4    1.80    0.40   1
   0   6  -3   29.30    1.20   1
   0  -6   3   27.10    1.00   1
   0   6  -2    6.10    0.40   1
   0  -6   2    5.30    0.60   1
   0   6  -1    7.60    0.90   1
   0  -6   1    5.70    0.60   1
   0   6   0    0.90    0.40   1
   0  -6   0    1.70    0.50   1
   0   6   1    1.00    0.40   1
   0  -6  -1    0.90    0.40   1
   0   6   2   17.10    0.90   1
   0  -6  -2   16.00    0.90   1
   0   6   3    7.90    0.70   1
   0  -6  -3    9.50    0.70   1
   0   6   4   14.00    0.90   1
   0  -6  -4   13.90    0.80   1
   0   6   5    3.00    0.40   1
   0  -6  -5    2.30    0.50   1
   0   6   6    0.30    0.30   1
   0  -6  -6    0.80    0.40   1
   0   6   7    1.70    0.30   1
   0  -6  -7    2.00    0.60   1
   0   6   8    2.00    0.60   1
   0  -6  -8    2.20    0.60   1
   0   6   9    3.00    0.70   1
   0  -6  -9    4.10    0.70   1
   0   6  10    4.20    0.80   1
   0  -6 -10    6.90    0.80   1
   0   6  11   28.40    2.50   1
   0  -6 -11   37.10    1.90   1
   0   6  12   20.70    1.60   1
   0  -6 -12   27.70    1.50   1
   0   6  13    0.80    0.90   1
   0  -6 -13    1.70    1.50   1
   0   6  14    4.30    0.90   1
   0  -6 -14    7.60    1.60   1
   0   6  15    7.30    1.20   1
   0  -6 -15   10.90    1.40   1
   0   7 -15    2.10    1.10   1
   0  -7  15    4.90    1.40   1
   0   7 -14    6.90    1.10   1
   0  -7  14    7.30    1.60   1
   0   7 -13    1.70    1.00   1
   0  -7  13    0.90    1.60   1
   0   7 -12    1.60    0.70   1
   0  -7  12    1.80    1.50   1
   0   7 -11    1.10    0.80   1
   0  -7  11    0.60    0.70   1
   0   7 -10   25.20    1.40   1
   0  -7  10   25.20    1.20   1
   0   7  -9    2.30    0.70   1
   0  -7   9    1.80    0.60   1
   0   7  -8    0.10    0.50   1
   0  -7   8    0.90    0.50   1
   0   7  -7    8.70    1.50   1
   0  -7   7    7.40    0.60   1
   0   7  -6   22.80    2.30   1
   0  -7   6   24.60    1.00   1
   0   7  -5    1.50    0.90   1
   0  -7   5    1.30    0.50   1
   0   7  -4   -0.30    0.90   1
   0  -7   4    0.00    0.50   1
   0   7  -3    3.60    0.90   1
   0  -7   3    2.70    0.50   1
   0   7  -2   32.40    2.60   1
   0  -7   2   33.60    1.50   1
   0   7  -1    3.20    1.00   1
   0  -7   1    5.30    0.70   1
   0   7   0   15.80    1.10   1
   0  -7   0   16.50    1.10   1
   0   7   1   13.20    1.00   1
   0  -7  -1   13.40    1.00   1
   0   7   2    5.30    0.70   1
   0  -7  -2    8.20    0.80   1
   0   7   3    2.60    0.60   1
   0  -7  -3    1.90    0.70   1
   0   7   4   10.00    0.70   1
   0  -7  -4   10.90    0.90   1
   0   7   5   13.10    0.90   1
   0  -7  -5   12.10    0.90   1
   0   7   6    5.10    1.10   1
   0  -7  -6    4.80    0.80   1
   0   7   7    2.60    1.00   1
   0  -7  -7    1.10    0.70   1
   0   7   8    6.70    1.50   1
   0  -7  -8    9.50    1.00   1
   0   7   9   -1.20    1.00   1
   0  -7  -9    0.00    0.80   1
   0   7  10    2.20    0.90   1
   0  -7 -10    2.90    0.80   1
   0   7  11    0.60    1.10   1
   0  -7 -11    0.80    0.90   1
   0   7  12    2.10    1.00   1
   0  -7 -12    3.80    1.00   1
   0   7  13    3.00    1.30   1
   0  -7 -13    2.80    1.20   1
   0   8 -11    2.70    1.50   1
   0  -8  11    2.20    1.50   1
   0   8 -10    1.10    1.70   1
   0  -8  10   -1.30    1.30   1
   0   8  -9   -0.90    1.20   1
   0  -8   9   -1.80    1.20   1
   0   8  -8    2.00    1.30   1
   0  -8   8    3.20    1.40   1
   0   8  -7   -0.80    1.40   1
   0  -8   7    1.40    1.30   1
   0   8  -6    1.30    1.40   1
   0  -8   6    0.80    0.70   1
   0   8  -5    7.90    1.20   1
   0  -8   5    6.80    0.80   1
   0   8  -4   -0.60    1.20   1
   0  -8   4    1.10    0.60   1
   0   8  -3    8.00    1.30   1
   0  -8   3    6.10    0.80   1
   0   8  -2   -0.30    0.90   1
   0  -8   2   -0.10    0.60   1
   0   8  -1   -1.20    1.20   1
   0  -8   1    0.40    0.70   1
   0   8   0    0.40    0.90   1
   0  -8   0    0.60    0.90   1
   0   8   1    5.30    1.30   1
   0  -8  -1    6.20    0.90   1
   0   8   2    1.20    0.90   1
   0  -8  -2   -1.80    0.90   1
   0   8   3   17.00    1.10   1
   0  -8  -3   20.90    1.60   1
   0   8   4    6.10    1.20   1
   0  -8  -4   10.30    1.00   1
   0   8   5    3.80    1.30   1
   0  -8  -5    4.70    1.10   1
   0   8   6    5.90    1.30   1
   0  -8  -6    6.90    1.10   1
   0   8   7   -1.70    1.40   1
   0  -8  -7    0.00    0.90   1
   0   8   8    0.40    1.30   1
   0  -8  -8    1.50    1.10   1
   0   8   9    7.60    2.30   1
   0  -8  -9    8.00    1.20   1
   0   9  -4    1.10    1.90   1
   0  -9   4   -0.10    1.60   1
   0   9  -3    1.30    1.50   1
   0  -9   3    2.60    1.80   1
   0   9  -2   12.50    2.10   1
   0  -9   2   11.10    2.00   1
   0   9  -1    1.00    1.60   1
   0  -9   1   -0.30    1.70   1
   0   9   0    7.10    1.50   1
   0  -9   0    9.30    2.10   1
   0   9   1    9.60    6.40   1
   0  -9  -1    1.70    1.30   1
   1  -9  -4    1.90    1.40   1
  -1   9   4   -0.60    1.40   1
   1  -9  -3    1.90    1.60   1
  -1   9   3    5.30    5.60   1
   1  -9  -2    2.90    1.80   1
  -1   9   2    1.20    1.50   1
   1  -9  -1    1.80    1.60   1
  -1   9   1    3.10    1.10   1
   1  -9   0    4.80    1.70   1
  -1   9   0    5.20    1.10   1
   1  -9   1    8.00    1.50   1
  -1   9  -1    7.20    1.10   1
   1  -9   2    4.90    1.50   1
  -1   9  -2    7.00    1.10   1
   1  -9   3    6.30    1.80   1
  -1   9  -3    5.10    1.20   1
   1  -9   4    4.80    1.60   1
  -1   9  -4    2.60    1.20   1
   1  -9   5    1.80    1.30   1
  -1   9  -5    1.50    1.10   1
   1  -9   6    1.80    1.70   1
  -1   9  -6    0.00    1.50   1
   1  -9   7    5.40    2.00   1
  -1   9  -7    2.90    2.10   1
   1  -8 -10   24.00    1.90   1
  -1   8  10   14.30    2.10   1
   1  -8  -9    5.60    1.00   1
  -1   8   9    1.90    1.40   1
   1  -8  -8    1.30    0.90   1
  -1   8   8    2.90    1.50   1
   1  -8  -7   -0.30    0.90   1
  -1   8   7   -2.70    1.60   1
   1  -8  -6   -1.00    0.80   1
  -1   8   6   -2.90    4.50   1
   1  -8  -5    2.90    0.80   1
  -1   8   5    4.20    1.40   1
   1  -8  -4    3.60    0.80   1
  -1   8   4    4.10    0.60   1
   1  -8  -3    0.80    0.60   1
  -1   8   3    0.50    0.70   1
   1  -8  -2    6.20    0.90   1
  -1   8   2    6.00    0.70   1
   1  -8  -1   -0.20    0.60   1
  -1   8   1    1.20    0.70   1
   1  -8   0    1.10    0.70   1
  -1   8   0    0.00    0.70   1
   1  -8   1    1.90    0.80   1
  -1   8  -1   -0.10    0.50   1
   1  -8   2   -0.90    0.50   1
  -1   8  -2    0.90    0.70   1
   1  -8   3    6.70    1.10   1
  -1   8  -3    8.10    1.10   1
   1  -8   4    4.80    1.30   1
  -1   8  -4    6.00    1.30   1
   1  -8   5   10.90    1.50   1
  -1   8  -5   12.90    1.80   1
   1  -8   6    0.60    1.10   1
  -1   8  -6    0.70    0.90   1
   1  -8   7    1.00    1.40   1
  -1   8  -7    1.30    1.40   1
   1  -8   8    2.40    1.60   1
  -1   8  -8    2.70    1.20   1
   1  -8   9    0.50    1.30   1
  -1   8  -9   -2.00    1.20   1
   1  -8  10    3.30    1.70   1
  -1   8 -10    2.60    1.50   1
   1  -8  11   11.10    2.10   1
  -1   8 -11    5.90    1.50   1
   1  -8  12    1.00    1.80   1
  -1   8 -12    6.70    2.10   1
   1  -7 -13    9.30    1.20   1
  -1   7  13    5.70    1.20   1
   1  -7 -12    1.50    0.90   1
  -1   7  12    0.00    1.20   1
   1  -7 -11   -1.40    0.90   1
  -1   7  11    0.20    1.20   1
   1  -7 -10    1.90    0.90   1
  -1   7  10    2.00    1.20   1
   1  -7  -9   21.70    1.30   1
  -1   7   9   20.80    2.00   1
   1  -7  -8    4.40    0.60   1
  -1   7   8    5.20    1.20   1
   1  -7  -7   11.00    0.90   1
  -1   7   7    8.60    1.30   1
   1  -7  -6   -0.60    0.60   1
  -1   7   6    0.00    0.40   1
   1  -7  -5    6.80    0.70   1
  -1   7   5    7.50    0.70   1
   1  -7  -4    0.80    0.70   1
  -1   7   4    1.90    0.50   1
   1  -7  -3    0.80    0.50   1
  -1   7   3    1.70    0.50   1
   1  -7  -2   -0.60    0.40   1
  -1   7   2    0.30    0.40   1
   1  -7  -1   16.40    1.10   1
  -1   7   1   18.30    0.90   1
   1  -7   0    0.60    0.40   1
  -1   7   0    0.20    0.40   1
   1  -7   1   17.60    1.10   1
  -1   7  -1   18.40    1.40   1
   1  -7   2    9.10    0.80   1
  -1   7  -2    8.30    1.10   1
   1  -7   3    9.40    0.60   1
  -1   7  -3   13.10    1.40   1
   1  -7   4    2.80    0.50   1
  -1   7  -4    2.30    1.00   1
   1  -7   5    0.60    0.40   1
  -1   7  -5   -0.20    0.80   1
   1  -7   6    1.80    0.40   1
  -1   7  -6    2.10    0.80   1
   1  -7   7    3.80    0.50   1
  -1   7  -7    4.00    0.60   1
   1  -7   8    8.10    1.50   1
  -1   7  -8    9.70    0.80   1
   1  -7   9    9.30    1.30   1
  -1   7  -9    9.20    0.80   1
   1  -7  10    1.40    0.90   1
  -1   7 -10    2.70    0.70   1
   1  -7  11    1.20    1.30   1
  -1   7 -11    0.20    0.70   1
   1  -7  12    4.20    0.90   1
  -1   7 -12    4.30    0.90   1
   1  -7  13    5.20    1.10   1
  -1   7 -13    3.30    0.90   1
   1  -7  14   13.00    2.10   1
  -1   7 -14   10.40    1.30   1
   1  -7  15    1.00    1.70   1
  -1   7 -15    0.80    1.10   1
   1  -6 -16    3.90    1.50   1
  -1   6  16    2.80    1.20   1
   1  -6 -15    2.40    1.20   1
  -1   6  15    0.90    1.10   1
   1  -6 -14   -1.20    1.00   1
  -1   6  14   -0.10    0.80   1
   1  -6 -13    1.70    1.00   1
  -1   6  13    0.90    0.80   1
   1  -6 -12   14.30    1.60   1
  -1   6  12    9.00    0.90   1
   1  -6 -11    5.50    1.10   1
  -1   6  11    4.30    0.90   1
   1  -6 -10   28.40    2.00   1
  -1   6  10   25.90    1.50   1
   1  -6  -9    1.90    0.90   1
  -1   6   9    1.40    0.70   1
   1  -6  -8   -0.70    0.80   1
  -1   6   8    0.60    0.30   1
   1  -6  -7    1.10    0.50   1
  -1   6   7    0.50    0.30   1
   1  -6  -6   20.90    1.10   1
  -1   6   6   19.70    0.90   1
   1  -6  -5   -0.80    0.40   1
  -1   6   5   -0.20    0.30   1
   1  -6  -4   29.40    1.30   1
  -1   6   4   29.10    1.00   1
   1  -6  -3    0.50    0.40   1
  -1   6   3    0.00    0.30   1
   1  -6  -2   54.90    2.00   1
  -1   6   2   54.20    1.60   1
   1  -6  -1   19.00    0.90   1
  -1   6   1   19.20    0.80   1
   1  -6   0   32.80    1.30   1
  -1   6   0   33.50    1.40   1
   1  -6   1   29.40    1.30   1
  -1   6  -1   30.20    1.80   1
   1  -6   2    5.90    0.60   1
  -1   6  -2    5.80    0.70   1
   1  -6   3   22.90    0.90   1
  -1   6  -3   24.10    1.00   1
   1  -6   4   12.30    0.60   1
  -1   6  -4   15.30    0.80   1
   1  -6   5    5.50    0.40   1
  -1   6  -5    5.50    0.50   1
   1  -6   6   -0.30    0.30   1
  -1   6  -6    0.10    0.30   1
   1  -6   7    5.70    0.40   1
  -1   6  -7    7.10    0.60   1
   1  -6   8    1.30    0.40   1
  -1   6  -8    1.30    0.40   1
   1  -6   9    2.00    0.40   1
  -1   6  -9    3.50    0.60   1
   1  -6  10    5.40    0.50   1
  -1   6 -10    7.60    0.70   1
   1  -6  11    6.80    0.50   1
  -1   6 -11    8.00    0.80   1
   1  -6  12   17.00    0.80   1
  -1   6 -12   17.80    1.20   1
   1  -6  13    3.10    0.70   1
  -1   6 -13    2.30    0.80   1
   1  -6  14   -0.80    0.60   1
  -1   6 -14   -0.20    0.60   1
   1  -6  15   -1.70    1.00   1
  -1   6 -15   -0.20    0.90   1
   1  -6  16    0.60    0.90   1
  -1   6 -16   -0.40    0.80   1
  -1   6 -17    1.50    1.00   1
   1  -5 -18    0.80    1.60   1
  -1   5  18   -0.10    1.20   1
   1  -5 -17   25.20    2.60   1
  -1   5  17   19.60    1.80   1
   1  -5 -16    1.00    1.00   1
  -1   5  16    1.60    1.00   1
   1  -5 -15    9.40    1.40   1
  -1   5  15    5.20    1.40   1
   1  -5 -14    3.10    0.90   1
  -1   5  14    1.10    0.90   1
   1  -5 -13   -0.10    0.80   1
  -1   5  13    1.80    0.80   1
   1  -5 -12    1.30    0.70   1
  -1   5  12    0.90    0.60   1
   1  -5 -11    6.10    0.60   1
  -1   5  11    5.40    0.70   1
   1  -5 -10    0.90    0.40   1
  -1   5  10    1.60    0.60   1
   1  -5  -9   10.60    0.60   1
  -1   5   9   13.40    0.50   1
   1  -5  -8    8.10    0.80   1
  -1   5   8    8.00    0.30   1
   1  -5  -7   60.50    1.60   1
  -1   5   7   62.10    1.60   1
   1  -5  -6    0.00    0.40   1
  -1   5   6   -0.10    0.20   1
   1  -5  -5   52.40    1.60   1
  -1   5   5   51.50    1.40   1
   1  -5  -4    3.50    0.30   1
  -1   5   4    4.40    0.40   1
   1  -5  -3   50.00    1.50   1
  -1   5   3   51.40    1.50   1
   1  -5  -2   44.50    1.50   1
  -1   5   2   44.60    1.30   1
   1  -5  -1   87.20    2.50   1
  -1   5   1   86.60    2.50   1
   1  -5   0   -0.30    0.20   1
  -1   5   0    0.40    0.30   1
   1  -5   1   15.00    0.70   1
  -1   5  -1   16.20    1.00   1
   1  -5   2   22.30    0.70   1
  -1   5  -2   22.80    0.80   1
   1  -5   3    3.20    0.20   1
  -1   5  -3    3.60    0.20   1
   1  -5   4    1.70    0.20   1
  -1   5  -4    2.80    0.20   1
   1  -5   5   15.00    0.50   1
  -1   5  -5   15.60    0.60   1
   1  -5   6    3.30    0.30   1
  -1   5  -6    3.60    0.30   1
   1  -5   7   12.70    0.60   1
  -1   5  -7   14.90    0.60   1
   1  -5   8    3.40    0.30   1
  -1   5  -8    3.70    0.40   1
   1  -5   9    4.10    0.40   1
  -1   5  -9    5.10    0.50   1
   1  -5  10    0.30    0.30   1
  -1   5 -10   -0.10    0.40   1
   1  -5  11    0.80    0.30   1
  -1   5 -11    0.10    0.40   1
   1  -5  12    0.80    0.30   1
  -1   5 -12    0.40    0.50   1
   1  -5  13   17.10    0.70   1
  -1   5 -13   15.90    1.10   1
   1  -5  14   41.70    1.80   1
  -1   5 -14   49.50    2.70   1
   1  -5  15    1.70    0.70   1
  -1   5 -15    2.00    0.80   1
   1  -5  16    5.10    0.80   1
  -1   5 -16    3.80    0.90   1
   1  -5  17   -0.20    1.20   1
  -1   5 -17   -0.90    0.80   1
   1  -5  18   -2.00    5.10   1
  -1   5 -18   -0.60    0.90   1
   1  -5  19    2.60    1.30   1
  -1   5 -19    3.80    1.10   1
   1  -4 -19   15.30    2.00   1
  -1   4  19   11.50    1.40   1
   1  -4 -18   -0.70    0.90   1
  -1   4  18    0.50    0.90   1
   1  -4 -17   -0.10    0.70   1
  -1   4  17   -0.20    0.90   1
   1  -4 -16    1.00    0.70   1
  -1   4  16    0.70    0.80   1
   1  -4 -15   -0.20    0.50   1
  -1   4  15    0.60    0.90   1
   1  -4 -14    1.60    0.60   1
  -1   4  14    1.60    0.70   1
   1  -4 -13    4.00    0.60   1
  -1   4  13    2.70    0.60   1
   1  -4 -12    2.90    0.50   1
  -1   4  12    2.40    0.80   1
   1  -4 -11  107.20    4.10   1
  -1   4  11  109.40    3.10   1
   1  -4 -10  108.20    3.40   1
  -1   4  10  111.00    3.50   1
   1  -4  -9    3.30    0.20   1
  -1   4   9    3.10    0.30   1
   1  -4  -8   24.50    0.80   1
  -1   4   8   25.00    0.70   1
   1  -4  -7   14.90    0.50   1
  -1   4   7   16.70    0.40   1
   1  -4  -6   70.20    1.70   1
  -1   4   6   72.10    1.70   1
   1  -4  -5   15.90    0.50   1
  -1   4   5   16.60    0.50   1
   1  -4  -4  156.50    3.30   1
  -1   4   4  151.60    3.70   1
   1  -4  -3    5.60    0.30   1
  -1   4   3    6.00    0.30   1
   1  -4  -2    0.00    0.10   1
  -1   4   2    0.40    0.20   1
   1  -4  -1    1.10    0.20   1
  -1   4   1    1.40    0.20   1
   1  -4   0  109.70    2.30   1
  -1   4   0  105.40    2.30   1
   1  -4   1    0.30    0.10   1
  -1   4  -1    0.10    0.10   1
   1  -4   2  269.00    5.90   1
  -1   4  -2  272.20    5.40   1
   1  -4   3    0.00    0.10   1
  -1   4  -3    0.20    0.20   1
   1  -4   4   23.10    0.50   1
  -1   4  -4   22.70    0.60   1
   1  -4   5    9.30    0.30   1
  -1   4  -5   10.30    0.40   1
   1  -4   6   28.10    0.80   1
  -1   4  -6   30.60    0.90   1
   1  -4   7   29.00    0.80   1
  -1   4  -7   31.50    0.90   1
   1  -4   8    2.70    0.20   1
  -1   4  -8    3.40    0.30   1
   1  -4   9    0.50    0.20   1
  -1   4  -9    0.50    0.20   1
   1  -4  10   65.50    1.70   1
  -1   4 -10   65.90    1.80   1
   1  -4  11   32.00    1.00   1
  -1   4 -11   31.40    1.10   1
   1  -4  12    1.00    0.30   1
  -1   4 -12    0.60    0.40   1
   1  -4  13    3.70    0.30   1
  -1   4 -13    2.80    0.50   1
   1  -4  14    6.70    0.50   1
  -1   4 -14    6.50    0.70   1
   1  -4  15    4.50    0.60   1
  -1   4 -15    3.30    0.70   1
   1  -4  16    8.10    0.70   1
  -1   4 -16    8.40    0.90   1
   1  -4  17    1.80    1.20   1
  -1   4 -17    0.80    0.60   1
   1  -4  18    2.70    1.40   1
  -1   4 -18    4.80    0.90   1
   1  -4  19   -0.10    1.40   1
  -1   4 -19    0.40    0.90   1
   1  -4  20    5.10    6.70   1
  -1   4 -20   -0.50    1.40   1
   1  -3 -20    0.40    0.80   1
  -1   3  20    0.60    1.30   1
   1  -3 -19    2.40    0.80   1
  -1   3  19    1.30    0.90   1
   1  -3 -18    9.10    1.00   1
  -1   3  18    8.80    1.20   1
   1  -3 -17   10.40    1.00   1
  -1   3  17    8.20    1.10   1
   1  -3 -16    8.70    0.80   1
  -1   3  16    8.60    0.80   1
   1  -3 -15    6.80    0.70   1
  -1   3  15    5.70    0.80   1
   1  -3 -14   74.80    2.80   1
  -1   3  14   67.90    2.50   1
   1  -3 -13   18.10    0.90   1
  -1   3  13   14.70    0.80   1
   1  -3 -12   55.40    1.80   1
  -1   3  12   53.60    1.80   1
   1  -3 -11  262.00    7.10   1
  -1   3  11  254.30    7.60   1
   1  -3 -10   17.20    0.50   1
  -1   3  10   16.90    0.60   1
   1  -3  -9   37.00    0.90   1
  -1   3   9   34.60    1.10   1
   1  -3  -8   19.60    0.50   1
  -1   3   8   17.80    0.60   1
   1  -3  -7    1.50    0.20   1
  -1   3   7    1.20    0.20   1
   1  -3  -6   20.60    0.50   1
  -1   3   6   20.60    0.50   1
   1  -3  -5    0.60    0.10   1
  -1   3   5    0.50    0.10   1
   1  -3  -4   38.80    0.70   1
  -1   3   4   37.40    0.70   1
   1  -3  -3    8.70    0.20   1
  -1   3   3    8.80    0.30   1
   1  -3  -2   26.40    0.50   1
  -1   3   2   27.30    0.60   1
   1  -3  -1   13.90    0.40   1
  -1   3   1   13.40    0.40   1
   1  -3   0   20.90    0.40   1
  -1   3   0   20.90    0.60   1
   1  -3   1   51.30    0.90   1
  -1   3  -1   50.90    1.10   1
   1  -3   2   11.60    0.30   1
  -1   3  -2   12.30    0.30   1
   1  -3   3    6.20    0.20   1
  -1   3  -3    7.00    0.20   1
   1  -3   4    0.10    0.10   1
  -1   3  -4    0.00    0.10   1
   1  -3   5  355.00    8.30   1
  -1   3  -5  352.80    7.20   1
   1  -3   6  133.30    3.10   1
  -1   3  -6  127.90    2.40   1
   1  -3   7   12.50    0.40   1
  -1   3  -7   13.30    0.40   1
   1  -3   8    2.70    0.20   1
  -1   3  -8    2.80    0.20   1
   1  -3   9    3.10    0.20   1
  -1   3  -9    2.70    0.20   1
   1  -3  10   51.40    1.30   1
  -1   3 -10   52.50    1.40   1
   1  -3  11   45.70    1.30   1
  -1   3 -11   47.00    1.40   1
   1  -3  12    0.10    0.20   1
  -1   3 -12    0.30    0.30   1
   1  -3  13    9.30    0.40   1
  -1   3 -13    9.50    0.60   1
   1  -3  14    1.20    0.40   1
  -1   3 -14    0.60    0.40   1
   1  -3  15   11.00    1.20   1
  -1   3 -15   13.30    1.00   1
   1  -3  16    5.70    0.90   1
  -1   3 -16    3.10    0.60   1
   1  -3  17    5.00    1.00   1
  -1   3 -17    4.60    0.70   1
   1  -3  18   -0.10    0.90   1
  -1   3 -18   -0.10    0.70   1
   1  -3  19   16.20    2.00   1
  -1   3 -19   14.50    1.30   1
   1  -3  20    8.20    1.60   1
  -1   3 -20   11.20    1.70   1
   1  -3  21   -0.10    1.50   1
  -1   3 -21   -0.20    1.40   1
   1  -2 -21    1.60    0.80   1
  -1   2  21    0.80    1.00   1
   1  -2 -20    0.80    0.70   1
  -1   2  20    1.40    1.00   1
   1  -2 -19   48.50    3.10   1
  -1   2  19   41.80    2.40   1
   1  -2 -18    0.10    0.50   1
  -1   2  18    1.10    0.70   1
   1  -2 -17   -0.40    0.50   1
  -1   2  17    0.10    0.70   1
   1  -2 -16   14.90    0.90   1
  -1   2  16   11.90    1.00   1
   1  -2 -15   26.30    1.80   1
  -1   2  15   24.00    1.10   1
   1  -2 -14   18.50    1.20   1
  -1   2  14   17.00    0.90   1
   1  -2 -13   53.50    1.30   1
  -1   2  13   51.30    1.90   1
   1  -2 -12   20.90    0.60   1
  -1   2  12   21.90    0.90   1
   1  -2 -11    3.70    0.20   1
  -1   2  11    3.40    0.40   1
   1  -2 -10   66.40    1.30   1
  -1   2  10   64.30    1.90   1
   1  -2  -9    0.40    0.10   1
  -1   2   9    0.20    0.30   1
   1  -2  -8   13.90    0.30   1
  -1   2   8   13.30    0.60   1
   1  -2  -7   13.00    0.30   1
  -1   2   7   12.60    0.50   1
   1  -2  -6    0.20    0.10   1
  -1   2   6    0.00    0.10   1
   1  -2  -5   64.20    1.00   1
  -1   2   5   62.40    1.30   1
   1  -2  -4   21.90    0.40   1
  -1   2   4   21.80    0.40   1
   1  -2  -3    0.80    0.10   1
  -1   2   3    0.80    0.10   1
   1  -2  -2    7.40    0.20   1
  -1   2   2    7.30    0.20   1
   1  -2  -1   37.90    0.90   1
  -1   2   1   37.30    0.80   1
   1  -2   0   73.80    1.60   1
  -1   2   0   73.40    1.60   1
   1  -2   1  721.20   16.50   1
  -1   2  -1  668.50   15.70   1
   1  -2   2 4675.60  246.00   1
  -1   2  -2 4556.50  274.10   1
   1  -2   3  598.70   12.50   1
  -1   2  -3  583.80   11.60   1
   1  -2   4    0.10    0.10   1
  -1   2  -4    0.20    0.10   1
   1  -2   5   45.10    0.90   1
  -1   2  -5   44.70    0.90   1
   1  -2   6  124.20    2.30   1
  -1   2  -6  121.60    2.30   1
   1  -2   7    2.30    0.10   1
  -1   2  -7    2.50    0.10   1
   1  -2   8   94.90    2.10   1
  -1   2  -8   97.20    1.90   1
   1  -2   9    2.50    0.20   1
  -1   2  -9    2.30    0.20   1
   1  -2  10    6.50    0.30   1
  -1   2 -10    7.00    0.30   1
   1  -2  11   14.80    0.50   1
  -1   2 -11   14.80    0.60   1
   1  -2  12   12.20    2.40   1
  -1   2 -12   15.40    0.90   1
   1  -2  13    9.10    0.90   1
  -1   2 -13    9.50    0.70   1
   1  -2  14    5.10    0.70   1
  -1   2 -14    5.30    0.50   1
   1  -2  15    0.80    2.40   1
  -1   2 -15    0.90    0.40   1
   1  -2  16   15.90    1.50   1
  -1   2 -16   18.40    1.10   1
   1  -2  17    4.10    1.10   1
  -1   2 -17    3.40    0.60   1
   1  -2  18    1.30    1.00   1
  -1   2 -18   -0.60    0.50   1
   1  -2  19    0.80    0.80   1
  -1   2 -19    0.50    1.10   1
   1  -2  20    2.60    1.00   1
  -1   2 -20   -0.50    1.20   1
   1  -2  21   -0.70    1.30   1
  -1   2 -21    0.40    1.60   1
   1  -1 -21    0.60    1.40   1
  -1   1  21    0.30    1.00   1
   1  -1 -20   26.20    3.00   1
  -1   1  20   25.50    1.50   1
   1  -1 -19    0.90    0.90   1
  -1   1  19    1.40    0.70   1
   1  -1 -18   35.00    2.70   1
  -1   1  18   34.80    1.80   1
   1  -1 -17    1.70    0.90   1
  -1   1  17   -0.50    0.60   1
   1  -1 -16   55.00    3.10   1
  -1   1  16   49.40    1.90   1
   1  -1 -15    6.50    0.50   1
  -1   1  15    6.90    0.70   1
   1  -1 -14    1.80    0.30   1
  -1   1  14    2.70    0.40   1
   1  -1 -13    2.50    0.30   1
  -1   1  13    3.00    0.50   1
   1  -1 -12   62.50    1.80   1
  -1   1  12   60.90    2.10   1
   1  -1 -11   63.40    2.00   1
  -1   1  11   65.20    2.00   1
   1  -1 -10   12.20    0.50   1
  -1   1  10   11.80    0.50   1
   1  -1  -9    5.30    0.20   1
  -1   1   9    5.30    0.30   1
   1  -1  -8   27.80    0.60   1
  -1   1   8   26.30    0.70   1
   1  -1  -7   29.60    0.60   1
  -1   1   7   28.40    0.70   1
   1  -1  -6    7.50    0.20   1
  -1   1   6    6.60    0.20   1
   1  -1  -5    3.20    0.10   1
  -1   1   5    3.50    0.20   1
   1  -1  -4    3.00    0.10   1
  -1   1   4    2.80    0.10   1
   1  -1  -3  310.80    4.60   1
  -1   1   3  300.80    5.50   1
   1  -1  -2 1283.70   28.90   1
  -1   1   2 1175.00   31.40   1
   1  -1  -1  217.30    3.60   1
  -1   1   1  214.40    3.80   1
   1  -1   0    0.30    0.00   1
  -1   1   0    0.10    0.10   1
   1  -1   1  283.40    5.40   1
  -1   1  -1  272.10    6.40   1
   1  -1   2   25.70    0.60   1
  -1   1  -2   25.00    0.50   1
   1  -1   3  207.40    4.70   1
  -1   1  -3  202.90    3.80   1
   1  -1   4   17.20    0.40   1
  -1   1  -4   16.80    0.30   1
   1  -1   5   14.80    0.40   1
  -1   1  -5   15.00    0.40   1
   1  -1   6   12.40    0.40   1
  -1   1  -6   13.20    0.30   1
   1  -1   7    0.60    0.10   1
  -1   1  -7    0.50    0.10   1
   1  -1   8   37.40    1.00   1
  -1   1  -8   38.50    0.70   1
   1  -1   9   27.90    0.90   1
  -1   1  -9   29.50    0.60   1
   1  -1  10    4.30    0.40   1
  -1   1 -10    4.50    0.20   1
   1  -1  11   61.30    3.60   1
  -1   1 -11   50.70    1.20   1
   1  -1  12   -0.20    0.40   1
  -1   1 -12    0.40    0.30   1
   1  -1  13   26.80    1.50   1
  -1   1 -13   26.60    1.20   1
   1  -1  14   17.00    1.30   1
  -1   1 -14   18.20    0.70   1
   1  -1  15   26.90    1.60   1
  -1   1 -15   26.80    1.10   1
   1  -1  16   25.90    1.70   1
  -1   1 -16   26.20    1.00   1
   1  -1  17   48.60    2.70   1
  -1   1 -17   51.30    1.90   1
   1  -1  18   20.70    1.60   1
  -1   1 -18   22.10    2.30   1
   1  -1  19    5.70    1.40   1
  -1   1 -19    7.00    1.20   1
   1  -1  20   -0.80    1.00   1
  -1   1 -20    1.00    1.10   1
   1  -1  21    1.70    1.40   1
  -1   1 -21    0.70    1.30   1
   1   0 -22    1.30    1.30   1
  -1   0  22    2.80    1.20   1
   1   0 -21   10.60    1.80   1
  -1   0  21   14.50    1.70   1
   1   0 -20    3.00    1.20   1
  -1   0  20    4.70    3.30   1
   1   0 -19    0.90    0.90   1
  -1   0  19    0.80    0.80   1
   1   0 -18    6.90    1.20   1
  -1   0  18    5.10    0.70   1
   1   0 -17   -0.20    0.50   1
  -1   0  17    0.60    0.80   1
   1   0 -16   -0.10    0.40   1
  -1   0  16    0.50    0.50   1
   1   0 -15   35.30    1.70   1
  -1   0  15   31.50    1.40   1
   1   0 -14    0.80    0.30   1
  -1   0  14    0.70    0.40   1
   1   0 -13    2.80    0.40   1
  -1   0  13    3.50    0.40   1
   1   0 -12    4.70    0.30   1
  -1   0  12    5.80    0.40   1
   1   0 -11    8.30    0.50   1
  -1   0  11    8.50    0.40   1
   1   0 -10   35.80    1.30   1
  -1   0  10   36.00    1.00   1
   1   0  -9    3.70    0.10   1
  -1   0   9    4.10    0.20   1
   1   0  -8   60.00    1.10   1
  -1   0   8   58.70    1.40   1
   1   0  -7  654.10   10.90   1
  -1   0   7  638.40   13.80   1
   1   0  -6  165.90    3.10   1
  -1   0   6  171.50    3.40   1
   1   0  -5   28.80    0.60   1
  -1   0   5   28.20    0.70   1
   1   0  -4  192.40    3.60   1
  -1   0   4  193.90    3.50   1
   1   0  -3   95.50    1.80   1
  -1   0   3   94.40    1.60   1
   1   0  -2   13.80    0.20   1
  -1   0   2   13.30    0.30   1
   1   0  -1  336.40    7.20   1
  -1   0   1  328.10    7.20   1
   1   0   0   17.90    0.40   1
  -1   0   0   18.10    0.50   1
   1   0   1  240.20    4.50   1
  -1   0  -1  242.00    4.70   1
   1   0   2   23.40    0.50   1
  -1   0  -2   23.30    0.50   1
   1   0   3   52.20    1.10   1
  -1   0  -3   50.90    1.00   1
   1   0   4  100.90    2.20   1
  -1   0  -4  102.40    2.00   1
   1   0   5   33.60    1.10   1
  -1   0  -5   33.90    0.70   1
   1   0   6    7.20    0.30   1
  -1   0  -6    7.60    0.20   1
   1   0   7  155.10    4.20   1
  -1   0  -7  148.10    2.60   1
   1   0   8   93.80    2.70   1
  -1   0  -8   91.90    1.60   1
   1   0   9    5.70    0.30   1
  -1   0  -9    5.30    0.20   1
   1   0  10    1.90    0.20   1
  -1   0 -10    2.00    0.20   1
   1   0  11    2.70    0.30   1
  -1   0 -11    2.00    0.20   1
   1   0  12   -0.30    0.30   1
  -1   0 -12   -0.10    0.20   1
   1   0  13    0.90    0.30   1
  -1   0 -13    0.80    0.20   1
   1   0  14  228.90    9.20   1
  -1   0 -14  236.20    6.30   1
   1   0  15   50.00    1.90   1
  -1   0 -15   48.40    1.70   1
   1   0  16    0.70    0.60   1
  -1   0 -16   -1.90    0.80   1
   1   0  17    2.40    0.70   1
  -1   0 -17    4.60    0.90   1
   1   0  18    5.50    0.90   1
  -1   0 -18    5.50    1.20   1
   1   0  19    1.90    1.10   1
  -1   0 -19    2.20    1.10   1
   1   0  20    8.90    1.20   1
  -1   0 -20   11.20    1.70   1
   1   0  21    0.90    0.90   1
  -1   0 -21   -0.30    1.50   1
   1   1 -22    1.60    1.50   1
  -1  -1  22    3.50    1.70   1
   1   1 -21    0.70    1.10   1
  -1  -1  21    0.20    0.90   1
   1   1 -20   13.80    1.80   1
  -1  -1  20   11.80    1.20   1
   1   1 -19    5.00    1.30   1
  -1  -1  19    4.80    0.80   1
   1   1 -18    8.60    0.80   1
  -1  -1  18    9.20    0.90   1
   1   1 -17    4.60    0.60   1
  -1  -1  17    6.50    0.70   1
   1   1 -16   30.50    1.50   1
  -1  -1  16   28.00    1.10   1
   1   1 -15    0.90    0.40   1
  -1  -1  15    1.50    0.40   1
   1   1 -14   12.50    1.20   1
  -1  -1  14   10.20    0.60   1
   1   1 -13    1.90    0.30   1
  -1  -1  13    2.30    0.40   1
   1   1 -12  120.50    4.20   1
  -1  -1  12  123.70    3.40   1
   1   1 -11   24.50    1.00   1
  -1  -1  11   26.30    0.80   1
   1   1 -10  136.50    3.80   1
  -1  -1  10  138.10    3.40   1
   1   1  -9   26.10    0.60   1
  -1  -1   9   24.70    0.70   1
   1   1  -8   29.90    0.70   1
  -1  -1   8   29.80    0.70   1
   1   1  -7   47.00    0.80   1
  -1  -1   7   45.20    0.90   1
   1   1  -6   45.00    0.80   1
  -1  -1   6   42.10    0.80   1
   1   1  -5  159.40    2.80   1
  -1  -1   5  151.60    2.80   1
   1   1  -4   12.50    0.30   1
  -1  -1   4   11.70    0.30   1
   1   1  -3   43.10    1.00   1
  -1  -1   3   42.20    0.80   1
   1   1  -2    0.90    0.10   1
  -1  -1   2    0.90    0.10   1
   1   1  -1   40.40    0.90   1
  -1  -1   1   41.00    1.00   1
   1   1   0   15.00    0.40   1
  -1  -1   0   14.80    0.30   1
   1   1   1  164.20    3.50   1
  -1  -1  -1  164.60    4.00   1
   1   1   2  125.00    2.60   1
  -1  -1  -2  122.40    2.70   1
   1   1   3   27.40    0.60   1
  -1  -1  -3   27.50    0.60   1
   1   1   4   41.40    0.90   1
  -1  -1  -4   41.90    1.00   1
   1   1   5   31.10    0.60   1
  -1  -1  -5   30.80    0.60   1
   1   1   6   86.10    2.10   1
  -1  -1  -6   84.60    1.60   1
   1   1   7   23.40    0.70   1
  -1  -1  -7   23.70    0.60   1
   1   1   8   58.20    1.60   1
  -1  -1  -8   58.00    1.10   1
   1   1   9  190.20    5.30   1
  -1  -1  -9  196.10    3.40   1
   1   1  10   20.10    0.70   1
  -1  -1 -10   20.40    0.50   1
   1   1  11   55.00    1.70   1
  -1  -1 -11   54.20    1.40   1
   1   1  12    0.00    0.40   1
  -1  -1 -12    0.40    0.10   1
   1   1  13    0.20    0.30   1
  -1  -1 -13   -0.10    0.20   1
   1   1  14    0.60    0.30   1
  -1  -1 -14    1.20    0.50   1
   1   1  15    3.40    0.60   1
  -1  -1 -15    2.10    0.60   1
   1   1  16    1.00    0.80   1
  -1  -1 -16    0.60    0.70   1
   1   1  17    2.70    0.80   1
  -1  -1 -17    0.90    0.70   1
   1   1  18    3.00    0.80   1
  -1  -1 -18    1.80    1.10   1
   1   1  19    0.60    0.80   1
  -1  -1 -19    0.80    1.00   1
   1   1  20    1.00    0.80   1
  -1  -1 -20    1.20    1.10   1
   1   1  21    1.10    1.10   1
  -1  -1 -21   -1.50    1.20   1
   1   2 -21    2.70    1.30   1
  -1  -2  21   -2.80    4.50   1
   1   2 -20   -0.30    1.00   1
  -1  -2  20    0.70    1.20   1
   1   2 -19    1.40    0.70   1
  -1  -2  19    1.20    0.60   1
   1   2 -18   -0.40    0.60   1
  -1  -2  18    0.60    0.50   1
   1   2 -17   24.50    1.70   1
  -1  -2  17   23.00    1.10   1
   1   2 -16    0.20    0.50   1
  -1  -2  16    0.60    0.40   1
   1   2 -15   30.10    1.50   1
  -1  -2  15   28.90    1.50   1
   1   2 -14    5.40    0.50   1
  -1  -2  14    4.40    0.80   1
   1   2 -13    0.50    0.30   1
  -1  -2  13    0.30    0.40   1
   1   2 -12    2.10    0.40   1
  -1  -2  12    3.10    0.60   1
   1   2 -11   62.80    2.80   1
  -1  -2  11   63.80    2.00   1
   1   2 -10    6.30    0.50   1
  -1  -2  10    6.20    0.20   1
   1   2  -9  109.00    3.00   1
  -1  -2   9  105.80    2.00   1
   1   2  -8   16.10    0.50   1
  -1  -2   8   16.10    0.40   1
   1   2  -7   19.70    0.50   1
  -1  -2   7   18.90    0.50   1
   1   2  -6   18.20    0.40   1
  -1  -2   6   16.80    0.40   1
   1   2  -5    1.80    0.10   1
  -1  -2   5    1.50    0.10   1
   1   2  -4    2.10    0.20   1
  -1  -2   4    2.00    0.10   1
   1   2  -3    4.20    0.20   1
  -1  -2   3    3.60    0.20   1
   1   2  -2   20.00    0.50   1
  -1  -2   2   19.80    0.50   1
   1   2  -1   13.20    0.40   1
  -1  -2   1   13.30    0.40   1
   1   2   0   10.40    0.30   1
  -1  -2   0   10.30    0.30   1
   1   2   1  171.70    3.30   1
  -1  -2  -1  178.40    3.70   1
   1   2   2   34.10    0.80   1
  -1  -2  -2   35.60    0.70   1
   1   2   3  208.30    4.20   1
  -1  -2  -3  211.90    3.70   1
   1   2   4   12.80    0.40   1
  -1  -2  -4   13.00    0.30   1
   1   2   5  323.30    6.60   1
  -1  -2  -5  332.80    6.90   1
   1   2   6  158.60    2.90   1
  -1  -2  -6  164.30    3.70   1
   1   2   7   24.70    0.70   1
  -1  -2  -7   25.40    0.70   1
   1   2   8    1.00    0.20   1
  -1  -2  -8    0.40    0.20   1
   1   2   9    0.20    0.20   1
  -1  -2  -9    0.00    0.20   1
   1   2  10    9.20    0.50   1
  -1  -2 -10   10.70    0.50   1
   1   2  11   34.70    1.30   1
  -1  -2 -11   38.30    1.20   1
   1   2  12    3.60    0.50   1
  -1  -2 -12    3.70    0.40   1
   1   2  13   10.50    0.60   1
  -1  -2 -13   12.20    0.70   1
   1   2  14   12.90    0.70   1
  -1  -2 -14   13.60    0.80   1
   1   2  15    2.10    0.40   1
  -1  -2 -15    2.10    0.60   1
   1   2  16    2.10    0.60   1
  -1  -2 -16    2.40    0.60   1
   1   2  17    5.50    0.80   1
  -1  -2 -17    2.50    0.70   1
   1   2  18    7.50    1.20   1
  -1  -2 -18    6.30    0.80   1
   1   2  19    0.30    1.30   1
  -1  -2 -19    2.10    0.80   1
   1   2  20    9.30    1.70   1
  -1  -2 -20   13.20    1.30   1
   1   3 -21    6.40    1.70   1
   1   3 -20    8.80    1.10   1
  -1  -3  20    9.00    1.90   1
   1   3 -19    1.10    0.80   1
  -1  -3  19    0.50    1.30   1
   1   3 -18    0.30    0.60   1
  -1  -3  18    0.00    0.50   1
   1   3 -17   16.90    1.20   1
  -1  -3  17   17.60    1.20   1
   1   3 -16   -0.10    0.50   1
  -1  -3  16    0.70    0.50   1
   1   3 -15    1.20    0.50   1
  -1  -3  15    1.60    0.80   1
   1   3 -14    3.30    0.50   1
  -1  -3  14    2.50    0.80   1
   1   3 -13    4.80    0.60   1
  -1  -3  13    4.80    0.50   1
   1   3 -12   51.20    2.20   1
  -1  -3  12   50.70    1.40   1
   1   3 -11   19.70    1.10   1
  -1  -3  11   19.60    0.80   1
   1   3 -10   13.10    0.90   1
  -1  -3  10   13.90    0.40   1
   1   3  -9    1.10    0.30   1
  -1  -3   9    1.20    0.20   1
   1   3  -8   32.30    1.00   1
  -1  -3   8   31.00    0.70   1
   1   3  -7    9.40    0.40   1
  -1  -3   7    9.80    0.30   1
   1   3  -6   89.30    2.10   1
  -1  -3   6   87.90    1.80   1
   1   3  -5    9.20    0.30   1
  -1  -3   5    9.00    0.30   1
   1   3  -4   17.00    0.50   1
  -1  -3   4   16.70    0.50   1
   1   3  -3    8.10    0.30   1
  -1  -3   3    8.20    0.30   1
   1   3  -2   20.10    0.50   1
  -1  -3   2   19.40    0.50   1
   1   3  -1    0.40    0.10   1
  -1  -3   1    0.60    0.10   1
   1   3   0  239.90    4.50   1
  -1  -3   0  250.80    4.70   1
   1   3   1   64.40    1.20   1
  -1  -3  -1   64.70    1.40   1
   1   3   2  130.00    2.50   1
  -1  -3  -2  134.60    2.60   1
   1   3   3   71.00    1.50   1
  -1  -3  -3   72.50    1.90   1
   1   3   4    0.30    0.10   1
  -1  -3  -4    0.30    0.20   1
   1   3   5    0.10    0.10   1
  -1  -3  -5    0.00    0.10   1
   1   3   6   12.80    0.40   1
  -1  -3  -6   12.80    0.50   1
   1   3   7    0.50    0.10   1
  -1  -3  -7    0.00    0.20   1
   1   3   8    4.10    0.30   1
  -1  -3  -8    4.50    0.40   1
   1   3   9    7.30    0.40   1
  -1  -3  -9    7.70    0.50   1
   1   3  10    7.40    0.60   1
  -1  -3 -10    8.60    0.60   1
   1   3  11    0.50    0.40   1
  -1  -3 -11    0.50    0.40   1
   1   3  12    8.30    0.60   1
  -1  -3 -12    9.20    0.70   1
   1   3  13    0.80    0.40   1
  -1  -3 -13    0.20    0.40   1
   1   3  14   10.60    0.80   1
  -1  -3 -14    9.20    0.80   1
   1   3  15    4.50    0.80   1
  -1  -3 -15    4.80    0.60   1
   1   3  16    2.60    0.70   1
  -1  -3 -16    1.80    0.60   1
   1   3  17    3.70    0.80   1
  -1  -3 -17    5.10    0.80   1
   1   3  18    2.20    0.90   1
  -1  -3 -18    6.60    1.00   1
   1   3  19    4.10    1.10   1
  -1  -3 -19    4.00    1.10   1
   1   4 -20    0.40    1.20   1
  -1  -4  20    2.50    1.70   1
   1   4 -19    2.30    0.90   1
  -1  -4  19   -0.80    1.20   1
   1   4 -18    4.60    0.90   1
  -1  -4  18    2.80    1.20   1
   1   4 -17    8.50    0.90   1
  -1  -4  17    6.80    1.40   1
   1   4 -16    6.40    0.90   1
  -1  -4  16    6.00    1.20   1
   1   4 -15    3.80    0.70   1
  -1  -4  15    3.60    0.60   1
   1   4 -14    0.80    0.70   1
  -1  -4  14    0.90    0.50   1
   1   4 -13    0.10    0.50   1
  -1  -4  13   -0.10    0.30   1
   1   4 -12    1.80    0.50   1
  -1  -4  12    2.50    0.30   1
   1   4 -11    9.40    0.80   1
  -1  -4  11    8.00    0.50   1
   1   4 -10    5.80    0.70   1
  -1  -4  10    6.00    0.30   1
   1   4  -9   53.90    3.00   1
  -1  -4   9   56.10    1.30   1
   1   4  -8    3.40    0.60   1
  -1  -4   8    2.30    0.20   1
   1   4  -7    6.00    0.50   1
  -1  -4   7    7.00    0.30   1
   1   4  -6    7.50    0.50   1
  -1  -4   6    7.60    0.40   1
   1   4  -5   56.10    2.00   1
  -1  -4   5   57.70    1.40   1
   1   4  -4    5.70    0.30   1
  -1  -4   4    6.50    0.30   1
   1   4  -3   30.00    0.90   1
  -1  -4   3   31.70    0.70   1
   1   4  -2   31.80    0.80   1
  -1  -4   2   35.00    0.80   1
   1   4  -1   30.40    0.80   1
  -1  -4   1   32.60    0.80   1
   1   4   0    0.80    0.10   1
  -1  -4   0    0.80    0.20   1
   1   4   1   13.50    0.40   1
  -1  -4  -1   13.40    0.50   1
   1   4   2    0.40    0.20   1
  -1  -4  -2    0.20    0.20   1
   1   4   3    0.90    0.20   1
  -1  -4  -3    0.90    0.20   1
   1   4   4   12.90    0.50   1
  -1  -4  -4   13.60    0.60   1
   1   4   5    7.30    0.30   1
  -1  -4  -5    7.30    0.50   1
   1   4   6    8.50    0.40   1
  -1  -4  -6    7.80    0.50   1
   1   4   7    0.10    0.20   1
  -1  -4  -7    0.20    0.20   1
   1   4   8    2.00    0.20   1
  -1  -4  -8    2.10    0.40   1
   1   4   9    2.00    0.40   1
  -1  -4  -9    2.40    0.70   1
   1   4  10    2.10    0.50   1
  -1  -4 -10    1.50    0.40   1
   1   4  11   14.10    0.80   1
  -1  -4 -11   15.00    0.80   1
   1   4  12    2.30    0.60   1
  -1  -4 -12    1.90    0.50   1
   1   4  13   51.50    2.50   1
  -1  -4 -13   62.00    2.60   1
   1   4  14    8.70    1.00   1
  -1  -4 -14   11.50    0.90   1
   1   4  15    0.70    0.70   1
  -1  -4 -15    0.80    0.50   1
   1   4  16    0.60    0.80   1
  -1  -4 -16    0.10    0.70   1
   1   4  17   19.70    1.40   1
  -1  -4 -17   25.40    2.50   1
   1   4  18   14.40    1.50   1
  -1  -4 -18   18.40    2.20   1
   1   5 -18    0.20    1.00   1
  -1  -5  18    0.40    1.30   1
   1   5 -17    0.90    0.90   1
  -1  -5  17    0.40    1.10   1
   1   5 -16   -0.30    0.70   1
  -1  -5  16    0.10    1.20   1
   1   5 -15    2.40    0.70   1
  -1  -5  15    1.50    0.70   1
   1   5 -14   -0.30    0.50   1
  -1  -5  14    1.20    0.50   1
   1   5 -13    3.60    0.60   1
  -1  -5  13    3.20    0.40   1
   1   5 -12    1.30    0.60   1
  -1  -5  12    0.60    0.40   1
   1   5 -11   -0.10    0.50   1
  -1  -5  11   -0.50    0.30   1
   1   5 -10    1.00    0.40   1
  -1  -5  10    0.80    0.30   1
   1   5  -9    7.80    0.70   1
  -1  -5   9    8.70    0.50   1
   1   5  -8   70.40    3.30   1
  -1  -5   8   73.40    2.20   1
   1   5  -7    0.40    0.30   1
  -1  -5   7    0.50    0.30   1
   1   5  -6    0.00    0.30   1
  -1  -5   6    0.30    0.20   1
   1   5  -5   35.20    1.60   1
  -1  -5   5   36.40    1.00   1
   1   5  -4   32.70    1.70   1
  -1  -5   4   34.70    0.90   1
   1   5  -3    7.20    0.50   1
  -1  -5   3    7.60    0.40   1
   1   5  -2    4.70    0.40   1
  -1  -5   2    5.40    0.40   1
   1   5  -1   22.00    0.80   1
  -1  -5   1   24.40    0.80   1
   1   5   0  132.30    4.30   1
  -1  -5   0  133.50    4.00   1
   1   5   1    0.00    0.20   1
  -1  -5  -1    0.50    0.40   1
   1   5   2   19.90    0.60   1
  -1  -5  -2   20.20    0.90   1
   1   5   3    6.50    0.30   1
  -1  -5  -3    7.60    0.60   1
   1   5   4    1.10    0.20   1
  -1  -5  -4    1.50    0.40   1
   1   5   5   13.20    0.50   1
  -1  -5  -5   14.40    0.80   1
   1   5   6   47.50    1.40   1
  -1  -5  -6   47.90    2.00   1
   1   5   7    5.30    0.50   1
  -1  -5  -7    5.90    0.60   1
   1   5   8    7.60    0.40   1
  -1  -5  -8    8.50    0.70   1
   1   5   9    0.10    0.50   1
  -1  -5  -9    0.20    0.50   1
   1   5  10    0.60    0.60   1
  -1  -5 -10    0.50    0.60   1
   1   5  11    2.10    0.60   1
  -1  -5 -11    2.60    0.60   1
   1   5  12    0.40    0.90   1
  -1  -5 -12    0.60    0.60   1
   1   5  13    2.30    0.80   1
  -1  -5 -13    4.00    1.00   1
   1   5  14   12.10    1.70   1
  -1  -5 -14   16.40    1.70   1
   1   5  15    3.60    0.90   1
  -1  -5 -15    5.00    1.20   1
   1   5  16    0.70    1.00   1
  -1  -5 -16    0.50    1.20   1
   1   5  17    0.40    1.50   1
  -1  -5 -17    1.40    1.50   1
   1   6 -16    3.90    1.40   1
  -1  -6  16    1.40    0.90   1
   1   6 -15    8.40    1.20   1
  -1  -6  15    7.80    0.90   1
   1   6 -14   13.90    1.30   1
  -1  -6  14   14.60    1.10   1
   1   6 -13   15.60    1.30   1
  -1  -6  13   12.70    0.90   1
   1   6 -12    4.90    0.80   1
  -1  -6  12    4.60    0.70   1
   1   6 -11   -0.50    0.60   1
  -1  -6  11    0.40    0.60   1
   1   6 -10    2.60    0.60   1
  -1  -6  10    2.70    0.40   1
   1   6  -9    1.00    0.60   1
  -1  -6   9   -0.50    0.40   1
   1   6  -8    0.70    0.50   1
  -1  -6   8    0.60    0.40   1
   1   6  -7    1.30    0.50   1
  -1  -6   7    1.60    0.50   1
   1   6  -6    0.60    0.40   1
  -1  -6   6    0.60    0.40   1
   1   6  -5    1.40    0.40   1
  -1  -6   5   -0.30    0.40   1
   1   6  -4   13.30    0.80   1
  -1  -6   4   13.30    0.70   1
   1   6  -3   10.90    0.70   1
  -1  -6   3   10.30    0.60   1
   1   6  -2    1.10    0.40   1
  -1  -6   2    0.60    0.40   1
   1   6  -1    2.60    0.30   1
  -1  -6   1    3.60    0.60   1
   1   6   0    1.30    0.30   1
  -1  -6   0    1.00    0.50   1
   1   6   1    9.00    0.40   1
  -1  -6  -1    9.00    0.70   1
   1   6   2    7.10    0.40   1
  -1  -6  -2    6.70    0.60   1
   1   6   3   22.60    1.20   1
  -1  -6  -3   25.80    1.30   1
   1   6   4   -0.10    0.40   1
  -1  -6  -4    1.60    0.50   1
   1   6   5   18.80    1.00   1
  -1  -6  -5   22.50    1.30   1
   1   6   6   10.90    0.70   1
  -1  -6  -6   14.40    0.90   1
   1   6   7   25.40    1.50   1
  -1  -6  -7   31.00    1.60   1
   1   6   8   10.10    0.90   1
  -1  -6  -8   16.90    1.00   1
   1   6   9    2.10    0.80   1
  -1  -6  -9    2.80    0.70   1
   1   6  10    5.00    0.90   1
  -1  -6 -10    5.70    0.70   1
   1   6  11   12.60    1.10   1
  -1  -6 -11   15.00    1.10   1
   1   6  12    0.60    0.90   1
  -1  -6 -12   -0.40    0.80   1
   1   6  13    1.70    1.00   1
  -1  -6 -13    2.80    0.90   1
   1   6  14    3.30    1.20   1
  -1  -6 -14    0.10    0.90   1
  -1  -7  14    4.70    1.70   1
   1   7 -13    7.50    1.60   1
  -1  -7  13    5.10    0.80   1
   1   7 -12   -1.20    1.40   1
  -1  -7  12    0.90    0.80   1
   1   7 -11    4.00    1.70   1
  -1  -7  11    3.10    0.80   1
   1   7 -10    2.20    1.20   1
  -1  -7  10    1.20    0.70   1
  -1  -7   9    5.20    0.70   1
   1   7  -8    0.10    1.10   1
  -1  -7   8    0.70    0.60   1
   1   7  -7    0.80    1.10   1
  -1  -7   7    1.50    0.60   1
   1   7  -6    1.20    1.00   1
  -1  -7   6   -0.30    0.50   1
   1   7  -5    2.70    0.90   1
  -1  -7   5    3.00    0.60   1
   1   7  -4   -0.40    3.80   1
  -1  -7   4    7.40    0.70   1
   1   7  -3   11.30    1.50   1
  -1  -7   3   11.30    0.70   1
   1   7  -2    0.40    0.70   1
  -1  -7   2    0.20    0.60   1
   1   7  -1    9.60    1.20   1
  -1  -7   1    9.50    0.90   1
   1   7   0   12.80    0.90   1
  -1  -7   0   14.00    1.00   1
   1   7   1    3.40    0.60   1
  -1  -7  -1    4.40    0.80   1
   1   7   2   10.30    0.90   1
  -1  -7  -2   11.20    1.00   1
   1   7   3    3.80    0.60   1
  -1  -7  -3    3.40    0.80   1
   1   7   4   15.60    1.40   1
  -1  -7  -4   15.00    1.10   1
   1   7   5    0.60    0.90   1
  -1  -7  -5    1.50    0.70   1
   1   7   6    6.90    1.40   1
  -1  -7  -6    9.10    1.00   1
   1   7   7    2.80    1.40   1
  -1  -7  -7    2.10    0.90   1
   1   7   8    3.60    1.00   1
  -1  -7  -8    5.90    0.90   1
   1   7   9   -0.20    0.90   1
  -1  -7  -9   -0.60    1.00   1
   1   7  10    1.30    0.90   1
  -1  -7 -10    0.70    1.00   1
   1   7  11    0.20    1.00   1
  -1  -7 -11    0.10    1.00   1
   1   8 -10    0.00    1.40   1
  -1  -8  10    0.80    1.30   1
   1   8  -9   -0.10    1.70   1
  -1  -8   9    0.40    1.10   1
   1   8  -8    1.20    1.80   1
  -1  -8   8    1.60    0.80   1
   1   8  -7   -0.20    1.40   1
  -1  -8   7   -1.10    0.80   1
   1   8  -6    0.10    1.30   1
  -1  -8   6    0.20    0.70   1
   1   8  -5   -0.40    1.10   1
  -1  -8   5    0.90    0.80   1
   1   8  -4    4.70    1.80   1
  -1  -8   4    4.60    0.80   1
   1   8  -3    6.30    1.50   1
  -1  -8   3    7.40    0.80   1
   1   8  -2   11.60    1.70   1
  -1  -8   2   13.50    1.10   1
   1   8  -1   21.90    1.90   1
  -1  -8   1   26.20    1.40   1
   1   8   0    2.50    1.10   1
  -1  -8   0    1.60    1.00   1
   1   8   1    0.00    0.80   1
  -1  -8  -1    1.30    0.90   1
   1   8   2   10.90    1.20   1
  -1  -8  -2   13.00    1.30   1
   1   8   3    7.70    1.60   1
  -1  -8  -3    9.10    1.20   1
   1   8   4   -1.50    1.00   1
  -1  -8  -4   -0.30    0.90   1
   1   8   5    1.20    1.20   1
  -1  -8  -5    1.80    1.00   1
   1   8   6   -1.30    1.70   1
  -1  -8  -6    1.50    1.10   1
   1   8   7    0.00    1.50   1
  -1  -8  -7    1.80    1.20   1
   2  -9  -5    1.60    1.40   1
  -2   9   5    0.90    1.50   1
   2  -9  -4   -0.30    1.50   1
  -2   9   4   -3.90    5.80   1
   2  -9  -3   -0.10    1.70   1
  -2   9   3   -5.90    5.60   1
   2  -9  -2   -0.30    1.20   1
  -2   9   2    0.30    0.90   1
   2  -9  -1    2.90    1.30   1
  -2   9   1    2.00    1.00   1
   2  -9   0   -0.80    1.40   1
  -2   9   0    0.10    1.00   1
   2  -9   1    7.40    1.80   1
  -2   9  -1    9.10    1.20   1
   2  -9   2    3.20    1.30   1
  -2   9  -2   -0.30    1.00   1
   2  -9   3    7.30    1.30   1
  -2   9  -3    5.20    1.00   1
   2  -9   4   -0.40    1.40   1
  -2   9  -4    0.40    1.00   1
   2  -9   5    0.30    1.40   1
  -2   9  -5   -0.80    0.80   1
   2  -9   6    1.80    1.80   1
  -2   9  -6    0.00    1.00   1
   2  -9   7    0.30    1.90   1
  -2   9  -7    0.80    1.10   1
   2  -8 -10    2.00    1.10   1
  -2   8  10   -1.40    1.30   1
   2  -8  -9    6.00    1.00   1
  -2   8   9    7.20    1.90   1
   2  -8  -8    0.90    0.90   1
  -2   8   8   -1.10    1.40   1
   2  -8  -7    1.20    0.90   1
  -2   8   7    0.40    1.30   1
   2  -8  -6    0.50    0.70   1
  -2   8   6    1.50    1.10   1
   2  -8  -5    1.70    0.60   1
  -2   8   5   -0.50    0.60   1
   2  -8  -4    6.40    0.90   1
  -2   8   4    8.80    0.80   1
   2  -8  -3    0.70    0.70   1
  -2   8   3    1.60    0.70   1
   2  -8  -2    4.80    1.20   1
  -2   8   2    3.20    0.80   1
   2  -8  -1   -0.90    1.00   1
  -2   8   1   -0.60    0.70   1
   2  -8   0    8.40    1.40   1
  -2   8   0   11.60    1.10   1
   2  -8   1   13.30    1.50   1
  -2   8  -1   11.60    1.10   1
   2  -8   2   28.60    2.20   1
  -2   8  -2   26.00    1.60   1
   2  -8   3    6.00    1.40   1
  -2   8  -3    6.80    1.00   1
   2  -8   4    5.60    1.30   1
  -2   8  -4    5.80    0.90   1
   2  -8   5   -0.20    1.10   1
  -2   8  -5    1.40    0.80   1
   2  -8   6    2.50    1.30   1
  -2   8  -6    3.40    0.90   1
   2  -8   7   -0.10    1.40   1
  -2   8  -7    0.70    0.70   1
   2  -8   8    2.60    1.20   1
  -2   8  -8    1.60    0.80   1
   2  -8   9    3.10    1.20   1
  -2   8  -9    2.70    1.00   1
   2  -8  10    2.80    1.30   1
  -2   8 -10    2.50    1.00   1
   2  -8  11   -0.60    1.30   1
  -2   8 -11    0.20    0.90   1
   2  -8  12    1.00    1.10   1
  -2   8 -12    1.10    1.10   1
   2  -7 -14    2.80    1.40   1
  -2   7  14    2.70    1.60   1
   2  -7 -13    4.60    1.30   1
  -2   7  13    0.00    1.30   1
   2  -7 -12    2.00    1.50   1
  -2   7  12   -0.90    1.40   1
   2  -7 -11    2.30    1.30   1
  -2   7  11    3.60    1.40   1
   2  -7 -10    3.80    1.20   1
  -2   7  10    2.60    1.20   1
   2  -7  -9   10.70    0.90   1
  -2   7   9   13.90    1.60   1
   2  -7  -8   11.10    1.00   1
  -2   7   8   12.60    1.50   1
   2  -7  -7    3.20    0.70   1
  -2   7   7    3.90    0.60   1
   2  -7  -6   10.10    1.10   1
  -2   7   6   11.60    0.70   1
   2  -7  -5    6.50    0.60   1
  -2   7   5    6.90    0.60   1
   2  -7  -4    0.80    0.50   1
  -2   7   4    1.00    0.50   1
   2  -7  -3    1.60    0.50   1
  -2   7   3    2.20    0.50   1
   2  -7  -2   16.70    1.00   1
  -2   7   2   15.60    0.90   1
   2  -7  -1   19.20    1.00   1
  -2   7   1   20.10    1.10   1
   2  -7   0    3.00    0.60   1
  -2   7   0    3.10    0.60   1
   2  -7   1    8.50    0.60   1
  -2   7  -1    7.30    0.80   1
   2  -7   2    1.00    0.50   1
  -2   7  -2   -0.20    0.50   1
   2  -7   3    0.20    0.30   1
  -2   7  -3    0.10    0.50   1
   2  -7   4    3.80    1.10   1
  -2   7  -4    4.20    0.70   1
   2  -7   5    4.40    1.00   1
  -2   7  -5    3.00    0.50   1
   2  -7   6    0.00    0.80   1
  -2   7  -6    0.10    0.30   1
   2  -7   7   12.10    1.30   1
  -2   7  -7    9.90    0.80   1
   2  -7   8    0.10    0.90   1
  -2   7  -8    0.10    0.40   1
   2  -7   9    2.40    1.30   1
  -2   7  -9    1.00    0.50   1
   2  -7  10    2.80    1.00   1
  -2   7 -10    3.00    0.60   1
   2  -7  11    0.30    0.60   1
  -2   7 -11    0.60    0.60   1
   2  -7  12    1.10    0.70   1
  -2   7 -12    0.90    0.60   1
   2  -7  13    0.50    0.90   1
  -2   7 -13    2.00    0.70   1
   2  -7  14    2.00    0.90   1
  -2   7 -14    1.50    0.70   1
   2  -7  15    7.40    1.30   1
  -2   7 -15    6.60    1.00   1
   2  -6 -16    0.30    1.20   1
  -2   6  16   -1.50    1.10   1
   2  -6 -15    0.20    1.20   1
  -2   6  15    1.00    0.90   1
   2  -6 -14    0.20    1.30   1
  -2   6  14   -0.10    0.90   1
   2  -6 -13    3.10    1.20   1
  -2   6  13    2.60    0.90   1
   2  -6 -12    0.50    0.90   1
  -2   6  12    1.00    0.80   1
   2  -6 -11    3.10    0.80   1
  -2   6  11    0.90    1.00   1
   2  -6 -10    9.40    1.50   1
  -2   6  10    9.80    1.20   1
   2  -6  -9   68.60    3.80   1
  -2   6   9   67.20    2.30   1
   2  -6  -8   32.20    2.00   1
  -2   6   8   28.20    1.10   1
   2  -6  -7   24.10    1.30   1
  -2   6   7   25.60    1.00   1
   2  -6  -6   35.80    2.10   1
  -2   6   6   34.00    1.10   1
   2  -6  -5   -0.60    0.40   1
  -2   6   5    0.20    0.40   1
   2  -6  -4   15.90    0.80   1
  -2   6   4   15.20    0.60   1
   2  -6  -3   15.10    0.70   1
  -2   6   3   15.90    0.70   1
   2  -6  -2   21.90    1.00   1
  -2   6   2   23.20    1.00   1
   2  -6  -1    2.80    0.40   1
  -2   6   1    1.90    0.40   1
   2  -6   0    7.40    0.60   1
  -2   6   0    8.10    0.60   1
   2  -6   1   16.80    0.90   1
  -2   6  -1   19.50    1.00   1
   2  -6   2   24.40    1.10   1
  -2   6  -2   26.20    1.30   1
   2  -6   3    6.20    0.40   1
  -2   6  -3    6.90    0.40   1
   2  -6   4   44.90    1.40   1
  -2   6  -4   48.80    1.50   1
   2  -6   5    0.40    0.30   1
  -2   6  -5    0.30    0.30   1
   2  -6   6    2.00    0.30   1
  -2   6  -6    2.70    0.40   1
   2  -6   7    5.70    0.40   1
  -2   6  -7    7.80    0.50   1
   2  -6   8   20.20    0.90   1
  -2   6  -8   22.90    1.10   1
   2  -6   9    3.40    0.80   1
  -2   6  -9    2.60    0.60   1
   2  -6  10    2.60    0.70   1
  -2   6 -10    2.50    0.50   1
   2  -6  11    1.80    0.50   1
  -2   6 -11    2.30    0.60   1
   2  -6  12   22.00    1.10   1
  -2   6 -12   18.30    1.00   1
   2  -6  13    3.80    0.60   1
  -2   6 -13    2.60    0.60   1
   2  -6  14    7.90    1.00   1
  -2   6 -14    7.20    0.80   1
   2  -6  15    3.00    1.00   1
  -2   6 -15    3.10    0.60   1
   2  -6  16    0.90    1.10   1
  -2   6 -16   -0.20    0.70   1
   2  -6  17    0.00    1.40   1
  -2   6 -17    0.00    1.00   1
   2  -5 -18    6.60    1.40   1
  -2   5  18    6.90    1.30   1
   2  -5 -17   -1.30    1.20   1
  -2   5  17   -1.90    0.90   1
   2  -5 -16   21.20    2.10   1
  -2   5  16   18.80    1.80   1
   2  -5 -15   -0.70    1.10   1
  -2   5  15   -1.50    0.80   1
   2  -5 -14    2.80    0.80   1
  -2   5  14    1.40    0.80   1
   2  -5 -13    0.80    0.80   1
  -2   5  13    0.10    0.80   1
   2  -5 -12    7.00    1.10   1
  -2   5  12    7.80    1.00   1
   2  -5 -11   31.80    1.40   1
  -2   5  11   32.40    1.80   1
   2  -5 -10   91.80    3.30   1
  -2   5  10   93.80    2.40   1
   2  -5  -9  109.10    3.90   1
  -2   5   9  111.80    3.30   1
   2  -5  -8    7.70    0.50   1
  -2   5   8    9.30    0.70   1
   2  -5  -7   10.20    0.50   1
  -2   5   7   13.10    0.60   1
   2  -5  -6    5.30    0.30   1
  -2   5   6    5.80    0.40   1
   2  -5  -5    4.00    0.20   1
  -2   5   5    4.80    0.40   1
   2  -5  -4    0.50    0.40   1
  -2   5   4    0.50    0.30   1
   2  -5  -3    1.30    0.40   1
  -2   5   3    2.10    0.30   1
   2  -5  -2   37.20    1.00   1
  -2   5   2   38.50    1.00   1
   2  -5  -1    9.00    0.40   1
  -2   5   1    9.60    0.50   1
   2  -5   0   37.40    0.90   1
  -2   5   0   38.10    1.20   1
   2  -5   1    2.70    0.20   1
  -2   5  -1    2.50    0.30   1
   2  -5   2    1.30    0.20   1
  -2   5  -2    1.70    0.20   1
   2  -5   3    0.60    0.10   1
  -2   5  -3    0.90    0.20   1
   2  -5   4    5.50    0.30   1
  -2   5  -4    5.80    0.30   1
   2  -5   5    4.70    0.20   1
  -2   5  -5    6.20    0.40   1
   2  -5   6   11.40    0.40   1
  -2   5  -6   13.50    0.50   1
   2  -5   7   71.50    2.10   1
  -2   5  -7   74.50    1.90   1
   2  -5   8   31.20    1.30   1
  -2   5  -8   33.40    1.10   1
   2  -5   9    1.60    0.30   1
  -2   5  -9    1.60    0.30   1
   2  -5  10    1.20    0.30   1
  -2   5 -10    1.00    0.50   1
   2  -5  11    4.30    0.30   1
  -2   5 -11    3.70    0.50   1
   2  -5  12    4.30    0.40   1
  -2   5 -12    4.50    0.50   1
   2  -5  13   15.10    0.80   1
  -2   5 -13   15.40    0.80   1
   2  -5  14   -0.40    0.50   1
  -2   5 -14    0.70    0.50   1
   2  -5  15    2.80    1.10   1
  -2   5 -15    1.90    0.60   1
   2  -5  16    3.10    1.10   1
  -2   5 -16    3.20    0.70   1
   2  -5  17    0.80    1.20   1
  -2   5 -17    1.10    0.70   1
  -2   5 -18   -0.20    0.80   1
  -2   5 -19    5.80    1.00   1
   2  -4 -19    1.50    1.20   1
  -2   4  19    0.50    1.50   1
   2  -4 -18    9.20    1.10   1
  -2   4  18   11.20    1.70   1
   2  -4 -17   10.90    1.00   1
  -2   4  17   11.50    1.50   1
   2  -4 -16    1.60    0.60   1
  -2   4  16    0.00    1.10   1
   2  -4 -15    8.50    0.80   1
  -2   4  15    8.60    1.00   1
   2  -4 -14    3.10    0.50   1
  -2   4  14    3.80    0.70   1
   2  -4 -13   38.00    1.60   1
  -2   4  13   35.20    1.50   1
   2  -4 -12    0.20    0.40   1
  -2   4  12    0.70    0.50   1
   2  -4 -11   12.30    0.70   1
  -2   4  11   12.70    0.80   1
   2  -4 -10    3.80    0.30   1
  -2   4  10    4.50    0.50   1
   2  -4  -9   12.90    0.50   1
  -2   4   9   15.50    0.60   1
   2  -4  -8   27.10    0.70   1
  -2   4   8   26.40    1.10   1
   2  -4  -7    4.40    0.30   1
  -2   4   7    4.90    0.30   1
   2  -4  -6    2.90    0.20   1
  -2   4   6    3.50    0.30   1
   2  -4  -5   10.10    0.30   1
  -2   4   5   11.40    0.60   1
   2  -4  -4    1.30    0.10   1
  -2   4   4    1.90    0.20   1
   2  -4  -3   30.20    0.80   1
  -2   4   3   29.90    0.80   1
   2  -4  -2    0.90    0.10   1
  -2   4   2    0.90    0.20   1
   2  -4  -1    2.30    0.20   1
  -2   4   1    2.80    0.20   1
   2  -4   0    2.00    0.20   1
  -2   4   0    2.20    0.20   1
   2  -4   1   46.60    1.00   1
  -2   4  -1   48.90    1.10   1
   2  -4   2   15.10    0.40   1
  -2   4  -2   15.60    0.40   1
   2  -4   3  523.00    9.40   1
  -2   4  -3  518.70    9.10   1
   2  -4   4  597.20   11.80   1
  -2   4  -4  587.60   11.30   1
   2  -4   5  240.50    4.80   1
  -2   4  -5  240.90    4.00   1
   2  -4   6   19.30    0.60   1
  -2   4  -6   20.50    0.50   1
   2  -4   7    0.00    0.20   1
  -2   4  -7    0.70    0.20   1
   2  -4   8   43.50    1.10   1
  -2   4  -8   43.70    1.10   1
   2  -4   9    6.00    0.30   1
  -2   4  -9    6.10    0.30   1
   2  -4  10    5.00    0.30   1
  -2   4 -10    5.50    0.30   1
   2  -4  11    0.50    0.20   1
  -2   4 -11    0.20    0.20   1
   2  -4  12    1.40    0.30   1
  -2   4 -12    0.80    0.40   1
   2  -4  13    1.00    0.40   1
  -2   4 -13    0.70    0.40   1
   2  -4  14   13.40    1.20   1
  -2   4 -14   12.70    0.80   1
   2  -4  15    2.60    0.80   1
  -2   4 -15    1.10    0.50   1
   2  -4  16    4.70    1.20   1
  -2   4 -16    4.60    0.70   1
   2  -4  17    2.10    1.10   1
  -2   4 -17    2.40    0.60   1
   2  -4  18    2.50    1.20   1
  -2   4 -18    4.80    0.80   1
   2  -4  19   -0.20    1.20   1
  -2   4 -19   -0.10    0.70   1
   2  -4  20    0.50    1.70   1
  -2   4 -20    0.10    0.90   1
   2  -3 -20    4.90    0.90   1
  -2   3  20    5.40    1.10   1
   2  -3 -19    4.50    0.80   1
  -2   3  19    4.70    1.10   1
   2  -3 -18   48.60    3.00   1
  -2   3  18   41.30    3.30   1
   2  -3 -17    1.50    0.60   1
  -2   3  17    0.10    0.80   1
   2  -3 -16   30.30    1.80   1
  -2   3  16   30.60    1.50   1
   2  -3 -15    3.40    0.60   1
  -2   3  15    2.90    0.70   1
   2  -3 -14   27.50    1.20   1
  -2   3  14   23.60    1.20   1
   2  -3 -13    2.70    0.50   1
  -2   3  13    2.00    0.70   1
   2  -3 -12   26.60    1.00   1
  -2   3  12   24.30    1.10   1
   2  -3 -11   18.40    0.60   1
  -2   3  11   18.00    0.80   1
   2  -3 -10   96.80    2.10   1
  -2   3  10   97.90    3.10   1
   2  -3  -9    4.20    0.20   1
  -2   3   9    4.80    0.40   1
   2  -3  -8    0.20    0.20   1
  -2   3   8    0.20    0.20   1
   2  -3  -7    0.60    0.20   1
  -2   3   7    0.90    0.30   1
   2  -3  -6    4.50    0.20   1
  -2   3   6    5.00    0.30   1
   2  -3  -5    9.20    0.20   1
  -2   3   5    9.70    0.30   1
   2  -3  -4   11.30    0.30   1
  -2   3   4   11.70    0.40   1
   2  -3  -3    3.60    0.10   1
  -2   3   3    3.20    0.20   1
   2  -3  -2   11.80    0.30   1
  -2   3   2   11.80    0.30   1
   2  -3  -1   11.70    0.30   1
  -2   3   1   11.60    0.30   1
   2  -3   0  125.60    2.00   1
  -2   3   0  122.70    2.40   1
   2  -3   1   89.70    1.70   1
  -2   3  -1   87.80    1.80   1
   2  -3   2    9.30    0.20   1
  -2   3  -2   10.30    0.30   1
   2  -3   3  162.20    3.10   1
  -2   3  -3  159.90    3.00   1
   2  -3   4   75.50    1.50   1
  -2   3  -4   75.20    1.30   1
   2  -3   5   78.60    1.50   1
  -2   3  -5   77.10    1.30   1
   2  -3   6    2.50    0.20   1
  -2   3  -6    2.70    0.10   1
   2  -3   7    0.30    0.20   1
  -2   3  -7    0.10    0.10   1
   2  -3   8    1.20    0.20   1
  -2   3  -8    1.00    0.10   1
   2  -3   9   17.30    0.60   1
  -2   3  -9   17.30    0.50   1
   2  -3  10   46.20    1.60   1
  -2   3 -10   48.20    1.20   1
   2  -3  11   25.10    1.00   1
  -2   3 -11   25.70    0.80   1
   2  -3  12   14.90    0.80   1
  -2   3 -12   13.50    0.60   1
   2  -3  13    2.10    0.40   1
  -2   3 -13    1.50    0.40   1
   2  -3  14   -0.10    0.40   1
  -2   3 -14    0.30    0.40   1
   2  -3  15    1.60    0.80   1
  -2   3 -15    0.50    0.40   1
   2  -3  16    6.60    1.00   1
  -2   3 -16    3.30    0.60   1
   2  -3  17    4.10    1.20   1
  -2   3 -17    4.20    0.60   1
   2  -3  18   26.30    2.30   1
  -2   3 -18   28.80    1.50   1
   2  -3  19   20.20    2.10   1
  -2   3 -19   24.20    1.30   1
   2  -3  20    1.30    7.00   1
  -2   3 -20    4.40    1.40   1
   2  -3  21    1.00    8.10   1
  -2   3 -21   -1.30    1.50   1
   2  -2 -21    4.70    1.10   1
  -2   2  21    3.90    1.10   1
   2  -2 -20    2.70    0.80   1
  -2   2  20    1.20    1.00   1
   2  -2 -19    4.40    0.90   1
  -2   2  19    5.80    0.90   1
   2  -2 -18    0.50    0.60   1
  -2   2  18    1.80    0.80   1
   2  -2 -17    4.20    0.90   1
  -2   2  17    3.70    0.70   1
   2  -2 -16    2.40    1.00   1
  -2   2  16    2.20    0.60   1
   2  -2 -15    5.30    1.00   1
  -2   2  15    4.50    0.60   1
   2  -2 -14    3.30    0.40   1
  -2   2  14    2.90    0.50   1
   2  -2 -13   32.20    1.50   1
  -2   2  13   33.70    1.70   1
   2  -2 -12    0.10    0.30   1
  -2   2  12    1.00    0.40   1
   2  -2 -11    0.50    0.20   1
  -2   2  11    0.20    0.40   1
   2  -2 -10    1.20    0.20   1
  -2   2  10    1.10    0.30   1
   2  -2  -9  145.70    2.70   1
  -2   2   9  147.70    4.50   1
   2  -2  -8    0.30    0.10   1
  -2   2   8    0.40    0.20   1
   2  -2  -7    4.80    0.20   1
  -2   2   7    4.80    0.30   1
   2  -2  -6   18.20    0.40   1
  -2   2   6   17.40    0.50   1
   2  -2  -5  200.40    2.60   1
  -2   2   5  195.00    3.60   1
   2  -2  -4   90.10    1.50   1
  -2   2   4   90.50    1.80   1
   2  -2  -3   49.50    0.70   1
  -2   2   3   47.60    0.90   1
   2  -2  -2   42.60    0.80   1
  -2   2   2   42.90    0.70   1
   2  -2  -1    8.00    0.20   1
  -2   2   1    7.60    0.20   1
   2  -2   0   14.40    0.30   1
  -2   2   0   14.10    0.40   1
   2  -2   1   51.10    0.80   1
  -2   2  -1   50.50    1.20   1
   2  -2   2    0.10    0.10   1
  -2   2  -2    0.20    0.10   1
   2  -2   3   94.60    1.90   1
  -2   2  -3   87.60    1.40   1
   2  -2   4    1.60    0.10   1
  -2   2  -4    1.80    0.10   1
   2  -2   5    5.70    0.20   1
  -2   2  -5    6.10    0.20   1
   2  -2   6    1.40    0.20   1
  -2   2  -6    1.50    0.10   1
   2  -2   7   61.00    1.40   1
  -2   2  -7   62.10    1.10   1
   2  -2   8    0.30    0.20   1
  -2   2  -8    0.30    0.10   1
   2  -2   9   92.30    3.20   1
  -2   2  -9   93.60    1.90   1
   2  -2  10   16.50    0.80   1
  -2   2 -10   15.50    0.40   1
   2  -2  11    1.00    0.30   1
  -2   2 -11    0.70    0.20   1
   2  -2  12   23.60    1.00   1
  -2   2 -12   22.30    0.80   1
   2  -2  13   13.80    1.00   1
  -2   2 -13   13.60    0.60   1
   2  -2  14    0.40    0.60   1
  -2   2 -14    0.00    0.40   1
   2  -2  15   26.30    2.10   1
  -2   2 -15   26.40    1.10   1
   2  -2  16   67.50    8.00   1
  -2   2 -16   75.10    2.50   1
   2  -2  17   27.30    2.10   1
  -2   2 -17   27.70    1.30   1
   2  -2  18    5.00    1.30   1
  -2   2 -18   10.10    1.60   1
   2  -2  19    1.00    1.20   1
  -2   2 -19    1.30    1.20   1
   2  -2  20    5.50    1.40   1
  -2   2 -20    7.80    1.50   1
   2  -2  21    0.20    1.30   1
  -2   2 -21   -0.90    1.60   1
   2  -1 -21    1.10    1.60   1
  -2   1  21    1.20    1.30   1
   2  -1 -20    2.10    1.40   1
  -2   1  20    2.00    0.90   1
   2  -1 -19    4.20    1.40   1
  -2   1  19    0.90    0.90   1
   2  -1 -18    5.90    1.30   1
  -2   1  18    4.40    0.70   1
   2  -1 -17    9.10    1.30   1
  -2   1  17    8.80    0.80   1
   2  -1 -16    0.70    0.40   1
  -2   1  16    0.50    0.50   1
   2  -1 -15    4.80    0.50   1
  -2   1  15    5.40    0.60   1
   2  -1 -14    4.70    0.30   1
  -2   1  14    6.10    0.60   1
   2  -1 -13   22.00    0.70   1
  -2   1  13   23.80    1.00   1
   2  -1 -12    4.00    0.20   1
  -2   1  12    4.80    0.40   1
   2  -1 -11   14.00    0.40   1
  -2   1  11   13.30    0.60   1
   2  -1 -10  108.10    2.10   1
  -2   1  10  106.70    2.80   1
   2  -1  -9   61.20    1.20   1
  -2   1   9   60.90    1.50   1
   2  -1  -8   80.80    1.20   1
  -2   1   8   80.40    2.10   1
   2  -1  -7   26.40    0.50   1
  -2   1   7   25.70    0.60   1
   2  -1  -6  210.70    2.70   1
  -2   1   6  207.20    3.90   1
   2  -1  -5   10.60    0.20   1
  -2   1   5   11.00    0.30   1
   2  -1  -4  145.40    1.90   1
  -2   1   4  145.80    2.50   1
   2  -1  -3   55.00    0.90   1
  -2   1   3   53.90    0.90   1
   2  -1  -2   43.00    0.70   1
  -2   1   2   43.90    0.90   1
   2  -1  -1    0.30    0.10   1
  -2   1   1    0.30    0.10   1
   2  -1   0  200.90    3.40   1
  -2   1   0  195.30    3.30   1
   2  -1   1  112.80    1.90   1
  -2   1  -1  110.50    1.80   1
   2  -1   2   23.70    0.50   1
  -2   1  -2   23.30    0.50   1
   2  -1   3    2.40    0.10   1
  -2   1  -3    2.30    0.10   1
   2  -1   4   56.50    1.00   1
  -2   1  -4   56.10    1.20   1
   2  -1   5    2.60    0.20   1
  -2   1  -5    2.50    0.10   1
   2  -1   6    7.10    0.30   1
  -2   1  -6    7.00    0.20   1
   2  -1   7    0.60    0.20   1
  -2   1  -7    0.40    0.10   1
   2  -1   8    0.40    0.20   1
  -2   1  -8    0.20    0.10   1
   2  -1   9   16.90    0.80   1
  -2   1  -9   16.70    0.40   1
   2  -1  10  114.30    3.20   1
  -2   1 -10  112.40    2.10   1
   2  -1  11   66.70    2.10   1
  -2   1 -11   67.10    1.40   1
   2  -1  12   19.90    0.80   1
  -2   1 -12   17.70    0.60   1
   2  -1  13    5.70    0.70   1
  -2   1 -13    4.10    0.30   1
   2  -1  14    1.20    0.70   1
  -2   1 -14    0.20    0.30   1
   2  -1  15   14.00    1.20   1
  -2   1 -15   13.90    0.70   1
   2  -1  16    1.30    0.90   1
  -2   1 -16    1.00    0.40   1
   2  -1  17    1.90    1.00   1
  -2   1 -17    0.30    0.90   1
   2  -1  18    5.20    0.90   1
  -2   1 -18    3.80    1.10   1
   2  -1  19   -0.30    0.70   1
  -2   1 -19   -2.20    1.00   1
   2  -1  20    3.00    1.00   1
  -2   1 -20    5.20    1.60   1
   2  -1  21    0.10    1.00   1
  -2   1 -21    0.10    1.40   1
   2   0 -21    0.90    1.20   1
  -2   0  21   -0.30    1.10   1
   2   0 -20    0.00    1.20   1
  -2   0  20    0.60    1.10   1
   2   0 -19    0.20    1.00   1
  -2   0  19    1.00    0.80   1
   2   0 -18    5.90    1.10   1
  -2   0  18    5.30    0.80   1
   2   0 -17    1.70    0.50   1
  -2   0  17    1.60    0.60   1
   2   0 -16   10.90    1.10   1
  -2   0  16   10.50    0.80   1
   2   0 -15    9.80    0.80   1
  -2   0  15   10.90    0.70   1
   2   0 -14    6.40    0.80   1
  -2   0  14    5.40    0.50   1
   2   0 -13    6.20    0.60   1
  -2   0  13    7.30    0.60   1
   2   0 -12   -0.20    0.30   1
  -2   0  12    0.10    0.20   1
   2   0 -11    0.30    0.10   1
  -2   0  11   -0.30    0.20   1
   2   0 -10    4.30    0.20   1
  -2   0  10    4.70    0.30   1
   2   0  -9   72.40    2.00   1
  -2   0   9   75.00    2.10   1
   2   0  -8   13.20    0.30   1
  -2   0   8   13.80    0.40   1
   2   0  -7  187.20    3.30   1
  -2   0   7  183.70    3.80   1
   2   0  -6    4.40    0.10   1
  -2   0   6    4.10    0.20   1
   2   0  -5    0.70    0.10   1
  -2   0   5    0.80    0.10   1
   2   0  -4   54.10    1.00   1
  -2   0   4   52.30    1.30   1
   2   0  -3   18.00    0.40   1
  -2   0   3   17.30    0.50   1
   2   0  -2    3.40    0.10   1
  -2   0   2    3.00    0.20   1
   2   0  -1   78.00    1.50   1
  -2   0   1   77.10    1.70   1
   2   0   0  238.10    4.30   1
  -2   0   0  232.50    6.20   1
   2   0   1    5.50    0.20   1
  -2   0  -1    5.00    0.20   1
   2   0   2   64.00    1.20   1
  -2   0  -2   61.40    1.10   1
   2   0   3   28.70    0.70   1
  -2   0  -3   28.20    0.50   1
   2   0   4    3.60    0.20   1
  -2   0  -4    3.50    0.10   1
   2   0   5   11.50    0.30   1
  -2   0  -5   11.20    0.30   1
   2   0   6   31.60    0.70   1
  -2   0  -6   30.50    0.60   1
   2   0   7  160.80    3.30   1
  -2   0  -7  156.40    2.80   1
   2   0   8   44.80    1.30   1
  -2   0  -8   46.10    0.90   1
   2   0   9    0.60    0.20   1
  -2   0  -9    0.10    0.20   1
   2   0  10    0.10    0.30   1
  -2   0 -10    0.10    0.20   1
   2   0  11    7.60    0.60   1
  -2   0 -11    6.20    0.30   1
   2   0  12    7.50    0.80   1
  -2   0 -12    6.90    0.30   1
   2   0  13   34.50    1.30   1
  -2   0 -13   33.60    1.00   1
   2   0  14    2.60    0.40   1
  -2   0 -14    2.00    0.30   1
   2   0  15   25.00    1.20   1
  -2   0 -15   27.00    1.30   1
   2   0  16    0.50    0.60   1
  -2   0 -16    0.00    0.70   1
   2   0  17    2.90    0.70   1
  -2   0 -17    2.00    1.10   1
   2   0  18    0.40    0.70   1
  -2   0 -18    1.10    0.90   1
   2   0  19   15.20    1.30   1
  -2   0 -19   17.80    1.90   1
   2   0  20    6.30    1.20   1
  -2   0 -20    5.30    1.60   1
   2   0  21    8.00    1.40   1
  -2   0 -21   10.00    2.00   1
   2   1 -21   10.40    1.80   1
  -2  -1  21   16.20    5.70   1
   2   1 -20    0.10    1.20   1
  -2  -1  20   -4.20    4.20   1
   2   1 -19   21.60    2.30   1
  -2  -1  19   18.70    1.10   1
   2   1 -18    2.80    0.70   1
  -2  -1  18    3.70    0.60   1
   2   1 -17    1.10    0.60   1
  -2  -1  17   -0.10    0.50   1
   2   1 -16   13.00    0.90   1
  -2  -1  16   13.30    0.70   1
   2   1 -15    3.70    0.50   1
  -2  -1  15    4.90    0.50   1
   2   1 -14    0.90    0.60   1
  -2  -1  14    0.40    0.40   1
   2   1 -13   18.40    0.90   1
  -2  -1  13   20.70    0.90   1
   2   1 -12    0.00    0.30   1
  -2  -1  12   -0.40    0.30   1
   2   1 -11   16.30    0.80   1
  -2  -1  11   17.40    0.80   1
   2   1 -10    7.70    0.30   1
  -2  -1  10    8.30    0.40   1
   2   1  -9    0.50    0.20   1
  -2  -1   9    0.80    0.10   1
   2   1  -8   21.20    0.50   1
  -2  -1   8   20.70    0.50   1
   2   1  -7   21.20    0.50   1
  -2  -1   7   20.10    0.60   1
   2   1  -6   77.40    1.50   1
  -2  -1   6   69.80    1.70   1
   2   1  -5   73.20    1.40   1
  -2  -1   5   71.90    1.60   1
   2   1  -4  100.70    2.10   1
  -2  -1   4   96.80    2.10   1
   2   1  -3    6.10    0.20   1
  -2  -1   3    6.10    0.20   1
   2   1  -2    4.70    0.20   1
  -2  -1   2    4.30    0.20   1
   2   1  -1   55.40    1.40   1
  -2  -1   1   54.30    1.30   1
   2   1   0  137.40    2.90   1
  -2  -1   0  135.80    2.90   1
   2   1   1   66.60    1.20   1
  -2  -1  -1   65.50    1.50   1
   2   1   2  511.50    9.50   1
  -2  -1  -2  492.10   12.40   1
   2   1   3    3.60    0.20   1
  -2  -1  -3    3.30    0.10   1
   2   1   4   80.00    1.70   1
  -2  -1  -4   79.30    1.40   1
   2   1   5   52.60    1.20   1
  -2  -1  -5   51.10    1.00   1
   2   1   6   30.80    0.70   1
  -2  -1  -6   30.30    0.70   1
   2   1   7    0.20    0.10   1
  -2  -1  -7    0.10    0.10   1
   2   1   8   57.90    1.40   1
  -2  -1  -8   56.20    1.20   1
   2   1   9    4.80    0.30   1
  -2  -1  -9    4.10    0.20   1
   2   1  10    5.80    0.50   1
  -2  -1 -10    5.30    0.30   1
   2   1  11    1.10    0.20   1
  -2  -1 -11    1.40    0.20   1
   2   1  12    1.30    0.20   1
  -2  -1 -12    0.80    0.20   1
   2   1  13    3.40    0.60   1
  -2  -1 -13    2.80    0.30   1
   2   1  14   -0.30    0.40   1
  -2  -1 -14    0.80    0.70   1
   2   1  15    1.00    0.60   1
  -2  -1 -15   -0.40    0.70   1
   2   1  16   23.10    1.00   1
  -2  -1 -16   25.70    1.90   1
   2   1  17    1.30    0.70   1
  -2  -1 -17    2.70    0.90   1
   2   1  18    4.90    0.90   1
  -2  -1 -18    5.50    0.70   1
   2   1  19    0.40    0.80   1
  -2  -1 -19   -0.40    0.80   1
   2   1  20    1.70    0.90   1
  -2  -1 -20    0.80    0.90   1
   2   2 -21    3.20    1.40   1
  -2  -2  21    2.50    1.70   1
   2   2 -20    2.10    1.00   1
  -2  -2  20    2.90    1.30   1
   2   2 -19    5.10    0.90   1
  -2  -2  19    4.20    1.50   1
   2   2 -18    8.50    0.90   1
  -2  -2  18    8.00    1.30   1
   2   2 -17    0.70    0.60   1
  -2  -2  17    2.00    0.50   1
   2   2 -16   17.30    1.70   1
  -2  -2  16   18.40    0.90   1
   2   2 -15    5.30    0.70   1
  -2  -2  15    4.70    0.40   1
   2   2 -14   10.00    0.80   1
  -2  -2  14    9.80    0.50   1
   2   2 -13    0.50    0.50   1
  -2  -2  13    0.20    0.30   1
   2   2 -12   14.40    1.00   1
  -2  -2  12   14.30    0.60   1
   2   2 -11    3.10    0.60   1
  -2  -2  11    3.70    0.20   1
   2   2 -10   70.00    2.80   1
  -2  -2  10   68.00    1.70   1
   2   2  -9    0.00    0.20   1
  -2  -2   9   -0.10    0.20   1
   2   2  -8   29.70    1.00   1
  -2  -2   8   28.10    0.90   1
   2   2  -7    6.70    0.30   1
  -2  -2   7    6.20    0.20   1
   2   2  -6    4.40    0.20   1
  -2  -2   6    4.30    0.20   1
   2   2  -5    1.10    0.10   1
  -2  -2   5    0.50    0.10   1
   2   2  -4  123.20    2.70   1
  -2  -2   4  118.30    2.40   1
   2   2  -3   88.70    2.10   1
  -2  -2   3   87.90    2.30   1
   2   2  -2    3.60    0.20   1
  -2  -2   2    3.70    0.20   1
   2   2  -1    4.20    0.20   1
  -2  -2   1    4.00    0.20   1
   2   2   0   26.60    0.70   1
  -2  -2   0   26.80    0.70   1
   2   2   1   35.20    0.80   1
  -2  -2  -1   34.90    1.00   1
   2   2   2    2.20    0.10   1
  -2  -2  -2    2.40    0.20   1
   2   2   3  124.80    2.60   1
  -2  -2  -3  122.80    2.90   1
   2   2   4    3.50    0.20   1
  -2  -2  -4    3.20    0.20   1
   2   2   5   15.40    0.50   1
  -2  -2  -5   15.80    0.40   1
   2   2   6    0.20    0.10   1
  -2  -2  -6    0.20    0.10   1
   2   2   7    0.00    0.10   1
  -2  -2  -7    0.50    0.20   1
   2   2   8    1.20    0.20   1
  -2  -2  -8    1.30    0.30   1
   2   2   9   28.60    0.70   1
  -2  -2  -9   29.30    1.10   1
   2   2  10    0.60    0.30   1
  -2  -2 -10    0.80    0.30   1
   2   2  11   41.00    1.50   1
  -2  -2 -11   42.10    1.60   1
   2   2  12    3.90    0.50   1
  -2  -2 -12    5.30    0.50   1
   2   2  13   13.30    0.70   1
  -2  -2 -13   16.20    1.00   1
   2   2  14    3.50    0.50   1
  -2  -2 -14    4.70    0.60   1
   2   2  15   17.50    1.00   1
  -2  -2 -15   19.40    1.10   1
   2   2  16    4.10    0.60   1
  -2  -2 -16    5.20    0.80   1
   2   2  17    1.10    0.60   1
  -2  -2 -17    3.20    0.70   1
   2   2  18    1.10    0.90   1
  -2  -2 -18    2.80    0.80   1
   2   2  19   23.50    1.60   1
  -2  -2 -19   29.70    1.90   1
   2   2  20    5.10    1.10   1
  -2  -2 -20    4.20    1.00   1
   2   3 -20   -0.40    1.70   1
  -2  -3  20   -1.50    1.20   1
   2   3 -19    1.10    1.00   1
  -2  -3  19    1.00    1.30   1
   2   3 -18    4.40    1.30   1
  -2  -3  18    2.90    1.20   1
   2   3 -17    0.70    0.70   1
  -2  -3  17   -0.90    0.90   1
   2   3 -16    1.20    0.60   1
  -2  -3  16    0.70    0.90   1
   2   3 -15    5.30    0.70   1
  -2  -3  15    4.00    0.60   1
   2   3 -14    0.40    0.50   1
  -2  -3  14   -0.10    0.40   1
   2   3 -13   12.70    0.90   1
  -2  -3  13   10.90    0.60   1
   2   3 -12    0.30    0.40   1
  -2  -3  12   -0.20    0.20   1
   2   3 -11    1.40    0.40   1
  -2  -3  11    0.70    0.30   1
   2   3 -10    2.80    0.30   1
  -2  -3  10    3.30    0.40   1
   2   3  -9   17.00    0.80   1
  -2  -3   9   17.20    0.60   1
   2   3  -8    0.10    0.20   1
  -2  -3   8    0.20    0.20   1
   2   3  -7   84.00    2.80   1
  -2  -3   7   80.60    1.80   1
   2   3  -6   63.90    2.10   1
  -2  -3   6   63.00    1.40   1
   2   3  -5    0.40    0.20   1
  -2  -3   5    0.30    0.10   1
   2   3  -4   13.10    0.50   1
  -2  -3   4   12.10    0.40   1
   2   3  -3   51.10    1.30   1
  -2  -3   3   49.00    1.20   1
   2   3  -2   32.30    0.70   1
  -2  -3   2   32.30    1.00   1
   2   3  -1   84.90    2.00   1
  -2  -3   1   86.60    1.90   1
   2   3   0    0.20    0.10   1
  -2  -3   0    0.30    0.20   1
   2   3   1   95.70    2.10   1
  -2  -3  -1  100.90    2.20   1
   2   3   2  142.90    3.10   1
  -2  -3  -2  147.80    4.00   1
   2   3   3    0.40    0.20   1
  -2  -3  -3    0.20    0.20   1
   2   3   4   12.40    0.40   1
  -2  -3  -4   12.40    0.50   1
   2   3   5    8.20    0.40   1
  -2  -3  -5    8.30    0.40   1
   2   3   6   37.30    0.90   1
  -2  -3  -6   37.10    1.20   1
   2   3   7   55.30    1.20   1
  -2  -3  -7   56.30    1.60   1
   2   3   8   94.90    2.00   1
  -2  -3  -8   97.70    2.60   1
   2   3   9    0.10    0.20   1
  -2  -3  -9    0.10    0.30   1
   2   3  10    0.30    0.30   1
  -2  -3 -10    0.50    0.40   1
   2   3  11    3.10    0.40   1
  -2  -3 -11    4.10    0.50   1
   2   3  12   11.90    0.80   1
  -2  -3 -12   15.10    0.90   1
   2   3  13    0.20    0.50   1
  -2  -3 -13    0.60    0.50   1
   2   3  14    5.30    0.70   1
  -2  -3 -14    6.80    0.80   1
   2   3  15    0.50    0.50   1
  -2  -3 -15    0.50    0.60   1
   2   3  16   11.60    0.90   1
  -2  -3 -16   13.30    1.10   1
   2   3  17    0.60    0.70   1
  -2  -3 -17    1.50    0.80   1
   2   3  18    0.20    1.00   1
  -2  -3 -18    0.70    0.90   1
   2   3  19    1.60    1.60   1
  -2  -3 -19   -0.30    1.00   1
   2   4 -19    2.30    1.30   1
  -2  -4  19    3.00    1.40   1
   2   4 -18    6.20    1.70   1
  -2  -4  18    3.50    1.30   1
   2   4 -17    2.20    0.90   1
  -2  -4  17    0.90    1.20   1
   2   4 -16   11.10    1.20   1
  -2  -4  16    9.50    1.40   1
   2   4 -15    2.90    0.80   1
  -2  -4  15    1.30    0.70   1
   2   4 -14   -0.70    0.60   1
  -2  -4  14    0.60    0.70   1
   2   4 -13   35.10    1.90   1
  -2  -4  13   33.00    1.70   1
   2   4 -12   53.20    2.90   1
  -2  -4  12   48.50    1.50   1
   2   4 -11   22.50    1.60   1
  -2  -4  11   18.50    0.70   1
   2   4 -10   16.00    1.00   1
  -2  -4  10   13.30    0.60   1
   2   4  -9    0.30    0.30   1
  -2  -4   9    0.60    0.20   1
   2   4  -8    6.70    0.60   1
  -2  -4   8    6.90    0.30   1
   2   4  -7    5.00    0.40   1
  -2  -4   7    4.50    0.20   1
   2   4  -6    4.70    0.40   1
  -2  -4   6    4.80    0.30   1
   2   4  -5   11.10    0.50   1
  -2  -4   5   11.90    0.50   1
   2   4  -4    2.40    0.30   1
  -2  -4   4    2.60    0.30   1
   2   4  -3    0.50    0.20   1
  -2  -4   3    1.10    0.20   1
   2   4  -2   45.80    1.40   1
  -2  -4   2   49.50    1.50   1
   2   4  -1    0.00    0.20   1
  -2  -4   1    0.00    0.20   1
   2   4   0    0.40    0.30   1
  -2  -4   0    0.60    0.30   1
   2   4   1    0.70    0.20   1
  -2  -4  -1    1.20    0.30   1
   2   4   2   64.90    1.60   1
  -2  -4  -2   67.50    1.90   1
   2   4   3   15.00    0.60   1
  -2  -4  -3   14.00    0.60   1
   2   4   4   37.30    1.00   1
  -2  -4  -4   39.30    1.60   1
   2   4   5   21.50    0.70   1
  -2  -4  -5   19.60    0.90   1
   2   4   6    2.50    0.20   1
  -2  -4  -6    2.50    0.40   1
   2   4   7    5.80    0.40   1
  -2  -4  -7    7.30    0.70   1
   2   4   8   40.90    1.00   1
  -2  -4  -8   42.40    1.80   1
   2   4   9   58.40    1.90   1
  -2  -4  -9   63.60    2.40   1
   2   4  10    5.40    0.50   1
  -2  -4 -10    7.60    0.60   1
   2   4  11    5.20    0.70   1
  -2  -4 -11    5.70    0.50   1
   2   4  12   13.00    0.80   1
  -2  -4 -12   15.50    0.90   1
   2   4  13   11.80    0.90   1
  -2  -4 -13   15.00    0.90   1
   2   4  14    1.20    0.70   1
  -2  -4 -14    1.10    0.50   1
   2   4  15    1.90    0.80   1
  -2  -4 -15    0.60    0.70   1
   2   4  16    0.50    0.80   1
  -2  -4 -16    4.20    1.30   1
   2   4  17    2.70    1.20   1
  -2  -4 -17    2.40    1.20   1
   2   5 -17   -0.30    1.10   1
  -2  -5  17   -1.60    1.60   1
   2   5 -16    9.40    1.20   1
  -2  -5  16    8.70    1.20   1
   2   5 -15   42.10    2.80   1
  -2  -5  15   39.20    2.40   1
   2   5 -14   16.20    1.30   1
  -2  -5  14   15.50    1.00   1
   2   5 -13   11.10    1.00   1
  -2  -5  13    9.80    0.70   1
   2   5 -12   10.60    1.00   1
  -2  -5  12   11.10    0.70   1
   2   5 -11    1.60    0.60   1
  -2  -5  11   -0.30    0.50   1
   2   5 -10   -0.10    0.40   1
  -2  -5  10    0.40    0.40   1
   2   5  -9   23.80    1.40   1
  -2  -5   9   19.40    0.90   1
   2   5  -8    5.80    0.60   1
  -2  -5   8    5.10    0.50   1
   2   5  -7   23.90    1.00   1
  -2  -5   7   21.40    0.80   1
   2   5  -6   -0.40    0.40   1
  -2  -5   6    0.20    0.30   1
   2   5  -5    1.50    0.40   1
  -2  -5   5    0.90    0.30   1
   2   5  -4    5.30    0.40   1
  -2  -5   4    5.10    0.40   1
   2   5  -3   -0.10    0.30   1
  -2  -5   3    0.30    0.30   1
   2   5  -2    8.50    0.40   1
  -2  -5   2    9.70    0.60   1
   2   5  -1   70.10    2.20   1
  -2  -5   1   71.90    2.60   1
   2   5   0    6.80    0.40   1
  -2  -5   0    6.60    0.50   1
   2   5   1   35.90    1.30   1
  -2  -5  -1   39.90    1.60   1
   2   5   2    0.10    0.30   1
  -2  -5  -2    0.00    0.40   1
   2   5   3    0.60    0.30   1
  -2  -5  -3    0.60    0.40   1
   2   5   4    7.40    0.40   1
  -2  -5  -4    7.90    0.70   1
   2   5   5   21.00    0.80   1
  -2  -5  -5   22.60    1.10   1
   2   5   6   18.00    0.90   1
  -2  -5  -6   18.90    1.00   1
   2   5   7    8.90    0.50   1
  -2  -5  -7    9.00    0.80   1
   2   5   8    7.70    0.60   1
  -2  -5  -8    9.50    0.80   1
   2   5   9    1.60    0.90   1
  -2  -5  -9    2.50    0.60   1
   2   5  10    0.10    0.50   1
  -2  -5 -10    0.20    0.60   1
   2   5  11    2.60    0.60   1
  -2  -5 -11    3.80    0.80   1
   2   5  12    4.80    0.80   1
  -2  -5 -12    7.70    0.90   1
   2   5  13    2.60    1.00   1
  -2  -5 -13    4.80    0.90   1
   2   5  14   21.90    1.30   1
  -2  -5 -14   25.20    1.60   1
   2   5  15    1.30    1.10   1
  -2  -5 -15   -1.90    0.90   1
   2   6 -15   -0.20    0.90   1
  -2  -6  15    0.30    0.90   1
   2   6 -14   -1.00    0.80   1
  -2  -6  14   -0.80    0.80   1
   2   6 -13    3.80    1.00   1
  -2  -6  13    3.50    0.70   1
   2   6 -12    3.60    1.00   1
  -2  -6  12    2.80    0.80   1
   2   6 -11    9.80    1.00   1
  -2  -6  11    9.30    0.90   1
   2   6 -10   12.30    1.10   1
  -2  -6  10    8.60    0.80   1
   2   6  -9    1.20    0.70   1
  -2  -6   9    2.00    0.60   1
   2   6  -8    1.70    0.70   1
  -2  -6   8    1.00    0.50   1
   2   6  -7    0.90    0.60   1
  -2  -6   7    0.50    0.50   1
   2   6  -6   17.80    1.10   1
  -2  -6   6   16.00    0.90   1
   2   6  -5   -0.30    0.50   1
  -2  -6   5    0.80    0.50   1
   2   6  -4    3.40    0.50   1
  -2  -6   4    3.40    0.60   1
   2   6  -3    0.30    0.40   1
  -2  -6   3    0.80    0.50   1
   2   6  -2    2.10    0.40   1
  -2  -6   2    1.10    0.50   1
   2   6  -1    8.00    0.50   1
  -2  -6   1    8.90    0.80   1
   2   6   0   44.60    2.30   1
  -2  -6   0   47.00    2.10   1
   2   6   1   60.70    2.00   1
  -2  -6  -1   62.80    2.70   1
   2   6   2    0.00    0.30   1
  -2  -6  -2    1.00    0.70   1
   2   6   3    3.40    0.50   1
  -2  -6  -3    3.90    0.70   1
   2   6   4   41.50    1.40   1
  -2  -6  -4   48.10    2.40   1
   2   6   5    3.20    0.50   1
  -2  -6  -5    3.60    0.70   1
   2   6   6   -0.20    0.60   1
  -2  -6  -6   -0.20    0.50   1
   2   6   7   -1.00    0.50   1
  -2  -6  -7    0.30    0.70   1
   2   6   8   13.80    0.90   1
  -2  -6  -8   16.90    1.20   1
   2   6   9    1.50    0.80   1
  -2  -6  -9    2.50    0.80   1
   2   6  10   11.30    1.20   1
  -2  -6 -10   14.90    1.30   1
   2   6  11    1.40    0.80   1
  -2  -6 -11    1.30    0.80   1
   2   6  12    1.30    1.40   1
  -2  -6 -12    2.60    0.90   1
   2   6  13   -0.50    1.00   1
  -2  -6 -13    1.10    0.90   1
   2   7 -12    0.30    1.60   1
  -2  -7  12   -1.10    0.90   1
  -2  -7  11    0.40    0.80   1
   2   7 -10   11.00    1.80   1
  -2  -7  10   10.90    1.00   1
   2   7  -9    8.20    1.90   1
  -2  -7   9    8.20    0.90   1
   2   7  -8   -1.00    1.20   1
  -2  -7   8    0.70    0.70   1
   2   7  -7    1.10    1.20   1
  -2  -7   7    1.30    0.70   1
   2   7  -6    1.20    1.20   1
  -2  -7   6    1.50    0.60   1
   2   7  -5    0.60    1.20   1
  -2  -7   5    1.30    0.70   1
   2   7  -4    2.20    1.00   1
  -2  -7   4    0.50    0.70   1
   2   7  -3   29.60    2.50   1
  -2  -7   3   30.40    1.50   1
   2   7  -2   12.90    1.60   1
  -2  -7   2   15.90    1.00   1
   2   7  -1   -0.30    6.10   1
  -2  -7   1    3.20    0.80   1
   2   7   0   21.00    1.70   1
  -2  -7   0   22.10    1.50   1
   2   7   1   13.60    1.10   1
  -2  -7  -1   15.60    1.30   1
   2   7   2    2.80    0.70   1
  -2  -7  -2    2.50    0.80   1
   2   7   3    1.30    0.80   1
  -2  -7  -3    0.60    0.70   1
   2   7   4    2.90    1.20   1
  -2  -7  -4    1.60    0.90   1
   2   7   5   12.80    1.70   1
  -2  -7  -5   15.90    1.40   1
   2   7   6   -0.60    1.30   1
  -2  -7  -6    0.40    0.80   1
   2   7   7    7.70    1.60   1
  -2  -7  -7    7.60    1.00   1
   2   7   8    0.10    1.00   1
  -2  -7  -8   -0.40    0.90   1
   2   7   9    0.60    1.10   1
  -2  -7  -9   -0.20    0.90   1
   2   7  10    0.30    1.10   1
  -2  -7 -10    0.40    1.00   1
   2   8  -7   -0.80    1.60   1
  -2  -8   7    1.30    0.90   1
   2   8  -6    7.80    1.80   1
  -2  -8   6    6.00    0.90   1
   2   8  -5   -3.60    1.40   1
  -2  -8   5    0.20    0.80   1
   2   8  -4    2.00    1.50   1
  -2  -8   4    1.50    0.90   1
   2   8  -3    1.60    1.40   1
  -2  -8   3    0.10    0.80   1
   2   8  -2    4.60    1.80   1
  -2  -8   2    0.50    0.90   1
  -2  -8   1    0.30    0.90   1
   2   8   0    2.90    1.50   1
  -2  -8   0    4.00    1.20   1
  -2  -8  -1    1.30    1.00   1
   2   8   2   -1.40    7.10   1
  -2  -8  -2    6.30    1.30   1
  -2  -8  -3    0.10    1.10   1
   2   8   4    2.00    6.90   1
  -2  -8  -4    0.90    1.20   1
   3  -9  -5   -2.00    1.40   1
  -3   9   5    0.50    4.30   1
   3  -9  -4    4.70    1.60   1
  -3   9   4    2.80    5.10   1
   3  -9  -3    3.40    1.50   1
  -3   9   3   -1.10    1.10   1
   3  -9  -2    0.30    1.30   1
  -3   9   2    0.20    1.40   1
   3  -9  -1   -0.20    1.40   1
  -3   9   1    1.70    1.10   1
   3  -9   0   12.50    1.80   1
  -3   9   0   11.00    1.30   1
   3  -9   1    5.50    1.50   1
  -3   9  -1    6.10    1.20   1
   3  -9   2    0.70    1.40   1
  -3   9  -2    0.30    0.90   1
   3  -9   3    0.60    1.70   1
  -3   9  -3   -2.20    1.00   1
   3  -9   4   -0.20    1.60   1
  -3   9  -4    0.80    1.00   1
   3  -9   5    3.20    1.30   1
  -3   9  -5    3.00    1.10   1
   3  -9   6    0.50    1.20   1
  -3   9  -6   -0.90    1.00   1
   3  -9   7    0.20    1.50   1
  -3   9  -7    2.30    1.10   1
   3  -8 -10   -0.50    1.00   1
  -3   8  10   -1.00    1.40   1
   3  -8  -9    0.00    0.80   1
  -3   8   9   -0.10    1.40   1
   3  -8  -8   11.70    1.60   1
  -3   8   8    7.50    1.60   1
   3  -8  -7   10.60    1.70   1
  -3   8   7    7.80    1.70   1
   3  -8  -6   15.60    1.70   1
  -3   8   6   13.80    1.70   1
   3  -8  -5   40.40    3.10   1
  -3   8   5   38.30    1.70   1
   3  -8  -4    9.80    1.40   1
  -3   8   4    8.80    1.00   1
   3  -8  -3    1.30    1.10   1
  -3   8   3    0.40    0.60   1
   3  -8  -2    0.50    0.90   1
  -3   8   2    1.30    0.70   1
   3  -8  -1    2.10    1.00   1
  -3   8   1    1.20    0.80   1
   3  -8   0    2.30    1.00   1
  -3   8   0    2.50    0.80   1
   3  -8   1    6.70    1.00   1
  -3   8  -1    5.90    1.00   1
   3  -8   2    3.50    1.00   1
  -3   8  -2    3.50    0.90   1
   3  -8   3   13.90    1.90   1
  -3   8  -3   14.00    1.10   1
   3  -8   4    4.70    1.40   1
  -3   8  -4    1.80    0.90   1
   3  -8   5    7.30    1.40   1
  -3   8  -5    8.30    1.00   1
   3  -8   6    1.80    1.10   1
  -3   8  -6    2.50    0.80   1
   3  -8   7   -3.10    1.30   1
  -3   8  -7    0.40    0.80   1
   3  -8   8    0.10    1.10   1
  -3   8  -8   -0.50    0.90   1
   3  -8   9   12.10    1.10   1
  -3   8  -9    8.60    1.20   1
   3  -8  10   10.80    1.20   1
  -3   8 -10    8.30    1.10   1
   3  -8  11    0.10    1.00   1
  -3   8 -11    0.50    1.00   1
   3  -8  12   -0.70    1.70   1
  -3   8 -12   -0.20    1.10   1
   3  -7 -13   -0.10    1.30   1
  -3   7  13    2.40    1.40   1
   3  -7 -12    0.30    1.40   1
  -3   7  12   -0.80    1.20   1
   3  -7 -11   -1.10    1.10   1
  -3   7  11    0.80    1.20   1
   3  -7 -10    0.60    1.30   1
  -3   7  10    0.10    1.20   1
   3  -7  -9   43.40    2.90   1
  -3   7   9   38.10    2.60   1
   3  -7  -8   87.40    5.20   1
  -3   7   8   86.30    3.10   1
   3  -7  -7   17.60    1.80   1
  -3   7   7   16.50    0.90   1
   3  -7  -6    1.40    0.60   1
  -3   7   6    0.10    0.50   1
   3  -7  -5    0.90    0.50   1
  -3   7   5    1.50    0.50   1
   3  -7  -4    2.20    0.50   1
  -3   7   4    4.70    0.80   1
   3  -7  -3    0.90    0.50   1
  -3   7   3    1.30    0.50   1
   3  -7  -2    2.00    0.50   1
  -3   7   2    2.30    0.60   1
   3  -7  -1    1.50    0.40   1
  -3   7   1    0.80    0.60   1
   3  -7   0    8.90    1.10   1
  -3   7   0    7.20    0.70   1
   3  -7   1    0.80    0.80   1
  -3   7  -1    0.50    0.60   1
   3  -7   2   -0.10    0.70   1
  -3   7  -2    0.90    0.50   1
   3  -7   3    2.00    1.00   1
  -3   7  -3    3.40    0.60   1
   3  -7   4   -0.50    0.90   1
  -3   7  -4    1.40    0.60   1
   3  -7   5    1.90    0.90   1
  -3   7  -5    3.40    0.40   1
   3  -7   6    9.30    1.30   1
  -3   7  -6    9.80    0.70   1
   3  -7   7    0.50    1.00   1
  -3   7  -7    1.30    0.40   1
   3  -7   8   16.50    1.00   1
  -3   7  -8   13.60    0.80   1
   3  -7   9   10.60    0.90   1
  -3   7  -9    9.10    0.70   1
   3  -7  10   13.40    1.00   1
  -3   7 -10   13.90    0.90   1
   3  -7  11   10.20    1.00   1
  -3   7 -11    8.60    0.80   1
   3  -7  12    4.50    0.80   1
  -3   7 -12    3.30    0.70   1
   3  -7  13    3.60    1.10   1
  -3   7 -13    2.20    0.70   1
   3  -7  14   -2.00    1.10   1
  -3   7 -14    0.80    0.70   1
   3  -7  15    2.30    1.20   1
  -3   7 -15    0.30    0.90   1
   3  -6 -16    4.90    1.50   1
  -3   6  16    4.10    1.80   1
   3  -6 -15    0.90    1.20   1
  -3   6  15    0.70    1.30   1
   3  -6 -14    9.20    1.50   1
  -3   6  14    7.20    1.50   1
   3  -6 -13   14.90    1.90   1
  -3   6  13   13.60    1.70   1
   3  -6 -12    0.60    0.80   1
  -3   6  12   -0.40    1.20   1
   3  -6 -11   11.20    1.30   1
  -3   6  11   10.40    1.20   1
   3  -6 -10    0.50    0.70   1
  -3   6  10    1.00    0.90   1
   3  -6  -9    0.40    0.90   1
  -3   6   9    0.00    0.40   1
   3  -6  -8    3.10    0.90   1
  -3   6   8    2.40    0.50   1
   3  -6  -7   51.60    2.70   1
  -3   6   7   51.10    1.50   1
   3  -6  -6    1.60    0.70   1
  -3   6   6    2.30    0.40   1
   3  -6  -5    8.10    1.00   1
  -3   6   5    9.70    0.60   1
   3  -6  -4    1.20    0.60   1
  -3   6   4    1.70    0.40   1
   3  -6  -3    1.10    0.40   1
  -3   6   3    0.40    0.40   1
   3  -6  -2    7.10    0.60   1
  -3   6   2    7.90    0.70   1
   3  -6  -1   -0.60    0.40   1
  -3   6   1    0.30    0.40   1
   3  -6   0    1.90    0.30   1
  -3   6   0    2.40    0.40   1
   3  -6   1   13.70    0.70   1
  -3   6  -1   15.20    0.80   1
   3  -6   2    0.60    0.20   1
  -3   6  -2    1.40    0.40   1
   3  -6   3    9.00    0.40   1
  -3   6  -3   10.00    0.80   1
   3  -6   4   18.70    1.30   1
  -3   6  -4   20.80    0.70   1
   3  -6   5  140.00    9.50   1
  -3   6  -5  139.60    3.40   1
   3  -6   6  129.20    7.40   1
  -3   6  -6  121.60    3.80   1
   3  -6   7  115.70    4.00   1
  -3   6  -7  101.20    3.30   1
   3  -6   8   15.50    1.00   1
  -3   6  -8   14.20    0.80   1
   3  -6   9    4.80    0.70   1
  -3   6  -9    3.60    0.50   1
   3  -6  10    6.00    0.80   1
  -3   6 -10    5.20    0.60   1
   3  -6  11    3.10    0.60   1
  -3   6 -11    2.10    0.50   1
   3  -6  12    0.20    0.50   1
  -3   6 -12   -0.40    0.50   1
   3  -6  13    0.60    0.50   1
  -3   6 -13    0.60    0.70   1
   3  -6  14    4.60    1.00   1
  -3   6 -14    4.00    0.80   1
   3  -6  15    2.30    0.90   1
  -3   6 -15    3.50    0.70   1
   3  -6  16    5.10    1.60   1
  -3   6 -16    3.70    0.90   1
   3  -6  17    0.00    1.40   1
  -3   6 -17   -1.30    0.80   1
   3  -5 -17   32.40    2.80   1
  -3   5  17   24.40    1.80   1
   3  -5 -16   13.00    1.50   1
  -3   5  16   11.00    1.20   1
   3  -5 -15    2.10    1.00   1
  -3   5  15    1.50    0.90   1
   3  -5 -14    2.30    1.00   1
  -3   5  14    3.20    0.80   1
   3  -5 -13    0.00    0.80   1
  -3   5  13    0.00    0.90   1
   3  -5 -12    3.80    0.90   1
  -3   5  12    4.10    0.80   1
   3  -5 -11   12.90    0.80   1
  -3   5  11   14.50    0.70   1
   3  -5 -10    9.40    0.60   1
  -3   5  10    9.60    1.00   1
   3  -5  -9   25.60    1.00   1
  -3   5   9   27.30    1.30   1
   3  -5  -8   47.30    1.60   1
  -3   5   8   49.10    1.40   1
   3  -5  -7    0.40    0.30   1
  -3   5   7    0.20    0.30   1
   3  -5  -6    3.50    0.30   1
  -3   5   6    3.50    0.40   1
   3  -5  -5    0.90    0.20   1
  -3   5   5    1.10    0.30   1
   3  -5  -4   29.20    0.90   1
  -3   5   4   30.50    0.90   1
   3  -5  -3    0.00    0.20   1
  -3   5   3    0.50    0.40   1
   3  -5  -2   23.90    0.60   1
  -3   5   2   26.20    0.90   1
   3  -5  -1   12.20    0.40   1
  -3   5   1   12.80    0.60   1
   3  -5   0    2.80    0.20   1
  -3   5   0    3.00    0.40   1
   3  -5   1    1.80    0.20   1
  -3   5  -1    1.80    0.40   1
   3  -5   2    0.70    0.10   1
  -3   5  -2    1.10    0.40   1
   3  -5   3   34.80    1.50   1
  -3   5  -3   39.10    1.10   1
   3  -5   4   44.10    1.70   1
  -3   5  -4   46.60    1.10   1
   3  -5   5    7.70    0.40   1
  -3   5  -5    8.40    0.40   1
   3  -5   6   18.30    0.70   1
  -3   5  -6   19.90    0.80   1
   3  -5   7    9.80    0.60   1
  -3   5  -7    9.20    0.50   1
   3  -5   8    2.30    0.40   1
  -3   5  -8    1.90    0.20   1
   3  -5   9    0.20    0.40   1
  -3   5  -9    0.30    0.20   1
   3  -5  10    4.40    0.50   1
  -3   5 -10    2.60    0.40   1
   3  -5  11    2.30    0.40   1
  -3   5 -11    3.40    0.50   1
   3  -5  12   21.00    1.10   1
  -3   5 -12   18.90    1.10   1
   3  -5  13    6.70    0.70   1
  -3   5 -13    6.10    0.70   1
   3  -5  14   11.80    0.80   1
  -3   5 -14   10.30    0.80   1
   3  -5  15   -0.10    1.00   1
  -3   5 -15   -0.30    0.60   1
   3  -5  16    1.20    1.20   1
  -3   5 -16    1.00    0.70   1
  -3   5 -17    2.80    0.80   1
  -3   5 -18   -0.90    0.80   1
   3  -4 -19   -1.20    1.40   1
  -3   4  19   -0.70    1.40   1
   3  -4 -18   -0.30    0.80   1
  -3   4  18    0.70    1.10   1
   3  -4 -17    0.30    0.70   1
  -3   4  17    2.60    1.00   1
   3  -4 -16    3.90    0.70   1
  -3   4  16    2.80    0.80   1
   3  -4 -15    8.60    0.80   1
  -3   4  15   10.30    0.90   1
   3  -4 -14    2.70    0.50   1
  -3   4  14    4.10    0.70   1
   3  -4 -13   -0.70    0.40   1
  -3   4  13   -0.70    0.60   1
   3  -4 -12    7.60    0.70   1
  -3   4  12    5.90    0.70   1
   3  -4 -11    2.90    0.50   1
  -3   4  11    2.70    0.50   1
   3  -4 -10    5.00    0.50   1
  -3   4  10    5.70    0.50   1
   3  -4  -9    4.00    0.30   1
  -3   4   9    4.00    0.40   1
   3  -4  -8   20.40    0.60   1
  -3   4   8   20.60    1.00   1
   3  -4  -7  102.90    2.20   1
  -3   4   7  109.40    3.10   1
   3  -4  -6    3.50    0.20   1
  -3   4   6    3.50    0.30   1
   3  -4  -5    4.20    0.20   1
  -3   4   5    5.10    0.30   1
   3  -4  -4   43.80    0.90   1
  -3   4   4   44.10    1.30   1
   3  -4  -3   27.00    0.60   1
  -3   4   3   27.60    0.70   1
   3  -4  -2   40.00    0.80   1
  -3   4   2   42.10    1.10   1
   3  -4  -1   83.60    1.50   1
  -3   4   1   82.20    1.90   1
   3  -4   0    5.90    0.20   1
  -3   4   0    6.50    0.30   1
   3  -4   1    5.90    0.20   1
  -3   4  -1    6.20    0.30   1
   3  -4   2   39.40    1.20   1
  -3   4  -2   40.60    1.00   1
   3  -4   3    1.60    0.20   1
  -3   4  -3    1.50    0.20   1
   3  -4   4   16.30    0.60   1
  -3   4  -4   15.60    0.60   1
   3  -4   5   -0.20    0.20   1
  -3   4  -5   -0.10    0.20   1
   3  -4   6    0.90    0.20   1
  -3   4  -6    1.20    0.20   1
   3  -4   7   18.80    0.80   1
  -3   4  -7   19.50    0.50   1
   3  -4   8    4.20    0.40   1
  -3   4  -8    4.90    0.30   1
   3  -4   9   23.10    0.90   1
  -3   4  -9   23.40    0.60   1
   3  -4  10    6.30    0.40   1
  -3   4 -10    5.80    0.30   1
   3  -4  11    8.60    0.60   1
  -3   4 -11    7.10    0.40   1
   3  -4  12    3.30    0.40   1
  -3   4 -12    2.80    0.60   1
   3  -4  13    7.70    0.70   1
  -3   4 -13    6.00    0.60   1
   3  -4  14    8.00    0.80   1
  -3   4 -14    7.50    0.60   1
   3  -4  15   12.70    1.50   1
  -3   4 -15   11.10    0.80   1
   3  -4  16   -0.40    1.00   1
  -3   4 -16    0.30    0.50   1
   3  -4  17   24.90    2.70   1
  -3   4 -17   21.90    1.30   1
   3  -4  18   17.50    2.20   1
  -3   4 -18   14.00    1.10   1
   3  -4  19   14.70    1.80   1
  -3   4 -19   14.70    1.20   1
   3  -3 -20    0.30    0.80   1
  -3   3  20   -2.10    3.40   1
   3  -3 -19    6.50    1.10   1
  -3   3  19    6.70    1.10   1
   3  -3 -18    0.10    0.70   1
  -3   3  18    0.80    0.90   1
   3  -3 -17    7.80    0.80   1
  -3   3  17    8.80    1.00   1
   3  -3 -16   -0.40    0.50   1
  -3   3  16   -0.80    0.70   1
   3  -3 -15    3.80    0.60   1
  -3   3  15    4.10    0.70   1
   3  -3 -14    3.40    0.40   1
  -3   3  14    4.00    0.60   1
   3  -3 -13    0.00    0.30   1
  -3   3  13    0.10    0.60   1
   3  -3 -12    0.00    0.30   1
  -3   3  12    0.70    0.50   1
   3  -3 -11   91.90    2.30   1
  -3   3  11   95.20    3.20   1
   3  -3 -10    0.60    0.30   1
  -3   3  10    0.10    0.30   1
   3  -3  -9   48.10    1.30   1
  -3   3   9   49.70    1.70   1
   3  -3  -8    0.60    0.20   1
  -3   3   8    0.60    0.30   1
   3  -3  -7    4.80    0.20   1
  -3   3   7    5.20    0.50   1
   3  -3  -6    5.00    0.20   1
  -3   3   6    6.40    0.50   1
   3  -3  -5  101.30    1.60   1
  -3   3   5  100.90    2.60   1
   3  -3  -4  120.00    1.70   1
  -3   3   4  117.30    2.40   1
   3  -3  -3    0.90    0.10   1
  -3   3   3    1.10    0.20   1
   3  -3  -2   58.10    0.90   1
  -3   3   2   59.30    1.40   1
   3  -3  -1   24.50    0.40   1
  -3   3   1   23.20    0.60   1
   3  -3   0   21.20    0.40   1
  -3   3   0   20.90    0.60   1
   3  -3   1    0.00    0.10   1
  -3   3  -1    0.20    0.20   1
   3  -3   2  110.60    2.10   1
  -3   3  -2  107.30    2.20   1
   3  -3   3   17.30    0.40   1
  -3   3  -3   17.10    0.50   1
   3  -3   4  100.60    2.60   1
  -3   3  -4  101.00    1.90   1
   3  -3   5   21.80    0.60   1
  -3   3  -5   22.50    0.60   1
   3  -3   6    9.20    0.40   1
  -3   3  -6   10.40    0.20   1
   3  -3   7    0.60    0.20   1
  -3   3  -7    0.50    0.10   1
   3  -3   8    5.40    0.40   1
  -3   3  -8    5.40    0.20   1
   3  -3   9    1.10    0.30   1
  -3   3  -9    0.90    0.20   1
   3  -3  10   21.30    0.80   1
  -3   3 -10   21.60    0.60   1
   3  -3  11   37.00    1.90   1
  -3   3 -11   36.60    0.90   1
   3  -3  12   55.30    2.10   1
  -3   3 -12   50.70    1.70   1
   3  -3  13    4.70    0.70   1
  -3   3 -13    3.10    0.50   1
   3  -3  14   -0.30    0.50   1
  -3   3 -14   -0.40    0.40   1
   3  -3  15    1.10    0.50   1
  -3   3 -15    1.00    0.50   1
   3  -3  16    8.10    1.30   1
  -3   3 -16    6.60    0.70   1
   3  -3  17    6.60    1.20   1
  -3   3 -17    5.10    0.70   1
   3  -3  18   -0.30    4.80   1
  -3   3 -18    0.50    0.70   1
   3  -3  19    0.60    1.30   1
  -3   3 -19    0.90    1.20   1
  -3   3 -20    2.00    1.40   1
   3  -2 -20    7.90    1.10   1
  -3   2  20    5.40    3.40   1
   3  -2 -19    0.60    0.90   1
  -3   2  19    0.70    1.00   1
   3  -2 -18    3.10    0.70   1
  -3   2  18    1.00    0.80   1
   3  -2 -17    3.20    1.00   1
  -3   2  17    3.10    0.70   1
   3  -2 -16   40.60    3.00   1
  -3   2  16   38.20    1.70   1
   3  -2 -15   -0.90    0.70   1
  -3   2  15    0.60    0.70   1
   3  -2 -14   30.90    1.30   1
  -3   2  14   33.00    1.70   1
   3  -2 -13   -0.10    0.30   1
  -3   2  13   -0.40    0.50   1
   3  -2 -12    3.20    0.30   1
  -3   2  12    4.10    0.40   1
   3  -2 -11    1.80    0.20   1
  -3   2  11    1.80    0.30   1
   3  -2 -10   33.60    0.70   1
  -3   2  10   33.80    1.00   1
   3  -2  -9    2.30    0.20   1
  -3   2   9    2.70    0.40   1
   3  -2  -8  100.80    1.70   1
  -3   2   8  100.00    4.10   1
   3  -2  -7   10.80    0.30   1
  -3   2   7   11.30    0.50   1
   3  -2  -6   30.60    0.50   1
  -3   2   6   31.00    1.10   1
   3  -2  -5   31.00    0.50   1
  -3   2   5   30.80    0.90   1
   3  -2  -4   21.10    0.40   1
  -3   2   4   21.90    0.60   1
   3  -2  -3    6.10    0.20   1
  -3   2   3    6.90    0.30   1
   3  -2  -2  111.90    1.60   1
  -3   2   2  110.60    2.10   1
   3  -2  -1   15.10    0.30   1
  -3   2   1   15.30    0.30   1
   3  -2   0    2.00    0.10   1
  -3   2   0    2.20    0.10   1
   3  -2   1    4.40    0.20   1
  -3   2  -1    4.40    0.10   1
   3  -2   2   43.10    0.80   1
  -3   2  -2   41.90    0.70   1
   3  -2   3    8.30    0.30   1
  -3   2  -3    7.90    0.20   1
   3  -2   4   38.70    0.90   1
  -3   2  -4   38.10    0.70   1
   3  -2   5   89.40    1.90   1
  -3   2  -5   86.70    1.40   1
   3  -2   6    0.00    0.10   1
  -3   2  -6    0.00    0.10   1
   3  -2   7    6.30    0.30   1
  -3   2  -7    6.30    0.20   1
   3  -2   8   56.70    2.00   1
  -3   2  -8   55.20    1.00   1
   3  -2   9   46.30    1.50   1
  -3   2  -9   45.90    0.90   1
   3  -2  10    2.70    0.40   1
  -3   2 -10    2.60    0.20   1
   3  -2  11   23.80    1.20   1
  -3   2 -11   22.20    0.60   1
   3  -2  12   -0.10    0.40   1
  -3   2 -12    0.40    0.30   1
   3  -2  13   33.10    1.60   1
  -3   2 -13   32.30    1.20   1
   3  -2  14    1.20    0.50   1
  -3   2 -14    1.00    0.40   1
   3  -2  15    9.20    1.10   1
  -3   2 -15    7.40    0.60   1
   3  -2  16    0.80    1.00   1
  -3   2 -16   -0.90    0.40   1
   3  -2  17    4.40    1.20   1
  -3   2 -17    4.20    0.60   1
   3  -2  18    5.70    5.40   1
  -3   2 -18   -0.20    1.40   1
   3  -2  19    5.10    1.50   1
  -3   2 -19    5.50    1.40   1
   3  -2  20    0.20    1.60   1
  -3   2 -20    2.70    1.30   1
   3  -1 -21    5.80    1.90   1
  -3   1  21    5.00    3.40   1
   3  -1 -20   10.40    1.60   1
  -3   1  20    7.40    3.60   1
   3  -1 -19   16.00    1.90   1
  -3   1  19   16.10    1.30   1
   3  -1 -18    5.20    1.20   1
  -3   1  18    3.30    0.80   1
   3  -1 -17    5.60    1.10   1
  -3   1  17    8.40    0.80   1
   3  -1 -16    1.30    0.80   1
  -3   1  16    0.50    0.50   1
   3  -1 -15   21.40    1.90   1
  -3   1  15   20.40    0.90   1
   3  -1 -14   15.90    1.40   1
  -3   1  14   17.20    0.80   1
   3  -1 -13   -0.30    0.20   1
  -3   1  13    0.40    0.40   1
   3  -1 -12    0.70    0.30   1
  -3   1  12    0.50    0.30   1
   3  -1 -11   22.70    0.70   1
  -3   1  11   24.90    0.90   1
   3  -1 -10    1.90    0.20   1
  -3   1  10    2.50    0.40   1
   3  -1  -9   19.60    0.50   1
  -3   1   9   20.50    0.60   1
   3  -1  -8    7.10    0.30   1
  -3   1   8    7.70    0.30   1
   3  -1  -7   22.10    0.40   1
  -3   1   7   22.40    0.80   1
   3  -1  -6    6.50    0.20   1
  -3   1   6    6.40    0.30   1
   3  -1  -5  127.40    1.90   1
  -3   1   5  127.00    2.20   1
   3  -1  -4   27.80    0.50   1
  -3   1   4   27.30    0.60   1
   3  -1  -3  137.70    2.40   1
  -3   1   3  137.90    2.60   1
   3  -1  -2    6.50    0.20   1
  -3   1   2    7.00    0.30   1
   3  -1  -1   25.30    0.50   1
  -3   1   1   25.10    0.60   1
   3  -1   0   74.00    1.50   1
  -3   1   0   74.10    1.50   1
   3  -1   1  237.10    3.80   1
  -3   1  -1  231.10    3.80   1
   3  -1   2   81.80    1.40   1
  -3   1  -2   79.60    1.50   1
   3  -1   3  206.50    3.70   1
  -3   1  -3  195.40    3.30   1
   3  -1   4  169.90    3.30   1
  -3   1  -4  161.90    2.60   1
   3  -1   5    0.10    0.20   1
  -3   1  -5    0.10    0.10   1
   3  -1   6    8.10    0.30   1
  -3   1  -6    8.20    0.20   1
   3  -1   7   37.70    1.00   1
  -3   1  -7   38.70    0.80   1
   3  -1   8   52.80    1.50   1
  -3   1  -8   50.20    1.00   1
   3  -1   9    1.60    0.30   1
  -3   1  -9    1.40    0.20   1
   3  -1  10   39.40    1.40   1
  -3   1 -10   40.10    0.80   1
   3  -1  11    4.60    0.50   1
  -3   1 -11    4.50    0.30   1
   3  -1  12    4.10    0.50   1
  -3   1 -12    3.00    0.40   1
   3  -1  13    6.60    1.00   1
  -3   1 -13    7.40    0.50   1
   3  -1  14   21.10    1.10   1
  -3   1 -14   20.20    0.80   1
   3  -1  15    1.40    0.50   1
  -3   1 -15    1.50    0.40   1
   3  -1  16    9.00    0.70   1
  -3   1 -16    6.60    1.10   1
   3  -1  17    0.80    1.00   1
  -3   1 -17    1.40    0.90   1
   3  -1  18   12.50    1.50   1
  -3   1 -18   11.20    1.70   1
   3  -1  19   -0.50    0.80   1
  -3   1 -19   -1.10    1.20   1
   3  -1  20   -0.60    1.00   1
  -3   1 -20    1.90    1.20   1
   3   0 -21   -0.60    1.90   1
  -3   0  21   -1.50    3.80   1
   3   0 -20    2.00    1.30   1
  -3   0  20    0.50    4.20   1
   3   0 -19    9.80    1.50   1
  -3   0  19   10.90    1.60   1
   3   0 -18   24.00    1.60   1
  -3   0  18   24.70    1.20   1
   3   0 -17   -0.30    0.80   1
  -3   0  17    0.00    0.50   1
   3   0 -16   19.20    1.50   1
  -3   0  16   19.00    1.20   1
   3   0 -15    0.30    0.60   1
  -3   0  15    0.30    0.50   1
   3   0 -14    9.80    1.40   1
  -3   0  14    9.30    0.60   1
   3   0 -13    3.10    0.60   1
  -3   0  13    2.10    0.30   1
   3   0 -12    0.20    0.30   1
  -3   0  12    0.20    0.30   1
   3   0 -11    8.20    0.50   1
  -3   0  11    9.10    0.50   1
   3   0 -10   28.80    1.10   1
  -3   0  10   30.40    0.90   1
   3   0  -9    1.00    0.20   1
  -3   0   9    1.40    0.20   1
   3   0  -8  126.00    2.20   1
  -3   0   8  125.30    3.00   1
   3   0  -7    6.30    0.20   1
  -3   0   7    6.10    0.30   1
   3   0  -6   43.10    0.70   1
  -3   0   6   43.50    1.00   1
   3   0  -5   22.60    0.40   1
  -3   0   5   20.60    0.60   1
   3   0  -4   75.90    1.20   1
  -3   0   4   72.40    1.80   1
   3   0  -3   12.40    0.30   1
  -3   0   3   11.20    0.40   1
   3   0  -2  547.80    9.60   1
  -3   0   2  523.60   11.10   1
   3   0  -1   33.20    0.70   1
  -3   0   1   32.20    0.80   1
   3   0   0    7.40    0.20   1
  -3   0   0    7.00    0.20   1
   3   0   1  102.10    1.80   1
  -3   0  -1   97.80    2.00   1
   3   0   2    2.50    0.20   1
  -3   0  -2    2.60    0.20   1
   3   0   3    3.40    0.20   1
  -3   0  -3    3.50    0.10   1
   3   0   4   74.10    1.40   1
  -3   0  -4   72.80    1.10   1
   3   0   5   94.40    2.20   1
  -3   0  -5   90.90    1.40   1
   3   0   6    5.40    0.30   1
  -3   0  -6    5.00    0.20   1
   3   0   7   12.30    0.40   1
  -3   0  -7   11.40    0.30   1
   3   0   8    0.00    0.20   1
  -3   0  -8   -0.10    0.20   1
   3   0   9    5.10    0.30   1
  -3   0  -9    4.20    0.30   1
   3   0  10    4.50    0.40   1
  -3   0 -10    4.70    0.30   1
   3   0  11   41.30    1.50   1
  -3   0 -11   41.90    1.10   1
   3   0  12    2.00    0.70   1
  -3   0 -12    0.90    0.40   1
   3   0  13   39.90    1.70   1
  -3   0 -13   41.80    1.40   1
   3   0  14   13.60    1.30   1
  -3   0 -14   11.70    0.60   1
   3   0  15    4.90    0.90   1
  -3   0 -15    4.50    1.10   1
   3   0  16   17.50    1.00   1
  -3   0 -16   18.10    1.70   1
   3   0  17    0.00    0.80   1
  -3   0 -17    0.20    0.90   1
   3   0  18    5.00    0.90   1
  -3   0 -18    4.00    1.20   1
   3   0  19    4.90    1.00   1
  -3   0 -19    7.60    1.40   1
   3   0  20    5.20    1.30   1
  -3   0 -20    8.90    1.90   1
   3   1 -20   14.60    2.00   1
  -3  -1  20   11.10    1.80   1
   3   1 -19    6.90    0.90   1
  -3  -1  19    5.60    1.60   1
   3   1 -18    0.50    1.00   1
  -3  -1  18    0.20    1.20   1
   3   1 -17    0.40    0.60   1
  -3  -1  17    1.40    1.00   1
   3   1 -16    1.90    0.60   1
  -3  -1  16    2.00    0.40   1
   3   1 -15    5.90    1.10   1
  -3  -1  15    5.90    0.50   1
   3   1 -14    0.20    0.50   1
  -3  -1  14    0.70    0.30   1
   3   1 -13   20.10    1.50   1
  -3  -1  13   19.40    0.80   1
   3   1 -12    9.50    0.40   1
  -3  -1  12   12.30    0.50   1
   3   1 -11    1.40    0.20   1
  -3  -1  11    1.80    0.20   1
   3   1 -10    1.90    0.20   1
  -3  -1  10    2.90    0.20   1
   3   1  -9   22.50    0.70   1
  -3  -1   9   22.50    0.60   1
   3   1  -8    1.10    0.10   1
  -3  -1   8    1.50    0.20   1
   3   1  -7   92.90    2.00   1
  -3  -1   7   87.90    2.30   1
   3   1  -6   12.70    0.50   1
  -3  -1   6   12.50    0.50   1
   3   1  -5  162.70    3.80   1
  -3  -1   5  154.60    3.80   1
   3   1  -4   15.70    0.40   1
  -3  -1   4   15.20    0.50   1
   3   1  -3   23.20    0.50   1
  -3  -1   3   22.20    0.60   1
   3   1  -2   41.20    0.80   1
  -3  -1   2   40.10    1.00   1
   3   1  -1   44.50    1.00   1
  -3  -1   1   43.60    1.00   1
   3   1   0   29.20    0.70   1
  -3  -1   0   29.00    0.80   1
   3   1   1  195.70    3.40   1
  -3  -1  -1  196.50    4.20   1
   3   1   2    9.10    0.30   1
  -3  -1  -2    9.10    0.30   1
   3   1   3  213.80    3.70   1
  -3  -1  -3  203.10    4.10   1
   3   1   4   35.10    0.80   1
  -3  -1  -4   34.20    0.80   1
   3   1   5    8.30    0.30   1
  -3  -1  -5    8.30    0.30   1
   3   1   6    0.00    0.20   1
  -3  -1  -6    0.20    0.20   1
   3   1   7   61.80    1.50   1
  -3  -1  -7   61.40    1.20   1
   3   1   8   26.80    0.90   1
  -3  -1  -8   27.70    0.70   1
   3   1   9  101.40    2.90   1
  -3  -1  -9  101.30    2.50   1
   3   1  10   44.30    1.20   1
  -3  -1 -10   42.30    1.30   1
   3   1  11    0.20    0.30   1
  -3  -1 -11    0.20    0.20   1
   3   1  12    4.70    0.50   1
  -3  -1 -12    4.70    0.40   1
   3   1  13    0.40    0.40   1
  -3  -1 -13    0.00    0.40   1
   3   1  14   27.90    1.40   1
  -3  -1 -14   33.10    1.50   1
   3   1  15    0.40    0.60   1
  -3  -1 -15   -0.60    0.70   1
   3   1  16    8.20    1.00   1
  -3  -1 -16   11.10    0.90   1
   3   1  17    1.20    1.20   1
  -3  -1 -17    2.40    0.70   1
   3   1  18    4.10    0.90   1
  -3  -1 -18    3.30    0.70   1
   3   1  19    2.80    1.00   1
  -3  -1 -19    2.20    0.90   1
   3   2 -20    0.50    1.00   1
  -3  -2  20    1.10    1.80   1
   3   2 -19    0.90    0.90   1
  -3  -2  19    1.80    1.30   1
   3   2 -18    9.00    1.10   1
  -3  -2  18    9.40    1.60   1
   3   2 -17   19.40    1.30   1
  -3  -2  17   16.80    1.70   1
   3   2 -16    4.70    0.70   1
  -3  -2  16    3.20    1.00   1
   3   2 -15   21.50    1.40   1
  -3  -2  15   21.20    1.80   1
   3   2 -14    2.00    0.90   1
  -3  -2  14    2.10    0.60   1
   3   2 -13    1.00    0.70   1
  -3  -2  13    3.00    0.40   1
   3   2 -12   13.80    1.20   1
  -3  -2  12   13.40    0.50   1
   3   2 -11  141.60    6.40   1
  -3  -2  11  145.60    3.60   1
   3   2 -10  109.80    4.20   1
  -3  -2  10  105.50    2.90   1
   3   2  -9    0.60    0.30   1
  -3  -2   9    0.60    0.30   1
   3   2  -8   -0.20    0.20   1
  -3  -2   8    0.80    0.30   1
   3   2  -7    1.40    0.30   1
  -3  -2   7    1.30    0.20   1
   3   2  -6    0.20    0.20   1
  -3  -2   6    0.40    0.20   1
   3   2  -5    2.70    0.20   1
  -3  -2   5    2.40    0.20   1
   3   2  -4   26.70    0.90   1
  -3  -2   4   23.80    0.70   1
   3   2  -3    8.50    0.40   1
  -3  -2   3    8.50    0.40   1
   3   2  -2    1.50    0.20   1
  -3  -2   2    2.20    0.20   1
   3   2  -1    6.40    0.30   1
  -3  -2   1    6.30    0.30   1
   3   2   0   38.60    0.90   1
  -3  -2   0   39.30    1.00   1
   3   2   1    0.40    0.10   1
  -3  -2  -1    0.40    0.20   1
   3   2   2   13.40    0.40   1
  -3  -2  -2   13.00    0.50   1
   3   2   3    7.10    0.30   1
  -3  -2  -3    7.40    0.30   1
   3   2   4  260.30    6.00   1
  -3  -2  -4  255.90    6.50   1
   3   2   5    6.30    0.30   1
  -3  -2  -5    6.90    0.40   1
   3   2   6   99.40    2.40   1
  -3  -2  -6  101.20    3.20   1
   3   2   7    0.10    0.30   1
  -3  -2  -7    0.10    0.20   1
   3   2   8   -0.10    0.20   1
  -3  -2  -8    0.30    0.30   1
   3   2   9    0.50    0.20   1
  -3  -2  -9    0.10    0.30   1
   3   2  10  143.20    3.60   1
  -3  -2 -10  146.60    4.10   1
   3   2  11   54.70    1.90   1
  -3  -2 -11   57.20    1.70   1
   3   2  12    0.20    0.40   1
  -3  -2 -12   -0.20    0.30   1
   3   2  13    1.10    0.40   1
  -3  -2 -13    0.40    0.40   1
   3   2  14    4.60    0.60   1
  -3  -2 -14    6.30    0.70   1
   3   2  15    1.20    0.50   1
  -3  -2 -15    4.80    0.70   1
   3   2  16    0.10    0.70   1
  -3  -2 -16    0.10    0.70   1
   3   2  17    2.10    0.80   1
  -3  -2 -17    2.30    0.70   1
   3   2  18    2.50    1.10   1
  -3  -2 -18    3.40    1.40   1
   3   2  19    2.10    1.10   1
  -3  -2 -19    2.80    1.00   1
   3   3 -19    1.20    1.40   1
  -3  -3  19    1.40    1.60   1
   3   3 -18    1.10    0.90   1
  -3  -3  18    0.30    1.30   1
   3   3 -17    6.50    1.30   1
  -3  -3  17    3.00    1.20   1
   3   3 -16    6.40    0.90   1
  -3  -3  16    6.80    1.30   1
   3   3 -15   -0.60    0.60   1
  -3  -3  15    0.10    0.80   1
   3   3 -14   44.80    2.30   1
  -3  -3  14   39.20    1.90   1
   3   3 -13   79.80    6.10   1
  -3  -3  13   69.70    2.90   1
   3   3 -12   20.70    1.70   1
  -3  -3  12   20.00    1.20   1
   3   3 -11   44.90    2.20   1
  -3  -3  11   42.00    1.70   1
   3   3 -10   14.10    0.80   1
  -3  -3  10   11.90    0.70   1
   3   3  -9    6.40    0.50   1
  -3  -3   9    5.50    0.50   1
   3   3  -8   16.60    0.80   1
  -3  -3   8   17.60    0.70   1
   3   3  -7   52.00    2.70   1
  -3  -3   7   51.10    1.30   1
   3   3  -6   -0.30    0.30   1
  -3  -3   6    0.30    0.20   1
   3   3  -5   11.80    0.50   1
  -3  -3   5   12.10    0.50   1
   3   3  -4    0.70    0.30   1
  -3  -3   4    1.50    0.30   1
   3   3  -3    4.60    0.30   1
  -3  -3   3    4.40    0.20   1
   3   3  -2    7.10    0.30   1
  -3  -3   2    7.70    0.30   1
   3   3  -1    5.60    0.30   1
  -3  -3   1    6.30    0.30   1
   3   3   0   40.90    1.20   1
  -3  -3   0   42.80    1.30   1
   3   3   1  103.50    2.20   1
  -3  -3  -1  101.30    2.60   1
   3   3   2   47.50    1.30   1
  -3  -3  -2   46.20    1.30   1
   3   3   3   34.70    1.00   1
  -3  -3  -3   34.40    1.20   1
   3   3   4   13.20    0.40   1
  -3  -3  -4   13.50    0.60   1
   3   3   5    8.50    0.40   1
  -3  -3  -5    8.10    0.50   1
   3   3   6    7.30    0.40   1
  -3  -3  -6    8.90    0.60   1
   3   3   7   69.70    2.20   1
  -3  -3  -7   68.00    2.40   1
   3   3   8    4.50    0.30   1
  -3  -3  -8    5.00    0.50   1
   3   3   9   13.50    0.50   1
  -3  -3  -9   13.20    0.70   1
   3   3  10    2.00    0.40   1
  -3  -3 -10    2.30    0.40   1
   3   3  11    0.20    0.40   1
  -3  -3 -11   -0.40    0.30   1
   3   3  12    1.10    0.90   1
  -3  -3 -12    0.60    0.40   1
   3   3  13   16.20    0.90   1
  -3  -3 -13   23.90    1.20   1
   3   3  14    5.80    0.90   1
  -3  -3 -14    5.80    0.70   1
   3   3  15   15.10    1.00   1
  -3  -3 -15   17.90    1.10   1
   3   3  16   10.40    0.90   1
  -3  -3 -16   13.60    1.20   1
   3   3  17   -0.60    1.00   1
  -3  -3 -17   -0.70    0.80   1
   3   4 -18    1.50    1.30   1
  -3  -4  18    3.00    1.70   1
   3   4 -17    4.60    1.10   1
  -3  -4  17    4.90    1.10   1
   3   4 -16    0.90    0.80   1
  -3  -4  16    1.60    1.10   1
   3   4 -15    0.70    0.80   1
  -3  -4  15    0.50    0.90   1
   3   4 -14    2.80    1.10   1
  -3  -4  14    2.70    0.80   1
   3   4 -13   -0.50    0.60   1
  -3  -4  13   -0.20    0.60   1
   3   4 -12    0.10    0.60   1
  -3  -4  12    0.60    0.70   1
   3   4 -11   13.70    0.80   1
  -3  -4  11   13.80    0.80   1
   3   4 -10    7.80    0.60   1
  -3  -4  10    7.50    0.60   1
   3   4  -9   39.70    1.50   1
  -3  -4   9   37.50    1.40   1
   3   4  -8    5.90    1.00   1
  -3  -4   8    4.00    0.50   1
   3   4  -7    3.80    0.60   1
  -3  -4   7    4.40    0.40   1
   3   4  -6   30.30    1.50   1
  -3  -4   6   30.90    1.00   1
   3   4  -5   12.60    0.80   1
  -3  -4   5   13.00    0.60   1
   3   4  -4   63.80    2.80   1
  -3  -4   4   65.20    1.80   1
   3   4  -3    7.40    0.60   1
  -3  -4   3    7.10    0.50   1
   3   4  -2    0.10    0.20   1
  -3  -4   2    0.50    0.20   1
   3   4  -1    3.50    0.60   1
  -3  -4   1    3.90    0.40   1
   3   4   0   10.00    0.50   1
  -3  -4   0   10.90    0.60   1
   3   4   1   40.10    1.50   1
  -3  -4  -1   41.70    1.60   1
   3   4   2  112.40    3.90   1
  -3  -4  -2  121.00    4.30   1
   3   4   3   40.70    1.40   1
  -3  -4  -3   41.90    1.80   1
   3   4   4    0.50    0.30   1
  -3  -4  -4    0.10    0.40   1
   3   4   5    9.30    0.70   1
  -3  -4  -5   10.30    0.70   1
   3   4   6   49.20    1.90   1
  -3  -4  -6   49.90    2.40   1
   3   4   7    1.80    0.50   1
  -3  -4  -7    3.30    0.50   1
   3   4   8    1.80    0.40   1
  -3  -4  -8    2.20    0.50   1
   3   4   9   -0.30    0.60   1
  -3  -4  -9    0.70    0.40   1
   3   4  10   30.20    1.50   1
  -3  -4 -10   41.10    1.70   1
   3   4  11    1.40    0.60   1
  -3  -4 -11    2.10    0.60   1
   3   4  12   22.40    1.10   1
  -3  -4 -12   26.00    1.10   1
   3   4  13   -0.10    0.70   1
  -3  -4 -13    0.10    0.60   1
   3   4  14    0.10    0.80   1
  -3  -4 -14    0.10    0.60   1
   3   4  15    2.40    0.80   1
  -3  -4 -15    2.30    0.90   1
   3   4  16    7.20    1.20   1
  -3  -4 -16    9.50    1.20   1
   3   5 -16    7.10    1.90   1
  -3  -5  16    5.00    1.20   1
   3   5 -15    4.40    1.00   1
  -3  -5  15    4.70    1.10   1
   3   5 -14    3.50    0.90   1
  -3  -5  14    2.10    0.90   1
   3   5 -13   -0.30    0.80   1
  -3  -5  13   -0.30    0.70   1
   3   5 -12    0.40    0.80   1
  -3  -5  12    0.20    0.60   1
   3   5 -11   -0.40    0.60   1
  -3  -5  11    0.30    0.60   1
   3   5 -10    4.70    0.60   1
  -3  -5  10    4.10    0.60   1
   3   5  -9    3.70    0.50   1
  -3  -5   9    3.30    0.60   1
   3   5  -8   54.40    2.40   1
  -3  -5   8   49.90    1.70   1
   3   5  -7   14.80    0.90   1
  -3  -5   7   14.50    0.80   1
   3   5  -6    1.60    0.60   1
  -3  -5   6    1.60    0.60   1
   3   5  -5    0.80    0.40   1
  -3  -5   5   -0.70    0.40   1
   3   5  -4    9.90    0.70   1
  -3  -5   4    7.80    0.60   1
   3   5  -3   12.10    0.70   1
  -3  -5   3   11.60    0.70   1
   3   5  -2    8.70    0.50   1
  -3  -5   2   10.00    0.60   1
   3   5  -1   57.50    2.70   1
  -3  -5   1   65.50    2.60   1
   3   5   0   14.00    0.60   1
  -3  -5   0   16.90    0.90   1
   3   5   1   13.80    0.60   1
  -3  -5  -1   16.80    1.00   1
   3   5   2   44.20    1.50   1
  -3  -5  -2   47.90    2.10   1
   3   5   3    2.40    0.40   1
  -3  -5  -3    2.50    0.50   1
   3   5   4    2.90    0.50   1
  -3  -5  -4    3.60    0.60   1
   3   5   5   -0.40    0.30   1
  -3  -5  -5    0.50    0.60   1
   3   5   6    3.90    0.50   1
  -3  -5  -6    3.40    0.60   1
   3   5   7   22.90    1.10   1
  -3  -5  -7   25.70    1.60   1
   3   5   8    1.80    0.50   1
  -3  -5  -8    2.90    0.60   1
   3   5   9    4.20    0.80   1
  -3  -5  -9    5.40    0.80   1
   3   5  10    0.10    0.60   1
  -3  -5 -10    0.00    0.60   1
   3   5  11    3.30    0.80   1
  -3  -5 -11    4.40    0.90   1
   3   5  12   -0.30    0.70   1
  -3  -5 -12    0.30    0.80   1
   3   5  13   36.00    2.00   1
  -3  -5 -13   47.50    2.90   1
   3   5  14    1.20    0.80   1
  -3  -5 -14    2.10    0.90   1
   3   6 -13    3.00    1.20   1
  -3  -6  13    1.20    0.80   1
   3   6 -12    3.20    1.00   1
  -3  -6  12    2.70    0.80   1
   3   6 -11    7.40    1.00   1
  -3  -6  11    4.40    0.80   1
   3   6 -10    0.30    0.80   1
  -3  -6  10    0.00    0.60   1
   3   6  -9    0.50    0.80   1
  -3  -6   9    2.00    0.70   1
   3   6  -8    8.80    1.30   1
  -3  -6   8    4.40    0.70   1
   3   6  -7   26.10    1.30   1
  -3  -6   7   26.20    1.30   1
   3   6  -6   23.00    1.50   1
  -3  -6   6   24.10    1.20   1
   3   6  -5    4.20    0.60   1
  -3  -6   5    2.50    0.60   1
   3   6  -4   13.90    0.80   1
  -3  -6   4   13.20    0.90   1
   3   6  -3    0.90    0.60   1
  -3  -6   3    0.70    0.50   1
   3   6  -2    0.60    0.50   1
  -3  -6   2    0.70    0.50   1
   3   6  -1   -0.50    0.50   1
  -3  -6   1   -0.30    0.50   1
   3   6   0   13.30    1.00   1
  -3  -6   0   12.30    1.00   1
   3   6   1    3.50    0.80   1
  -3  -6  -1    4.60    0.80   1
   3   6   2   14.70    0.90   1
  -3  -6  -2   16.20    1.10   1
   3   6   3    7.10    0.70   1
  -3  -6  -3    7.90    0.80   1
   3   6   4    4.10    0.50   1
  -3  -6  -4    2.30    0.70   1
   3   6   5    1.40    0.60   1
  -3  -6  -5    2.30    0.80   1
   3   6   6   -0.90    0.80   1
  -3  -6  -6   -0.50    0.60   1
   3   6   7    3.40    0.70   1
  -3  -6  -7    5.70    0.90   1
   3   6   8   17.40    1.10   1
  -3  -6  -8   20.70    1.40   1
   3   6   9    2.90    0.80   1
  -3  -6  -9    3.80    1.10   1
   3   6  10    4.10    1.00   1
  -3  -6 -10    7.90    1.20   1
   3   6  11    0.70    0.80   1
  -3  -6 -11    1.20    1.00   1
   3   7  -9    2.20    1.60   1
  -3  -7   9    2.40    0.90   1
   3   7  -8    1.70    1.50   1
  -3  -7   8    2.10    0.90   1
   3   7  -7   -1.80    1.70   1
  -3  -7   7   -0.20    0.80   1
   3   7  -6    1.30    1.20   1
  -3  -7   6    0.60    0.80   1
   3   7  -5   -1.00    1.20   1
  -3  -7   5    0.00    0.70   1
   3   7  -4    3.40    1.00   1
  -3  -7   4    1.60    0.80   1
   3   7  -3    3.30    1.00   1
  -3  -7   3    5.60    0.90   1
   3   7  -2    4.00    1.30   1
  -3  -7   2    2.30    0.80   1
   3   7  -1    2.00    0.80   1
  -3  -7   1    1.90    0.80   1
   3   7   0    1.70    0.80   1
  -3  -7   0    1.80    0.70   1
   3   7   1    0.60    0.80   1
  -3  -7  -1    1.60    0.90   1
   3   7   2    0.50    1.10   1
  -3  -7  -2   -0.40    1.00   1
   3   7   3    4.20    1.40   1
  -3  -7  -3    4.60    1.20   1
   3   7   4    3.70    1.40   1
  -3  -7  -4    4.20    0.90   1
   3   7   5    1.90    1.40   1
  -3  -7  -5    2.90    1.00   1
   3   7   6    2.70    2.00   1
  -3  -7  -6    4.10    1.00   1
   3   7   7    3.60    1.70   1
  -3  -7  -7    0.80    1.10   1
   4  -9  -4    2.20    1.60   1
  -4   9   4   -0.10    4.20   1
   4  -9  -3   -1.80    1.70   1
  -4   9   3    0.70    1.30   1
   4  -9  -2    7.50    1.70   1
  -4   9   2    9.40    1.30   1
   4  -9  -1   -3.90    1.60   1
  -4   9   1    1.30    1.10   1
   4  -9   0    2.70    1.30   1
  -4   9   0    2.70    1.10   1
   4  -9   1    1.50    1.20   1
  -4   9  -1    4.10    1.20   1
   4  -9   2    0.40    1.30   1
  -4   9  -2    1.20    1.00   1
   4  -9   3    1.20    1.50   1
  -4   9  -3   -1.90    1.00   1
   4  -9   4    2.80    1.40   1
  -4   9  -4    2.10    1.10   1
   4  -9   5   -0.90    1.40   1
  -4   9  -5    1.50    1.20   1
   4  -9   6    1.10    1.10   1
  -4   9  -6    0.90    1.20   1
   4  -8  -9   -0.40    1.20   1
  -4   8   9    1.10    1.40   1
   4  -8  -8    3.40    1.30   1
  -4   8   8    0.30    1.50   1
   4  -8  -7    1.40    1.30   1
  -4   8   7   -1.60    1.30   1
   4  -8  -6   10.70    1.50   1
  -4   8   6   10.90    1.00   1
   4  -8  -5   18.10    1.80   1
  -4   8   5   22.00    1.40   1
   4  -8  -4    0.10    1.00   1
  -4   8   4    0.60    0.70   1
   4  -8  -3    0.90    1.20   1
  -4   8   3    1.70    0.80   1
   4  -8  -2    0.10    1.00   1
  -4   8   2    2.40    0.80   1
   4  -8  -1    1.30    1.00   1
  -4   8   1    0.80    0.70   1
   4  -8   0    3.00    1.00   1
  -4   8   0    0.10    0.70   1
   4  -8   1    3.00    1.20   1
  -4   8  -1    0.90    0.80   1
   4  -8   2    2.60    1.30   1
  -4   8  -2    2.70    0.90   1
   4  -8   3   10.00    1.30   1
  -4   8  -3   10.20    1.10   1
   4  -8   4    1.20    1.10   1
  -4   8  -4    1.90    0.80   1
   4  -8   5   -0.10    0.70   1
  -4   8  -5    0.50    0.90   1
   4  -8   6   17.70    1.30   1
  -4   8  -6   18.50    1.40   1
   4  -8   7   24.10    1.70   1
  -4   8  -7   20.30    1.50   1
   4  -8   8   40.40    2.20   1
  -4   8  -8   35.90    2.30   1
   4  -8   9   55.30    3.10   1
  -4   8  -9   43.40    2.50   1
   4  -8  10    1.90    1.00   1
  -4   8 -10    2.00    1.10   1
   4  -8  11    2.30    1.00   1
  -4   8 -11   -0.50    1.00   1
   4  -7 -13    2.00    1.30   1
  -4   7  13    2.90    1.60   1
   4  -7 -12    2.90    1.30   1
  -4   7  12    0.70    1.20   1
   4  -7 -11    2.60    1.20   1
  -4   7  11    1.40    1.20   1
   4  -7 -10    1.40    0.90   1
  -4   7  10   -1.20    1.20   1
   4  -7  -9   20.60    2.10   1
  -4   7   9   23.60    1.80   1
   4  -7  -8   -0.80    0.90   1
  -4   7   8   -0.30    0.60   1
   4  -7  -7   17.40    1.50   1
  -4   7   7   18.00    0.90   1
   4  -7  -6    4.10    1.00   1
  -4   7   6    3.20    0.70   1
   4  -7  -5    3.50    1.00   1
  -4   7   5    2.00    0.60   1
   4  -7  -4    8.70    1.10   1
  -4   7   4    7.90    0.90   1
   4  -7  -3    1.40    0.80   1
  -4   7   3    2.80    0.70   1
   4  -7  -2   10.10    1.00   1
  -4   7   2   10.00    0.90   1
   4  -7  -1    1.40    0.90   1
  -4   7   1    1.40    0.60   1
   4  -7   0    5.30    0.90   1
  -4   7   0    4.10    0.80   1
   4  -7   1    3.30    0.90   1
  -4   7  -1    4.20    0.70   1
   4  -7   2   -0.20    0.90   1
  -4   7  -2   -0.20    0.60   1
   4  -7   3    0.90    0.80   1
  -4   7  -3    1.40    0.70   1
   4  -7   4    6.00    0.80   1
  -4   7  -4    5.40    0.70   1
   4  -7   5   15.60    1.00   1
  -4   7  -5   13.60    1.10   1
   4  -7   6   40.40    2.20   1
  -4   7  -6   34.20    2.10   1
   4  -7   7   -0.10    0.60   1
  -4   7  -7   -0.30    0.50   1
   4  -7   8    3.20    0.80   1
  -4   7  -8    3.30    0.60   1
   4  -7   9    1.30    0.70   1
  -4   7  -9   -0.20    0.50   1
   4  -7  10    9.40    1.00   1
  -4   7 -10    8.30    0.80   1
   4  -7  11    0.50    0.80   1
  -4   7 -11   -0.20    0.70   1
   4  -7  12    8.30    0.90   1
  -4   7 -12    5.60    0.90   1
   4  -7  13    0.10    0.90   1
  -4   7 -13    0.70    0.80   1
   4  -7  14    4.50    1.30   1
  -4   7 -14    3.10    1.00   1
   4  -6 -15   -0.90    1.20   1
   4  -6 -14   11.50    1.80   1
  -4   6  14   13.30    2.20   1
   4  -6 -13    1.40    1.20   1
  -4   6  13    2.50    1.50   1
   4  -6 -12    2.40    1.00   1
   4  -6 -11    1.50    0.90   1
  -4   6  11   -0.50    1.30   1
   4  -6 -10    1.00    0.80   1
  -4   6  10    0.90    0.70   1
   4  -6  -9   -0.70    0.80   1
  -4   6   9    0.10    0.60   1
   4  -6  -8   20.00    1.50   1
  -4   6   8   20.10    0.90   1
   4  -6  -7    3.20    0.80   1
  -4   6   7    4.90    0.60   1
   4  -6  -6   50.10    2.40   1
  -4   6   6   52.60    1.50   1
   4  -6  -5   26.00    1.60   1
  -4   6   5   27.50    1.00   1
   4  -6  -4    3.60    0.70   1
  -4   6   4    4.70    0.50   1
   4  -6  -3    1.90    0.80   1
  -4   6   3    2.50    0.50   1
   4  -6  -2    9.20    0.40   1
  -4   6   2   11.20    0.70   1
   4  -6  -1    1.30    0.30   1
  -4   6   1    0.80    0.40   1
   4  -6   0   56.50    3.20   1
  -4   6   0   56.30    1.90   1
   4  -6   1   31.30    1.90   1
  -4   6  -1   28.20    1.10   1
   4  -6   2    0.80    0.40   1
  -4   6  -2    0.20    0.40   1
   4  -6   3    0.30    0.40   1
  -4   6  -3    0.10    0.50   1
   4  -6   4    9.60    0.60   1
  -4   6  -4    8.90    0.80   1
   4  -6   5    1.80    0.50   1
  -4   6  -5    1.40    0.50   1
   4  -6   6    2.90    0.50   1
  -4   6  -6    2.30    0.50   1
   4  -6   7    3.20    0.60   1
  -4   6  -7    2.70    0.50   1
   4  -6   8    2.70    0.60   1
  -4   6  -8    1.50    0.50   1
   4  -6   9   11.30    0.80   1
  -4   6  -9   11.10    0.70   1
   4  -6  10    3.70    0.70   1
  -4   6 -10    2.80    0.60   1
   4  -6  11    3.90    0.60   1
  -4   6 -11    2.80    0.70   1
   4  -6  12    5.20    0.70   1
  -4   6 -12    4.60    0.60   1
   4  -6  13    0.00    0.60   1
  -4   6 -13    0.30    0.60   1
   4  -6  14    1.00    0.80   1
  -4   6 -14    0.40    0.70   1
   4  -6  15    7.40    1.10   1
  -4   6 -15   10.00    1.10   1
  -4   6 -16   -0.60    0.80   1
   4  -5 -17    6.70    1.50   1
   4  -5 -16   -0.20    1.10   1
  -4   5  16    2.40    1.30   1
   4  -5 -15    0.70    1.00   1
  -4   5  15    1.50    1.20   1
   4  -5 -14    0.10    0.70   1
  -4   5  14    2.70    1.20   1
   4  -5 -13   -1.00    0.60   1
  -4   5  13    0.80    1.30   1
   4  -5 -12    0.20    0.50   1
  -4   5  12    1.80    1.20   1
   4  -5 -11    0.70    0.50   1
  -4   5  11    2.00    0.70   1
   4  -5 -10    0.50    0.40   1
  -4   5  10    0.50    0.60   1
   4  -5  -9   52.20    1.90   1
  -4   5   9   56.40    2.30   1
   4  -5  -8    2.40    0.40   1
  -4   5   8    2.70    0.60   1
   4  -5  -7   26.00    1.10   1
  -4   5   7   27.60    0.90   1
   4  -5  -6    6.10    0.50   1
  -4   5   6    6.40    0.60   1
   4  -5  -5    1.70    0.40   1
  -4   5   5    3.50    0.40   1
   4  -5  -4    0.10    0.20   1
  -4   5   4    0.10    0.40   1
   4  -5  -3  109.80    2.00   1
  -4   5   3  117.30    2.80   1
   4  -5  -2   23.70    0.60   1
  -4   5   2   27.10    0.90   1
   4  -5  -1    8.70    0.30   1
  -4   5   1    8.60    0.60   1
   4  -5   0    0.40    0.10   1
  -4   5   0    0.20    0.40   1
   4  -5   1   29.00    0.90   1
  -4   5  -1   30.10    1.00   1
   4  -5   2   19.20    0.70   1
  -4   5  -2   19.40    0.90   1
   4  -5   3   16.40    0.70   1
  -4   5  -3   17.20    0.90   1
   4  -5   4   14.00    0.70   1
  -4   5  -4   14.70    0.80   1
   4  -5   5   17.20    0.80   1
  -4   5  -5   15.40    0.60   1
   4  -5   6   21.10    1.10   1
  -4   5  -6   19.90    0.80   1
   4  -5   7    6.30    0.60   1
  -4   5  -7    5.30    0.50   1
   4  -5   8    1.00    0.40   1
  -4   5  -8    1.10    0.40   1
   4  -5   9    0.10    0.40   1
  -4   5  -9    0.30    0.40   1
   4  -5  10    7.20    0.60   1
  -4   5 -10    5.90    0.60   1
   4  -5  11    0.70    0.50   1
  -4   5 -11    0.00    0.40   1
   4  -5  12   12.10    0.80   1
  -4   5 -12   10.70    0.80   1
   4  -5  13   20.30    1.10   1
  -4   5 -13   18.70    1.00   1
   4  -5  14   20.50    1.40   1
  -4   5 -14   14.60    1.00   1
   4  -5  15    0.10    1.20   1
  -4   5 -15   -0.40    0.70   1
   4  -5  16    7.50    1.70   1
  -4   5 -16    4.60    0.80   1
   4  -5  17   -1.10    1.50   1
  -4   5 -17   -0.60    1.00   1
   4  -4 -18   -1.10    0.70   1
  -4   4  18    0.80    1.70   1
   4  -4 -17    2.90    0.80   1
  -4   4  17    4.10    1.60   1
   4  -4 -16   12.60    1.00   1
  -4   4  16   17.60    2.10   1
   4  -4 -15   -0.60    0.60   1
  -4   4  15   -0.20    1.10   1
   4  -4 -14   42.80    1.70   1
  -4   4  14   46.30    3.60   1
   4  -4 -13    2.50    0.40   1
  -4   4  13    4.70    1.20   1
   4  -4 -12    9.70    0.50   1
  -4   4  12   10.90    1.40   1
   4  -4 -11    0.00    0.30   1
  -4   4  11    0.60    0.70   1
   4  -4 -10    2.40    0.30   1
  -4   4  10    2.70    0.80   1
   4  -4  -9    0.10    0.30   1
  -4   4   9   -0.60    0.50   1
   4  -4  -8   53.90    1.50   1
  -4   4   8   57.90    2.60   1
   4  -4  -7   -0.40    0.30   1
  -4   4   7    0.50    0.40   1
   4  -4  -6   81.20    1.70   1
  -4   4   6   83.60    2.90   1
   4  -4  -5    0.10    0.20   1
  -4   4   5    0.10    0.30   1
   4  -4  -4    8.30    0.30   1
  -4   4   4    9.10    0.50   1
   4  -4  -3    0.80    0.20   1
  -4   4   3    0.70    0.30   1
   4  -4  -2   29.70    0.70   1
  -4   4   2   31.10    0.90   1
   4  -4  -1    7.60    0.30   1
  -4   4   1    7.20    0.40   1
   4  -4   0   87.20    1.70   1
  -4   4   0   89.30    2.00   1
   4  -4   1    7.60    0.40   1
  -4   4  -1    8.20    0.40   1
   4  -4   2   12.60    0.50   1
  -4   4  -2   13.20    0.50   1
   4  -4   3   11.90    0.50   1
  -4   4  -3   12.60    0.50   1
   4  -4   4    0.00    0.20   1
  -4   4  -4    0.20    0.20   1
   4  -4   5    7.20    2.20   1
  -4   4  -5   14.40    0.50   1
   4  -4   6    0.20    0.30   1
  -4   4  -6    0.70    0.30   1
   4  -4   7   32.40    1.30   1
  -4   4  -7   31.40    1.00   1
   4  -4   8    5.10    0.50   1
  -4   4  -8    3.80    0.50   1
   4  -4   9    0.30    0.30   1
  -4   4  -9    0.30    0.10   1
   4  -4  10   15.40    0.80   1
  -4   4 -10   14.60    0.50   1
   4  -4  11    3.70    0.50   1
  -4   4 -11    4.20    0.50   1
   4  -4  12    7.90    0.70   1
  -4   4 -12    6.40    0.60   1
   4  -4  13   18.70    1.20   1
  -4   4 -13   15.10    0.90   1
   4  -4  14    1.80    0.60   1
  -4   4 -14    0.70    0.50   1
   4  -4  15   15.80    2.00   1
  -4   4 -15   14.60    1.00   1
   4  -4  16    1.90    1.40   1
  -4   4 -16    1.00    0.70   1
  -4   4 -17    2.00    0.70   1
   4  -4  18   -0.60    1.50   1
  -4   4 -18    2.30    0.80   1
   4  -3 -19    9.90    1.10   1
  -4   3  19   10.90    2.00   1
   4  -3 -18   23.10    1.60   1
  -4   3  18   24.70    1.90   1
   4  -3 -17   13.80    1.10   1
  -4   3  17   13.20    1.30   1
   4  -3 -16   12.80    1.00   1
  -4   3  16   15.90    1.20   1
   4  -3 -15    0.10    0.50   1
  -4   3  15   -0.70    0.80   1
   4  -3 -14    0.30    0.40   1
  -4   3  14    1.30    0.80   1
   4  -3 -13   94.40    2.70   1
  -4   3  13   96.50    6.10   1
   4  -3 -12    1.30    0.40   1
  -4   3  12    2.40    0.70   1
   4  -3 -11    2.90    0.40   1
  -4   3  11    3.30    0.80   1
   4  -3 -10   17.40    0.60   1
  -4   3  10   20.70    1.10   1
   4  -3  -9   -0.10    0.30   1
  -4   3   9    0.30    0.30   1
   4  -3  -8    2.40    0.30   1
  -4   3   8    2.00    0.40   1
   4  -3  -7    0.50    0.20   1
  -4   3   7    0.70    0.40   1
   4  -3  -6    0.20    0.20   1
  -4   3   6    0.50    0.20   1
   4  -3  -5   24.80    0.60   1
  -4   3   5   25.40    1.10   1
   4  -3  -4    6.70    0.30   1
  -4   3   4    7.70    0.50   1
   4  -3  -3   81.30    1.40   1
  -4   3   3   81.80    1.80   1
   4  -3  -2    1.80    0.20   1
  -4   3   2    1.90    0.20   1
   4  -3  -1   38.40    0.70   1
  -4   3   1   39.20    0.90   1
   4  -3   0    1.80    0.20   1
  -4   3   0    2.00    0.20   1
   4  -3   1   24.90    0.60   1
  -4   3  -1   25.20    0.60   1
   4  -3   2   35.60    1.00   1
  -4   3  -2   37.70    0.70   1
   4  -3   3  170.00    3.70   1
  -4   3  -3  166.40    2.80   1
   4  -3   4    7.80    0.40   1
  -4   3  -4    7.30    0.30   1
   4  -3   5  127.30    3.80   1
  -4   3  -5  129.60    1.80   1
   4  -3   6   10.10    0.60   1
  -4   3  -6    9.60    0.20   1
   4  -3   7    1.00    0.30   1
  -4   3  -7    1.20    0.10   1
   4  -3   8    0.10    0.30   1
  -4   3  -8    0.50    0.10   1
   4  -3   9   60.10    2.50   1
  -4   3  -9   61.80    1.20   1
   4  -3  10   17.90    1.10   1
  -4   3 -10   19.50    0.60   1
   4  -3  11   11.30    0.80   1
  -4   3 -11    9.50    0.50   1
   4  -3  12    0.30    0.70   1
  -4   3 -12    1.10    0.40   1
   4  -3  13    0.00    0.50   1
  -4   3 -13   -0.10    0.40   1
   4  -3  14    0.20    0.60   1
  -4   3 -14   -0.20    0.50   1
   4  -3  15    0.80    0.70   1
  -4   3 -15   -0.20    0.50   1
  -4   3 -16   11.20    0.80   1
   4  -3  17    0.40    1.20   1
  -4   3 -17   -1.00    0.60   1
  -4   3 -18    5.10    1.30   1
   4  -3  19    0.40    1.70   1
   4  -2 -19   -0.60    0.90   1
  -4   2  19   -0.60    1.00   1
   4  -2 -18    6.70    0.80   1
  -4   2  18    6.20    0.90   1
   4  -2 -17   27.50    1.60   1
  -4   2  17   23.70    1.20   1
   4  -2 -16   46.00    2.50   1
  -4   2  16   47.90    1.70   1
   4  -2 -15    9.10    0.80   1
  -4   2  15   10.10    0.70   1
   4  -2 -14   10.10    0.70   1
  -4   2  14   12.40    0.90   1
   4  -2 -13    5.60    0.40   1
  -4   2  13    6.70    0.70   1
   4  -2 -12    0.60    0.20   1
  -4   2  12   -0.60    0.70   1
   4  -2 -11    0.30    0.30   1
  -4   2  11    0.80    0.40   1
   4  -2 -10   17.90    0.70   1
  -4   2  10   19.30    1.00   1
   4  -2  -9   46.60    1.20   1
  -4   2   9   48.90    2.10   1
   4  -2  -8   34.80    0.80   1
  -4   2   8   38.90    1.60   1
   4  -2  -7    8.60    0.40   1
  -4   2   7    9.20    0.50   1
   4  -2  -6   26.40    0.60   1
  -4   2   6   28.60    0.90   1
   4  -2  -5    4.10    0.20   1
  -4   2   5    4.40    0.40   1
   4  -2  -4    0.10    0.10   1
  -4   2   4    0.10    0.20   1
   4  -2  -3    1.40    0.10   1
  -4   2   3    1.70    0.20   1
   4  -2  -2   77.70    1.30   1
  -4   2   2   80.80    1.60   1
   4  -2  -1    0.10    0.10   1
  -4   2   1    0.00    0.10   1
   4  -2   0  248.10    4.20   1
  -4   2   0  247.10    4.00   1
   4  -2   1   17.70    0.40   1
  -4   2  -1   18.60    0.40   1
   4  -2   2   -0.10    0.10   1
  -4   2  -2    0.10    0.10   1
   4  -2   3   59.40    1.60   1
  -4   2  -3   61.90    1.10   1
   4  -2   4    9.00    0.50   1
  -4   2  -4    9.60    0.30   1
   4  -2   5    0.30    0.20   1
  -4   2  -5    0.30    0.10   1
   4  -2   6  114.20    3.60   1
  -4   2  -6  115.10    1.90   1
   4  -2   7   23.60    1.10   1
  -4   2  -7   24.30    0.50   1
   4  -2   8    3.40    0.40   1
  -4   2  -8    4.60    0.30   1
   4  -2   9    0.70    0.40   1
  -4   2  -9    0.90    0.20   1
   4  -2  10    1.60    0.40   1
  -4   2 -10    1.20    0.20   1
   4  -2  11   10.40    0.70   1
  -4   2 -11    9.10    0.50   1
   4  -2  12   23.90    1.40   1
  -4   2 -12   23.80    0.90   1
   4  -2  13   13.00    1.40   1
  -4   2 -13   12.20    0.70   1
   4  -2  14    6.50    0.80   1
  -4   2 -14    7.10    0.60   1
   4  -2  15    7.40    1.00   1
  -4   2 -15    5.80    0.60   1
   4  -2  16    2.50    0.70   1
  -4   2 -16    1.90    0.50   1
   4  -2  17   -0.70    1.20   1
  -4   2 -17    1.20    1.10   1
  -4   2 -18    6.80    1.80   1
   4  -2  19    2.60    1.70   1
  -4   2 -19    0.60    1.60   1
   4  -1 -20    0.60    1.50   1
  -4   1  20    0.20    3.10   1
   4  -1 -19    0.70    1.30   1
  -4   1  19    0.40    1.10   1
   4  -1 -18   19.20    1.80   1
  -4   1  18   15.40    1.80   1
   4  -1 -17    2.50    1.10   1
  -4   1  17    2.00    0.80   1
   4  -1 -16   -0.50    0.70   1
  -4   1  16    0.00    0.60   1
   4  -1 -15    5.80    1.00   1
  -4   1  15    7.00    0.60   1
   4  -1 -14   -0.10    0.60   1
  -4   1  14    0.20    0.40   1
   4  -1 -13    9.50    0.70   1
  -4   1  13   10.70    0.70   1
   4  -1 -12    4.20    0.40   1
  -4   1  12    3.50    0.70   1
   4  -1 -11   19.00    0.80   1
  -4   1  11   22.20    0.90   1
   4  -1 -10   18.20    0.60   1
  -4   1  10   19.60    0.90   1
   4  -1  -9    0.70    0.20   1
  -4   1   9    0.90    0.40   1
   4  -1  -8    0.70    0.20   1
  -4   1   8    0.80    0.30   1
   4  -1  -7  122.20    2.30   1
  -4   1   7  119.60    2.90   1
   4  -1  -6    4.10    0.20   1
  -4   1   6    5.10    0.30   1
   4  -1  -5  151.20    2.80   1
  -4   1   5  144.20    2.80   1
   4  -1  -4   75.90    1.30   1
  -4   1   4   73.40    1.50   1
   4  -1  -3   88.10    1.50   1
  -4   1   3   89.40    1.70   1
   4  -1  -2    0.30    0.10   1
  -4   1   2    0.50    0.20   1
   4  -1  -1  133.10    2.50   1
  -4   1   1  128.60    2.60   1
   4  -1   0   12.00    0.20   1
  -4   1   0   11.90    0.40   1
   4  -1   1    9.60    0.40   1
  -4   1  -1    9.90    0.30   1
   4  -1   2   64.30    1.20   1
  -4   1  -2   62.50    1.30   1
   4  -1   3   66.80    1.30   1
  -4   1  -3   64.00    1.50   1
   4  -1   4   10.40    0.50   1
  -4   1  -4    9.90    0.30   1
   4  -1   5  103.80    2.30   1
  -4   1  -5  100.50    1.70   1
   4  -1   6   12.10    0.50   1
  -4   1  -6   11.30    0.30   1
   4  -1   7   13.10    0.50   1
  -4   1  -7   12.80    0.40   1
   4  -1   8    0.00    0.50   1
  -4   1  -8    0.30    0.20   1
   4  -1   9   63.00    2.20   1
  -4   1  -9   62.90    1.30   1
   4  -1  10   -4.60    2.40   1
  -4   1 -10    4.60    0.30   1
   4  -1  11   64.20    2.50   1
  -4   1 -11   67.80    1.60   1
   4  -1  12    6.40    0.70   1
  -4   1 -12    5.40    0.50   1
   4  -1  13    0.20    3.10   1
  -4   1 -13    0.80    0.50   1
   4  -1  14   12.40    1.30   1
  -4   1 -14   12.70    0.70   1
   4  -1  15   12.60    1.40   1
  -4   1 -15   10.80    1.40   1
   4  -1  16   14.10    1.00   1
  -4   1 -16   13.70    1.60   1
   4  -1  17    3.00    1.30   1
  -4   1 -17    2.00    1.10   1
   4  -1  18    0.10    1.30   1
  -4   1 -18    2.20    1.60   1
   4  -1  19    0.50    1.10   1
  -4   1 -19   -0.70    1.60   1
   4   0 -20   -0.90    1.30   1
  -4   0  20    0.40    1.30   1
   4   0 -19    2.10    1.20   1
  -4   0  19   -0.10    1.20   1
   4   0 -18    0.50    1.20   1
  -4   0  18    0.80    1.30   1
   4   0 -17   11.70    1.70   1
  -4   0  17   13.60    1.50   1
   4   0 -16    1.70    0.80   1
  -4   0  16    1.50    1.00   1
   4   0 -15   24.40    2.10   1
  -4   0  15   24.70    1.20   1
   4   0 -14    0.10    0.60   1
  -4   0  14    0.80    0.50   1
   4   0 -13   14.90    1.40   1
  -4   0  13   16.40    0.90   1
   4   0 -12   -0.30    0.60   1
  -4   0  12   -0.20    0.30   1
   4   0 -11   14.60    0.70   1
  -4   0  11   13.20    0.70   1
   4   0 -10   20.10    0.90   1
  -4   0  10   22.80    0.80   1
   4   0  -9  231.30    5.00   1
  -4   0   9  231.50    5.60   1
   4   0  -8  136.40    2.70   1
  -4   0   8  128.50    3.30   1
   4   0  -7    5.00    0.30   1
  -4   0   7    4.50    0.30   1
   4   0  -6   43.20    0.90   1
  -4   0   6   41.20    1.10   1
   4   0  -5    0.20    0.10   1
  -4   0   5    0.50    0.30   1
   4   0  -4   33.20    0.70   1
  -4   0   4   32.40    0.90   1
   4   0  -3    1.50    0.20   1
  -4   0   3    1.90    0.20   1
   4   0  -2   45.00    1.20   1
  -4   0   2   45.30    1.20   1
   4   0  -1    0.40    0.10   1
  -4   0   1    0.20    0.20   1
   4   0   0    1.70    0.20   1
  -4   0   0    1.50    0.20   1
   4   0   1    6.00    0.30   1
  -4   0  -1    6.80    0.30   1
   4   0   2    0.20    0.20   1
  -4   0  -2    0.90    0.40   1
   4   0   3    7.50    0.30   1
  -4   0  -3    7.50    0.40   1
   4   0   4   34.90    1.00   1
  -4   0  -4   34.60    1.10   1
   4   0   5    2.20    0.30   1
  -4   0  -5    3.00    0.20   1
   4   0   6  162.30    3.70   1
  -4   0  -6  159.40    2.90   1
   4   0   7    1.30    0.30   1
  -4   0  -7    1.40    0.20   1
   4   0   8   31.20    1.20   1
  -4   0  -8   30.00    0.70   1
   4   0   9   -0.20    0.60   1
  -4   0  -9    0.30    0.20   1
   4   0  10    2.00    0.60   1
  -4   0 -10    3.00    0.30   1
   4   0  11    0.70    0.50   1
  -4   0 -11   -0.30    0.30   1
   4   0  12  114.70    6.20   1
  -4   0 -12  137.90    3.80   1
   4   0  13   29.90    1.40   1
  -4   0 -13   35.30    1.10   1
   4   0  14    0.50    0.60   1
  -4   0 -14    0.20    0.50   1
   4   0  15    1.30    4.00   1
  -4   0 -15   10.60    0.90   1
   4   0  16    1.80    0.80   1
  -4   0 -16    0.90    0.70   1
   4   0  17   -1.20    0.80   1
  -4   0 -17   -0.40    0.90   1
   4   0  18    0.90    1.40   1
  -4   0 -18    2.80    0.90   1
   4   0  19   -0.90    1.60   1
  -4   0 -19   -0.20    1.30   1
   4   1 -19    0.80    1.30   1
  -4  -1  19    2.70    1.40   1
   4   1 -18    1.80    1.00   1
  -4  -1  18    3.30    1.30   1
   4   1 -17    1.90    1.00   1
  -4  -1  17    1.70    1.10   1
   4   1 -16    5.10    1.30   1
  -4  -1  16    4.80    1.30   1
   4   1 -15   11.90    1.40   1
  -4  -1  15    8.00    1.10   1
   4   1 -14   46.00    3.30   1
  -4  -1  14   44.20    2.70   1
   4   1 -13    1.20    0.70   1
  -4  -1  13    0.30    0.50   1
   4   1 -12   87.50    4.60   1
  -4  -1  12   81.50    2.90   1
   4   1 -11   40.60    1.60   1
  -4  -1  11   41.20    1.60   1
   4   1 -10   84.50    3.30   1
  -4  -1  10   83.70    2.30   1
   4   1  -9   71.30    2.60   1
  -4  -1   9   68.10    1.90   1
   4   1  -8    1.60    0.40   1
  -4  -1   8    1.70    0.30   1
   4   1  -7    6.10    0.50   1
  -4  -1   7    7.10    0.40   1
   4   1  -6   39.10    1.20   1
  -4  -1   6   39.20    1.20   1
   4   1  -5   60.20    1.60   1
  -4  -1   5   56.80    1.80   1
   4   1  -4    0.80    0.10   1
  -4  -1   4    0.50    0.20   1
   4   1  -3    3.20    0.20   1
  -4  -1   3    2.80    0.40   1
   4   1  -2   -0.20    0.20   1
  -4  -1   2    0.30    0.30   1
   4   1  -1   31.90    1.00   1
  -4  -1   1   30.40    1.00   1
   4   1   0    1.00    0.10   1
  -4  -1   0    1.20    0.20   1
   4   1   1   11.10    0.50   1
  -4  -1  -1   12.00    0.50   1
   4   1   2  107.10    2.80   1
  -4  -1  -2  100.10    2.90   1
   4   1   3   27.70    0.90   1
  -4  -1  -3   26.40    0.80   1
   4   1   4   61.80    1.70   1
  -4  -1  -4   64.00    1.70   1
   4   1   5    0.80    0.30   1
  -4  -1  -5    0.30    0.20   1
   4   1   6    6.90    0.40   1
  -4  -1  -6    7.00    0.30   1
   4   1   7   27.10    1.00   1
  -4  -1  -7   27.50    0.80   1
   4   1   8   15.80    1.40   1
  -4  -1  -8   18.50    0.60   1
   4   1   9   47.80    3.10   1
  -4  -1  -9   55.60    1.40   1
   4   1  10    0.40    0.50   1
  -4  -1 -10    0.10    0.30   1
   4   1  11    0.70    0.40   1
  -4  -1 -11    0.30    0.30   1
   4   1  12    3.00    0.60   1
  -4  -1 -12    2.90    0.40   1
   4   1  13    2.10    0.50   1
  -4  -1 -13    2.50    0.40   1
   4   1  14    0.20    0.60   1
  -4  -1 -14   -0.60    0.40   1
   4   1  15   18.70    1.80   1
  -4  -1 -15   21.40    1.00   1
   4   1  16    0.90    0.70   1
  -4  -1 -16    3.50    0.70   1
   4   1  17   13.60    1.80   1
  -4  -1 -17   15.10    1.10   1
   4   1  18    4.20    1.10   1
  -4  -1 -18    3.50    1.20   1
   4   2 -19   13.50    1.40   1
   4   2 -18    3.10    1.00   1
  -4  -2  18    5.50    1.80   1
   4   2 -17   29.30    1.80   1
  -4  -2  17   25.10    2.30   1
   4   2 -16    0.60    1.10   1
  -4  -2  16    2.20    1.20   1
   4   2 -15    2.00    0.90   1
  -4  -2  15    1.30    0.70   1
   4   2 -14    2.30    0.80   1
  -4  -2  14    1.60    0.70   1
   4   2 -13    3.70    1.00   1
  -4  -2  13    4.10    0.80   1
   4   2 -12    5.40    1.10   1
  -4  -2  12    6.20    0.70   1
   4   2 -11    3.40    0.40   1
  -4  -2  11    4.40    0.70   1
   4   2 -10    1.50    0.40   1
  -4  -2  10    1.70    0.50   1
   4   2  -9   18.30    0.90   1
  -4  -2   9   16.00    0.90   1
   4   2  -8    0.30    0.30   1
  -4  -2   8    0.70    0.40   1
   4   2  -7   19.00    1.40   1
  -4  -2   7   17.10    0.90   1
   4   2  -6    4.30    0.40   1
  -4  -2   6    4.90    0.50   1
   4   2  -5   29.60    1.00   1
  -4  -2   5   30.50    1.00   1
   4   2  -4   44.50    1.30   1
  -4  -2   4   44.90    1.30   1
   4   2  -3   37.80    1.40   1
  -4  -2   3   36.10    1.10   1
   4   2  -2   72.80    2.10   1
  -4  -2   2   72.70    1.90   1
   4   2  -1    5.30    0.30   1
  -4  -2   1    5.50    0.30   1
   4   2   0    5.20    0.30   1
  -4  -2   0    4.40    0.30   1
   4   2   1    4.80    0.30   1
  -4  -2  -1    5.80    0.30   1
   4   2   2   62.00    2.10   1
  -4  -2  -2   67.30    1.90   1
   4   2   3  103.60    3.10   1
  -4  -2  -3  110.30    2.90   1
   4   2   4  182.20    6.20   1
  -4  -2  -4  194.90    5.10   1
   4   2   5    6.10    0.50   1
  -4  -2  -5    6.40    0.40   1
   4   2   6   13.80    0.80   1
  -4  -2  -6   15.30    0.80   1
   4   2   7   14.60    0.70   1
  -4  -2  -7   16.30    0.90   1
   4   2   8   13.90    0.70   1
  -4  -2  -8   15.50    0.80   1
   4   2   9   12.20    0.70   1
  -4  -2  -9   12.20    0.60   1
   4   2  10    3.70    0.50   1
  -4  -2 -10    3.80    0.40   1
   4   2  11    6.30    0.70   1
  -4  -2 -11    6.80    0.50   1
   4   2  12   18.70    0.90   1
  -4  -2 -12   22.40    1.00   1
   4   2  13   -0.50    0.50   1
  -4  -2 -13    0.30    0.50   1
   4   2  14    3.90    0.60   1
  -4  -2 -14    5.20    0.70   1
   4   2  15   -1.60    1.20   1
  -4  -2 -15    0.30    0.60   1
   4   2  16    1.00    0.70   1
  -4  -2 -16    1.00    0.80   1
   4   2  17    0.60    0.90   1
  -4  -2 -17    0.40    1.60   1
   4   3 -17    4.20    1.10   1
  -4  -3  17    3.20    1.50   1
   4   3 -16    9.40    1.10   1
  -4  -3  16    8.20    1.20   1
   4   3 -15    1.20    0.70   1
  -4  -3  15    0.10    0.90   1
   4   3 -14   23.50    2.20   1
  -4  -3  14   17.00    1.40   1
   4   3 -13    3.90    1.10   1
  -4  -3  13    0.10    0.80   1
   4   3 -12    4.30    1.00   1
  -4  -3  12    2.30    0.70   1
   4   3 -11    0.80    0.40   1
  -4  -3  11    2.50    0.70   1
   4   3 -10    1.70    0.50   1
  -4  -3  10    0.90    0.60   1
   4   3  -9    0.10    0.40   1
  -4  -3   9   -0.20    0.50   1
   4   3  -8   36.10    1.40   1
  -4  -3   8   32.20    1.20   1
   4   3  -7    0.80    0.50   1
  -4  -3   7    0.80    0.40   1
   4   3  -6   92.80    6.10   1
  -4  -3   6   86.50    2.50   1
   4   3  -5    7.80    0.70   1
  -4  -3   5    7.90    0.50   1
   4   3  -4    0.30    0.40   1
  -4  -3   4   -0.20    0.30   1
   4   3  -3    7.80    0.50   1
  -4  -3   3    8.80    0.50   1
   4   3  -2   56.30    1.70   1
  -4  -3   2   59.40    1.80   1
   4   3  -1   19.30    0.60   1
  -4  -3   1   21.00    0.70   1
   4   3   0   23.80    1.10   1
  -4  -3   0   27.20    0.90   1
   4   3   1   36.90    1.40   1
  -4  -3  -1   40.80    1.30   1
   4   3   2   33.50    1.20   1
  -4  -3  -2   36.90    1.30   1
   4   3   3   44.40    1.60   1
  -4  -3  -3   51.20    1.70   1
   4   3   4   36.80    1.50   1
  -4  -3  -4   39.90    1.50   1
   4   3   5    0.50    0.40   1
  -4  -3  -5   -0.10    0.40   1
   4   3   6    0.40    0.40   1
  -4  -3  -6    0.30    0.40   1
   4   3   7    0.00    0.60   1
  -4  -3  -7    0.10    0.50   1
   4   3   8   11.10    0.80   1
  -4  -3  -8   14.00    0.90   1
   4   3   9   12.10    0.80   1
  -4  -3  -9   13.20    0.90   1
   4   3  10    3.20    0.90   1
  -4  -3 -10    3.70    0.60   1
   4   3  11    0.20    0.60   1
  -4  -3 -11    0.10    0.50   1
   4   3  12    0.50    0.60   1
  -4  -3 -12    1.60    0.50   1
   4   3  13   11.20    1.10   1
  -4  -3 -13   13.60    0.90   1
   4   3  14    3.00    1.20   1
  -4  -3 -14    5.40    0.80   1
   4   3  15   23.10    1.80   1
  -4  -3 -15   28.20    1.90   1
   4   3  16    0.80    1.10   1
  -4  -3 -16   -1.40    1.30   1
   4   4 -16   -0.40    1.00   1
  -4  -4  16    1.40    1.10   1
   4   4 -15    0.30    0.90   1
  -4  -4  15   -0.70    0.90   1
   4   4 -14    2.40    1.10   1
  -4  -4  14    0.20    0.90   1
   4   4 -13    2.50    0.80   1
  -4  -4  13    1.40    0.90   1
   4   4 -12    1.00    0.90   1
  -4  -4  12    1.20    0.80   1
   4   4 -11    6.60    1.10   1
  -4  -4  11    5.90    0.90   1
   4   4 -10   10.60    0.90   1
  -4  -4  10   11.00    0.70   1
   4   4  -9    5.40    0.70   1
  -4  -4   9    4.40    0.60   1
   4   4  -8    8.00    0.70   1
  -4  -4   8    8.10    0.70   1
   4   4  -7    2.00    0.60   1
  -4  -4   7    1.70    0.50   1
   4   4  -6   13.60    1.30   1
  -4  -4   6   11.90    0.70   1
   4   4  -5  104.00    5.40   1
  -4  -4   5   93.60    3.10   1
   4   4  -4   13.90    1.00   1
  -4  -4   4   12.80    0.70   1
   4   4  -3    5.30    0.60   1
  -4  -4   3    5.10    0.50   1
   4   4  -2    9.30    0.70   1
  -4  -4   2    8.30    0.60   1
   4   4  -1    1.80    0.70   1
  -4  -4   1    1.10    0.40   1
   4   4   0   -0.30    0.30   1
  -4  -4   0    0.70    0.50   1
   4   4   1    2.60    0.50   1
  -4  -4  -1    2.80    0.50   1
   4   4   2    6.20    0.50   1
  -4  -4  -2    8.00    0.70   1
   4   4   3    6.10    0.50   1
  -4  -4  -3    8.20    0.70   1
   4   4   4   14.40    0.80   1
  -4  -4  -4   16.90    1.00   1
   4   4   5    9.40    0.80   1
  -4  -4  -5   10.70    0.80   1
   4   4   6    0.50    0.40   1
  -4  -4  -6    0.40    0.50   1
   4   4   7    0.70    0.50   1
  -4  -4  -7    0.60    0.50   1
   4   4   8   -0.20    0.50   1
  -4  -4  -8    1.10    0.60   1
   4   4   9   12.70    0.80   1
  -4  -4  -9   15.90    1.10   1
   4   4  10   22.40    1.20   1
  -4  -4 -10   29.50    1.80   1
   4   4  11    5.40    1.30   1
  -4  -4 -11    8.30    0.90   1
   4   4  12    2.80    0.80   1
  -4  -4 -12    2.70    0.70   1
   4   4  13    1.00    0.90   1
  -4  -4 -13    4.10    1.50   1
   4   4  14    0.10    0.90   1
  -4  -4 -14   -0.70    1.30   1
   4   5 -14    6.10    1.20   1
  -4  -5  14    3.30    1.10   1
   4   5 -13    0.20    1.00   1
  -4  -5  13    0.50    1.00   1
   4   5 -12    2.40    1.20   1
  -4  -5  12    0.70    0.90   1
   4   5 -11    0.30    0.90   1
  -4  -5  11    1.30    0.70   1
   4   5 -10    5.80    1.00   1
  -4  -5  10    3.70    0.70   1
   4   5  -9    4.70    0.70   1
  -4  -5   9    4.00    0.70   1
   4   5  -8   31.50    1.50   1
  -4  -5   8   31.00    1.40   1
   4   5  -7    0.10    0.50   1
  -4  -5   7    0.50    0.60   1
   4   5  -6    1.10    0.80   1
  -4  -5   6    1.80    0.60   1
   4   5  -5    0.40    0.80   1
  -4  -5   5    1.00    0.50   1
   4   5  -4    1.50    0.80   1
  -4  -5   4    0.30    0.50   1
   4   5  -3    0.50    0.80   1
  -4  -5   3    0.20    0.50   1
   4   5  -2   16.90    1.20   1
  -4  -5   2   17.10    0.90   1
   4   5  -1    3.60    0.90   1
  -4  -5   1    3.40    0.60   1
   4   5   0    8.70    0.90   1
  -4  -5   0    7.70    0.70   1
   4   5   1    1.20    0.90   1
  -4  -5  -1    1.00    0.60   1
   4   5   2    0.70    0.90   1
  -4  -5  -2    1.80    0.60   1
  -4  -5  -3    1.10    0.60   1
   4   5   4    5.30    0.80   1
  -4  -5  -4    6.90    0.80   1
   4   5   5    8.40    0.60   1
  -4  -5  -5   12.70    1.10   1
   4   5   6    8.50    0.80   1
  -4  -5  -6   12.50    1.00   1
   4   5   7    3.00    0.80   1
  -4  -5  -7    2.20    0.70   1
   4   5   8    3.60    0.70   1
  -4  -5  -8    4.40    0.90   1
   4   5   9   -0.10    0.60   1
  -4  -5  -9   -0.40    0.70   1
   4   5  10    5.10    1.10   1
  -4  -5 -10    8.30    1.50   1
   4   5  11    2.20    1.00   1
  -4  -5 -11    1.80    1.60   1
   4   5  12    2.80    0.90   1
  -4  -5 -12    2.50    1.90   1
   4   6 -10    0.60    1.10   1
  -4  -6  10   -0.10    0.80   1
   4   6  -9    0.80    1.00   1
  -4  -6   9    0.60    0.80   1
   4   6  -8    1.80    0.80   1
  -4  -6   8    3.00    0.90   1
   4   6  -7    1.40    0.80   1
  -4  -6   7    1.60    0.80   1
   4   6  -6   -0.50    0.70   1
  -4  -6   6    0.90    0.80   1
   4   6  -5   12.10    1.20   1
  -4  -6   5   11.70    1.00   1
   4   6  -4    0.30    0.60   1
  -4  -6   4   -0.50    0.70   1
   4   6  -3    4.90    0.70   1
  -4  -6   3    3.90    0.80   1
   4   6  -2    0.40    0.80   1
  -4  -6   2   -0.30    0.70   1
   4   6  -1   -0.10    0.90   1
  -4  -6   1   -0.70    0.60   1
   4   6   0    2.50    0.90   1
  -4  -6   0    1.90    0.70   1
   4   6   1   29.20    1.70   1
  -4  -6  -1   31.90    1.80   1
   4   6   2    1.60    1.20   1
  -4  -6  -2    0.70    0.80   1
   4   6   3   11.00    1.10   1
  -4  -6  -3   13.60    1.30   1
   4   6   4    0.30    1.20   1
  -4  -6  -4   -0.50    0.80   1
  -4  -6  -5   -0.10    1.00   1
   4   6   6    2.80    1.50   1
  -4  -6  -6    4.80    1.80   1
   4   6   7    8.70    2.20   1
  -4  -6  -7   11.80    2.10   1
   4   6   8    2.30    1.80   1
  -4  -6  -8    5.50    1.80   1
   4   7  -3    1.30    1.00   1
  -4  -7   3    0.50    0.90   1
   4   7  -2    3.80    1.10   1
  -4  -7   2    4.00    0.90   1
   4   7  -1    0.10    1.30   1
  -4  -7   1   -0.20    0.80   1
   4   7   0    1.80    1.10   1
  -4  -7   0    2.80    0.90   1
   5  -9   1   -0.20    1.00   1
  -5   9  -1    0.80    1.20   1
   5  -8  -8    1.30    1.60   1
  -5   8   8    4.10    2.70   1
   5  -8  -7    0.50    1.30   1
  -5   8   7   -0.60    3.00   1
   5  -8  -6   10.30    1.70   1
  -5   8   6   12.30    1.20   1
   5  -8  -5   -0.20    1.20   1
  -5   8   5    0.10    0.90   1
   5  -8  -4   17.90    1.70   1
  -5   8   4   19.40    1.40   1
   5  -8  -3    4.70    0.80   1
  -5   8   3    5.50    1.00   1
   5  -8  -2    0.00    0.80   1
  -5   8   2   -0.70    0.70   1
   5  -8  -1    2.00    0.70   1
  -5   8   1    2.00    0.90   1
   5  -8   0    0.70    0.80   1
  -5   8   0    1.70    1.00   1
   5  -8   1    0.40    0.80   1
  -5   8  -1    0.50    0.90   1
   5  -8   2   30.10    1.80   1
  -5   8  -2   28.70    1.80   1
   5  -8   3    8.40    1.00   1
  -5   8  -3    7.60    1.10   1
   5  -8   4    0.00    0.80   1
  -5   8  -4    1.10    1.00   1
   5  -8   5    3.00    0.90   1
  -5   8  -5    2.90    1.00   1
   5  -8   6    0.10    0.80   1
  -5   8  -6    1.90    1.00   1
   5  -8   7    3.10    1.00   1
  -5   8  -7    2.40    1.10   1
   5  -8   8   -0.50    0.80   1
  -5   8  -8   -1.30    1.10   1
   5  -8   9    1.30    0.90   1
  -5   8  -9    2.00    1.30   1
   5  -7 -11    3.70    1.00   1
  -5   7  11    6.50    1.80   1
   5  -7 -10   -0.30    0.70   1
  -5   7  10   -1.40    1.70   1
   5  -7  -9    1.50    0.80   1
  -5   7   9    2.80    1.60   1
   5  -7  -8    5.10    0.70   1
  -5   7   8    7.20    1.50   1
   5  -7  -7    3.80    0.70   1
  -5   7   7    5.40    0.80   1
   5  -7  -6    0.60    0.70   1
  -5   7   6    0.80    0.70   1
   5  -7  -5    0.70    0.60   1
  -5   7   5    0.40    0.80   1
   5  -7  -4    0.50    0.60   1
  -5   7   4    0.70    0.70   1
   5  -7  -3    5.60    0.80   1
  -5   7   3    4.70    0.80   1
   5  -7  -2    1.90    0.70   1
  -5   7   2    1.10    0.70   1
   5  -7  -1   38.20    1.80   1
  -5   7   1   39.60    1.90   1
   5  -7   0    4.80    0.70   1
  -5   7   0    4.70    0.90   1
   5  -7   1    1.60    0.60   1
  -5   7  -1    0.90    0.70   1
   5  -7   2    0.10    0.60   1
  -5   7  -2   -0.20    0.70   1
   5  -7   3   19.10    1.20   1
  -5   7  -3   19.10    1.20   1
   5  -7   4    6.20    0.80   1
  -5   7  -4    4.60    0.80   1
   5  -7   5   15.30    1.10   1
  -5   7  -5   15.80    1.20   1
   5  -7   6    0.80    0.60   1
  -5   7  -6    1.40    0.70   1
   5  -7   7   10.80    1.00   1
  -5   7  -7    9.40    1.20   1
   5  -7   8   -0.90    0.60   1
  -5   7  -8    0.60    0.80   1
   5  -7   9    0.20    0.80   1
  -5   7  -9   -0.30    0.70   1
   5  -7  10   -1.00    0.80   1
  -5   7 -10   -0.40    0.70   1
   5  -7  11    3.20    0.90   1
  -5   7 -11    3.20    0.90   1
   5  -7  12    2.00    0.90   1
  -5   7 -12    0.80    0.80   1
   5  -7  13    0.40    1.20   1
  -5   7 -13   -0.80    1.30   1
   5  -6 -14    9.60    1.70   1
  -5   6  14   13.20    2.20   1
   5  -6 -13    3.50    0.90   1
  -5   6  13    2.50    1.60   1
   5  -6 -12   15.30    1.10   1
  -5   6  12   14.70    1.90   1
   5  -6 -11    1.60    0.70   1
  -5   6  11    1.40    1.40   1
   5  -6 -10    1.40    0.70   1
  -5   6  10    2.10    1.30   1
   5  -6  -9   -0.50    0.50   1
  -5   6   9   -0.20    0.90   1
   5  -6  -8   11.30    0.90   1
  -5   6   8   14.00    1.20   1
   5  -6  -7    2.80    0.60   1
  -5   6   7    4.50    1.20   1
   5  -6  -6   30.10    1.50   1
  -5   6   6   32.10    1.10   1
   5  -6  -5    5.80    0.60   1
  -5   6   5    6.20    0.70   1
   5  -6  -4   14.50    1.00   1
  -5   6   4   14.80    1.00   1
   5  -6  -3    0.60    0.50   1
  -5   6   3   -0.10    0.50   1
   5  -6  -2    1.30    0.50   1
  -5   6   2    2.00    0.60   1
   5  -6  -1    3.30    0.50   1
  -5   6   1    1.40    0.60   1
   5  -6   0   23.20    1.10   1
  -5   6   0   21.20    1.00   1
   5  -6   1    0.10    0.40   1
  -5   6  -1    0.90    0.60   1
   5  -6   2   18.60    0.90   1
  -5   6  -2   17.10    1.10   1
   5  -6   3    1.40    0.50   1
  -5   6  -3    2.70    0.90   1
   5  -6   4   -0.10    0.50   1
  -5   6  -4    0.40    0.50   1
   5  -6   5    4.40    0.60   1
  -5   6  -5    2.70    0.60   1
   5  -6   6    1.80    0.50   1
  -5   6  -6    1.90    0.60   1
   5  -6   7    5.70    0.70   1
  -5   6  -7    4.40    0.50   1
   5  -6   8    3.00    0.60   1
  -5   6  -8    3.30    0.60   1
   5  -6   9    4.30    0.70   1
  -5   6  -9    5.50    0.70   1
   5  -6  10    1.90    0.70   1
  -5   6 -10    2.20    0.60   1
   5  -6  11    0.70    0.60   1
  -5   6 -11    0.30    0.60   1
   5  -6  12    1.00    0.70   1
  -5   6 -12    0.20    0.70   1
   5  -6  13    1.20    0.80   1
  -5   6 -13    0.80    0.70   1
   5  -6  14   12.90    2.20   1
  -5   6 -14   11.10    1.10   1
   5  -6  15    3.50    1.90   1
  -5   6 -15    3.80    1.00   1
   5  -5 -16   10.20    1.90   1
  -5   5  16   13.50    2.20   1
   5  -5 -15    2.30    1.00   1
  -5   5  15    2.30    1.40   1
   5  -5 -14    1.50    1.00   1
  -5   5  14    2.50    1.50   1
   5  -5 -13    0.50    0.60   1
  -5   5  13    0.80    1.10   1
   5  -5 -12    5.70    0.70   1
   5  -5 -11   71.60    2.70   1
  -5   5  11   72.40    4.70   1
   5  -5 -10    0.60    0.40   1
  -5   5  10    1.00    0.70   1
   5  -5  -9   -0.60    0.40   1
  -5   5   9    0.80    0.70   1
   5  -5  -8   16.30    0.70   1
  -5   5   8   18.20    1.20   1
   5  -5  -7    1.80    0.40   1
  -5   5   7    2.40    0.90   1
   5  -5  -6    0.20    0.30   1
  -5   5   6   -0.40    0.90   1
   5  -5  -5   17.10    0.70   1
  -5   5   5   18.60    1.10   1
   5  -5  -4    6.10    0.40   1
  -5   5   4    6.60    0.70   1
   5  -5  -3   14.70    0.70   1
  -5   5   3   16.80    0.80   1
   5  -5  -2   15.70    0.80   1
  -5   5   2   14.80    0.80   1
   5  -5  -1   13.70    0.80   1
  -5   5   1   12.90    0.70   1
   5  -5   0   -0.10    0.40   1
  -5   5   0   -0.10    0.50   1
   5  -5   1    0.00    0.30   1
  -5   5  -1    0.20    0.40   1
   5  -5   2    9.90    0.70   1
  -5   5  -2    8.40    0.60   1
   5  -5   3   15.50    0.80   1
  -5   5  -3   15.00    0.90   1
   5  -5   4    1.60    0.50   1
  -5   5  -4    1.20    0.50   1
   5  -5   5   34.80    1.40   1
  -5   5  -5   33.20    1.60   1
   5  -5   6    0.70    0.40   1
  -5   5  -6    0.40    0.50   1
   5  -5   7   27.30    1.20   1
  -5   5  -7   26.70    1.00   1
   5  -5   8    1.30    0.40   1
  -5   5  -8    1.20    0.40   1
   5  -5   9    1.60    0.50   1
  -5   5  -9    0.80    0.50   1
   5  -5  10   -0.60    0.50   1
  -5   5 -10    0.40    0.50   1
   5  -5  11   29.80    1.50   1
  -5   5 -11   29.30    1.40   1
   5  -5  12    3.20    0.60   1
  -5   5 -12    3.20    0.60   1
   5  -5  13    4.30    1.00   1
  -5   5 -13    4.60    0.70   1
   5  -5  14    2.30    0.90   1
  -5   5 -14   -0.50    0.70   1
   5  -5  15    2.70    1.80   1
  -5   5 -15    0.50    0.70   1
   5  -5  16    1.30    1.70   1
  -5   5 -16    2.40    1.10   1
   5  -4 -17    6.50    0.90   1
  -5   4  17    4.30    1.90   1
   5  -4 -16    1.80    0.90   1
  -5   4  16    4.10    1.30   1
   5  -4 -15   37.90    2.00   1
  -5   4  15   44.40    3.70   1
   5  -4 -14   13.30    1.10   1
  -5   4  14   15.00    1.70   1
   5  -4 -13    6.50    0.60   1
  -5   4  13    9.30    1.50   1
   5  -4 -12    0.00    0.40   1
  -5   4  12   -1.30    1.20   1
   5  -4 -11   -0.40    0.40   1
  -5   4  11    1.20    0.90   1
   5  -4 -10   -0.20    0.40   1
  -5   4  10    0.70    0.70   1
   5  -4  -9    5.80    0.50   1
  -5   4   9    7.40    0.80   1
   5  -4  -8    2.40    0.40   1
  -5   4   8    2.90    0.90   1
   5  -4  -7   41.80    1.20   1
  -5   4   7   38.40    2.60   1
   5  -4  -6   13.10    0.60   1
  -5   4   6   15.70    1.50   1
   5  -4  -5   10.20    0.60   1
  -5   4   5   12.90    1.10   1
   5  -4  -4    0.00    0.20   1
  -5   4   4    0.80    0.50   1
   5  -4  -3    0.30    0.20   1
  -5   4   3    0.70    0.40   1
   5  -4  -2    7.60    0.40   1
  -5   4   2    9.00    0.50   1
   5  -4  -1    2.20    0.20   1
  -5   4   1    2.60    0.40   1
   5  -4   0   47.20    1.30   1
  -5   4   0   50.30    1.40   1
   5  -4   1    7.40    0.30   1
  -5   4  -1    9.00    0.50   1
   5  -4   2   45.00    1.40   1
  -5   4  -2   44.20    1.20   1
   5  -4   3    4.90    0.40   1
  -5   4  -3    5.40    0.50   1
   5  -4   4   23.10    1.00   1
  -5   4  -4   23.50    0.90   1
   5  -4   5    4.70    0.50   1
  -5   4  -5    4.90    0.60   1
   5  -4   6   10.60    0.70   1
  -5   4  -6   10.60    0.60   1
   5  -4   7    3.10    0.40   1
  -5   4  -7    3.90    0.50   1
   5  -4   8   41.70    1.60   1
  -5   4  -8   42.20    1.40   1
   5  -4   9    2.10    0.40   1
  -5   4  -9    2.60    0.50   1
   5  -4  10    0.80    0.60   1
  -5   4 -10    0.80    0.40   1
   5  -4  11    1.00    0.60   1
  -5   4 -11   -0.10    0.50   1
   5  -4  12    5.30    0.80   1
  -5   4 -12    3.00    0.60   1
   5  -4  13    0.80    0.60   1
  -5   4 -13    0.70    0.70   1
   5  -4  14   11.50    1.20   1
  -5   4 -14   12.50    1.00   1
   5  -4  15    2.00    1.20   1
  -5   4 -15    1.30    0.70   1
   5  -4  16    1.90    1.40   1
  -5   4 -16    3.90    0.80   1
   5  -4  17   -0.60    1.50   1
  -5   4 -17    0.90    0.90   1
   5  -3 -18    4.40    1.10   1
   5  -3 -17    4.50    0.90   1
  -5   3  17    7.20    1.70   1
   5  -3 -16    5.30    0.80   1
  -5   3  16    6.20    1.40   1
   5  -3 -15    0.50    0.60   1
  -5   3  15    1.60    1.10   1
   5  -3 -14    7.60    0.70   1
  -5   3  14    9.50    1.30   1
   5  -3 -13    4.30    0.50   1
  -5   3  13    5.70    0.90   1
   5  -3 -12   12.50    0.70   1
  -5   3  12   15.00    1.20   1
   5  -3 -11    0.30    0.30   1
  -5   3  11    0.20    0.60   1
   5  -3 -10    2.00    0.40   1
  -5   3  10    3.70    0.80   1
   5  -3  -9    1.60    0.40   1
  -5   3   9    2.90    0.60   1
   5  -3  -8    0.30    0.30   1
  -5   3   8    0.70    0.60   1
   5  -3  -7    0.30    0.30   1
  -5   3   7    0.10    0.40   1
   5  -3  -6   11.40    0.50   1
  -5   3   6   12.30    0.70   1
   5  -3  -5   56.10    1.40   1
  -5   3   5   57.40    2.20   1
   5  -3  -4    8.10    0.40   1
  -5   3   4    9.40    0.60   1
   5  -3  -3   44.80    1.10   1
  -5   3   3   48.50    1.50   1
   5  -3  -2   31.00    0.80   1
  -5   3   2   33.80    1.10   1
   5  -3  -1   23.60    0.80   1
  -5   3   1   22.50    0.70   1
   5  -3   0    1.60    0.20   1
  -5   3   0    1.80    0.20   1
   5  -3   1   97.20    2.30   1
  -5   3  -1  102.00    1.90   1
   5  -3   2    1.20    0.20   1
  -5   3  -2    2.00    0.20   1
   5  -3   3    0.30    0.20   1
  -5   3  -3    0.20    0.10   1
   5  -3   4   78.90    2.60   1
  -5   3  -4   81.20    1.40   1
   5  -3   5    1.20    0.30   1
  -5   3  -5    1.80    0.20   1
   5  -3   6    8.10    0.40   1
  -5   3  -6    9.50    0.30   1
   5  -3   7    6.30    0.60   1
  -5   3  -7    6.60    0.20   1
   5  -3   8   14.00    1.00   1
  -5   3  -8   13.60    0.40   1
   5  -3   9   16.20    1.00   1
  -5   3  -9   15.60    0.60   1
   5  -3  10    3.90    0.70   1
  -5   3 -10    3.00    0.30   1
   5  -3  11   14.90    1.10   1
  -5   3 -11   13.30    0.60   1
   5  -3  12   -0.50    0.60   1
  -5   3 -12    0.10    0.50   1
   5  -3  13    8.70    0.90   1
  -5   3 -13    8.90    0.70   1
   5  -3  14    5.10    0.90   1
  -5   3 -14    3.50    0.70   1
   5  -3  15    5.00    0.90   1
  -5   3 -15    3.10    0.70   1
   5  -3  16    4.10    1.30   1
  -5   3 -16    2.90    0.80   1
   5  -3  17    9.40    1.70   1
  -5   3 -17    8.60    1.60   1
  -5   3 -18    3.00    1.50   1
   5  -2 -18    0.20    0.90   1
   5  -2 -17    1.90    0.80   1
  -5   2  17    5.60    1.40   1
   5  -2 -16    1.60    0.70   1
  -5   2  16    1.90    1.40   1
   5  -2 -15   17.50    1.10   1
  -5   2  15   21.20    1.60   1
   5  -2 -14   -0.10    0.50   1
  -5   2  14   -0.80    0.70   1
   5  -2 -13    8.90    0.60   1
  -5   2  13   11.80    1.10   1
   5  -2 -12    1.40    0.40   1
  -5   2  12    0.50    0.60   1
   5  -2 -11    0.20    0.30   1
  -5   2  11    0.70    0.50   1
   5  -2 -10    0.40    0.30   1
  -5   2  10    0.60    0.50   1
   5  -2  -9   42.20    1.20   1
  -5   2   9   44.70    2.20   1
   5  -2  -8    0.30    0.30   1
  -5   2   8   -0.30    0.60   1
   5  -2  -7  139.20    3.30   1
  -5   2   7  146.40    4.60   1
   5  -2  -6   53.00    1.30   1
  -5   2   6   53.50    1.60   1
   5  -2  -5    2.40    0.30   1
  -5   2   5    3.50    0.30   1
   5  -2  -4   47.20    1.10   1
  -5   2   4   51.20    1.10   1
   5  -2  -3    5.60    0.30   1
  -5   2   3    5.80    0.40   1
   5  -2  -2   13.30    0.40   1
  -5   2   2   14.50    0.50   1
   5  -2  -1    6.60    0.30   1
  -5   2   1    8.20    0.30   1
   5  -2   0   13.20    0.40   1
  -5   2   0   14.90    0.50   1
   5  -2   1    1.80    0.20   1
  -5   2  -1    2.60    0.30   1
   5  -2   2    3.90    0.20   1
  -5   2  -2    4.30    0.30   1
   5  -2   3    0.20    0.40   1
  -5   2  -3    0.30    0.20   1
   5  -2   4    3.40    0.50   1
  -5   2  -4    3.90    0.20   1
   5  -2   5   22.80    1.00   1
  -5   2  -5   25.10    0.60   1
   5  -2   6   26.10    1.10   1
  -5   2  -6   27.90    0.70   1
   5  -2   7   17.50    1.00   1
  -5   2  -7   18.20    0.60   1
   5  -2   8   39.20    1.50   1
  -5   2  -8   39.10    1.00   1
   5  -2   9    1.00    0.70   1
  -5   2  -9    0.80    0.30   1
   5  -2  10    0.30    0.50   1
  -5   2 -10    0.00    0.30   1
   5  -2  11    1.40    0.50   1
  -5   2 -11    0.20    0.30   1
   5  -2  12    5.00    0.70   1
  -5   2 -12    6.80    0.60   1
   5  -2  13    9.10    0.90   1
  -5   2 -13    9.30    0.60   1
   5  -2  14   46.80    3.80   1
  -5   2 -14   45.10    1.60   1
   5  -2  15   12.00    1.00   1
  -5   2 -15   10.20    0.90   1
   5  -2  16    2.90    0.80   1
  -5   2 -16    2.90    1.20   1
   5  -2  17    5.40    1.80   1
   5  -2  18    1.40    1.50   1
  -5   2 -18    1.80    1.40   1
   5  -1 -18    6.30    1.50   1
  -5   1  18    5.30    1.20   1
   5  -1 -17    0.40    1.10   1
  -5   1  17    1.20    1.00   1
   5  -1 -16   -0.80    1.40   1
  -5   1  16    1.00    1.00   1
   5  -1 -15   -0.20    1.00   1
  -5   1  15   -1.80    0.80   1
   5  -1 -14   21.20    1.80   1
  -5   1  14   20.10    1.20   1
   5  -1 -13    1.50    0.70   1
  -5   1  13    3.80    0.70   1
   5  -1 -12   53.70    2.60   1
  -5   1  12   52.00    1.90   1
   5  -1 -11    4.60    0.50   1
  -5   1  11    4.60    0.60   1
   5  -1 -10   83.80    3.50   1
  -5   1  10   84.60    2.40   1
   5  -1  -9   15.20    0.80   1
  -5   1   9   14.80    0.70   1
   5  -1  -8  196.20    4.50   1
  -5   1   8  194.30    5.00   1
   5  -1  -7   61.00    1.30   1
  -5   1   7   61.40    1.80   1
   5  -1  -6    5.30    0.30   1
  -5   1   6    5.80    0.40   1
   5  -1  -5    1.60    0.20   1
  -5   1   5    1.10    0.30   1
   5  -1  -4   27.80    0.70   1
  -5   1   4   30.50    0.90   1
   5  -1  -3    9.80    0.30   1
  -5   1   3   10.10    0.50   1
   5  -1  -2    7.70    0.30   1
  -5   1   2    9.10    0.40   1
   5  -1  -1    1.40    0.10   1
  -5   1   1    1.50    0.20   1
   5  -1   0   17.70    0.80   1
  -5   1   0   18.90    0.60   1
   5  -1   1    7.10    0.40   1
  -5   1  -1    7.20    0.40   1
   5  -1   2    0.20    0.30   1
  -5   1  -2    0.10    0.20   1
   5  -1   3    0.00    0.20   1
  -5   1  -3    0.40    0.20   1
   5  -1   4   35.10    1.30   1
  -5   1  -4   35.60    1.10   1
   5  -1   5    0.30    0.40   1
  -5   1  -5    1.20    0.30   1
   5  -1   6   10.60    0.70   1
  -5   1  -6   11.30    0.60   1
   5  -1   7    4.50    0.80   1
  -5   1  -7    4.00    0.20   1
   5  -1   8    0.50    0.40   1
  -5   1  -8    0.40    0.20   1
   5  -1   9   13.70    0.80   1
  -5   1  -9   13.10    0.60   1
   5  -1  10   13.60    1.40   1
  -5   1 -10   14.70    0.70   1
   5  -1  11   11.70    0.80   1
  -5   1 -11   11.30    0.60   1
   5  -1  12    0.20    0.60   1
  -5   1 -12   -0.20    0.40   1
   5  -1  13    5.30    0.90   1
  -5   1 -13    4.10    0.50   1
   5  -1  14    4.60    0.90   1
  -5   1 -14    6.40    0.80   1
   5  -1  15    3.90    1.00   1
  -5   1 -15    7.90    1.00   1
   5  -1  16    6.10    1.70   1
  -5   1 -16    3.20    1.00   1
   5  -1  17    6.30    1.60   1
  -5   1 -17    5.00    1.40   1
   5  -1  18   -0.90    1.60   1
  -5   1 -18   -0.50    1.30   1
   5   0 -18   -0.90    1.40   1
  -5   0  18   -0.30    1.20   1
   5   0 -17   13.30    1.90   1
  -5   0  17   10.60    1.70   1
   5   0 -16    9.20    1.60   1
  -5   0  16   10.10    1.50   1
   5   0 -15   20.10    1.90   1
  -5   0  15   18.10    1.60   1
   5   0 -14    2.20    1.00   1
  -5   0  14    2.00    0.80   1
   5   0 -13    3.80    1.10   1
  -5   0  13    1.30    0.90   1
   5   0 -12    0.10    0.40   1
  -5   0  12    0.40    0.60   1
   5   0 -11   12.90    1.30   1
  -5   0  11   14.40    0.90   1
   5   0 -10    4.00    0.50   1
  -5   0  10    2.90    0.50   1
   5   0  -9    3.00    0.50   1
  -5   0   9    2.90    0.50   1
   5   0  -8    9.20    0.70   1
  -5   0   8    8.60    0.60   1
   5   0  -7    5.60    0.40   1
  -5   0   7    5.10    0.50   1
   5   0  -6    1.10    0.20   1
  -5   0   6    1.20    0.40   1
   5   0  -5    0.30    0.20   1
  -5   0   5    0.10    0.30   1
   5   0  -4   11.40    0.40   1
  -5   0   4   12.70    0.60   1
   5   0  -3   83.00    1.80   1
  -5   0   3   86.30    2.60   1
   5   0  -2    6.40    0.30   1
  -5   0   2    7.40    0.50   1
   5   0  -1   36.30    1.30   1
  -5   0   1   35.60    1.30   1
   5   0   0   15.10    0.60   1
  -5   0   0   14.00    0.60   1
   5   0   1   13.10    0.60   1
  -5   0  -1   13.70    0.50   1
   5   0   2    3.80    0.50   1
  -5   0  -2    3.30    0.30   1
   5   0   3    5.30    0.50   1
  -5   0  -3    4.90    0.50   1
   5   0   4   13.90    1.10   1
  -5   0  -4   15.60    0.90   1
   5   0   5   96.70    3.00   1
  -5   0  -5   94.30    2.60   1
   5   0   6  110.90    3.50   1
  -5   0  -6  115.80    3.20   1
   5   0   7    9.00    1.00   1
  -5   0  -7    9.10    0.30   1
   5   0   8   26.00    1.40   1
  -5   0  -8   28.60    0.80   1
   5   0   9    6.10    0.70   1
  -5   0  -9    6.50    0.40   1
   5   0  10    2.40    0.60   1
  -5   0 -10    2.90    0.30   1
   5   0  11   20.10    1.20   1
  -5   0 -11   22.20    0.90   1
  -5   0 -12    1.70    0.40   1
   5   0  13   11.60    1.00   1
  -5   0 -13   13.00    1.00   1
   5   0  14    5.20    1.20   1
  -5   0 -14    3.30    0.70   1
   5   0  15    0.60    1.00   1
  -5   0 -15   -0.40    0.90   1
   5   0  16    1.30    0.80   1
  -5   0 -16    0.90    0.80   1
   5   0  17   -1.60    1.00   1
  -5   0 -17    0.40    0.90   1
   5   1 -18    4.10    1.50   1
  -5  -1  18    2.20    1.30   1
   5   1 -17   17.10    2.10   1
  -5  -1  17   11.90    1.60   1
   5   1 -16   29.00    2.90   1
  -5  -1  16   27.90    2.40   1
   5   1 -15    0.10    1.10   1
  -5  -1  15    0.40    1.20   1
   5   1 -14    9.00    1.40   1
  -5  -1  14    8.10    0.90   1
   5   1 -13    1.10    0.90   1
  -5  -1  13    0.10    0.60   1
   5   1 -12   10.30    1.10   1
  -5  -1  12    8.60    0.80   1
   5   1 -11    3.70    0.50   1
  -5  -1  11    3.00    0.70   1
   5   1 -10   -0.30    0.40   1
  -5  -1  10   -0.30    0.50   1
   5   1  -9    1.10    0.70   1
  -5  -1   9    1.10    0.50   1
   5   1  -8    4.50    0.60   1
  -5  -1   8    4.70    0.60   1
   5   1  -7    4.00    0.50   1
  -5  -1   7    3.00    0.50   1
   5   1  -6   41.30    1.70   1
  -5  -1   6   40.00    1.40   1
   5   1  -5    6.50    0.40   1
  -5  -1   5    7.70    0.60   1
   5   1  -4   43.90    1.20   1
  -5  -1   4   49.00    1.50   1
   5   1  -3    6.40    0.30   1
  -5  -1   3    8.00    0.60   1
   5   1  -2   12.40    0.60   1
  -5  -1   2   12.80    0.70   1
   5   1  -1    4.60    0.30   1
  -5  -1   1    4.10    0.50   1
   5   1   0  118.40    3.60   1
  -5  -1   0  123.10    3.90   1
   5   1   1    9.80    0.70   1
  -5  -1  -1   10.00    0.60   1
   5   1   2   24.30    1.10   1
  -5  -1  -2   24.50    2.80   1
   5   1   3    9.80    1.00   1
  -5  -1  -3    9.90    0.90   1
   5   1   4   95.80    4.00   1
  -5  -1  -4  101.10    3.80   1
   5   1   5   59.30    2.50   1
  -5  -1  -5   66.50    1.60   1
   5   1   6    2.90    0.60   1
  -5  -1  -6    3.10    0.20   1
   5   1   7    1.60    0.70   1
  -5  -1  -7    0.80    0.30   1
   5   1   8    0.40    0.50   1
  -5  -1  -8    0.40    0.30   1
   5   1   9    1.20    0.70   1
  -5  -1  -9    2.40    0.40   1
   5   1  10    3.50    0.70   1
  -5  -1 -10    4.50    0.50   1
   5   1  11    2.10    0.60   1
  -5  -1 -11    2.30    0.70   1
   5   1  12   -0.40    0.70   1
  -5  -1 -12    0.30    0.70   1
   5   1  13    0.10    0.80   1
  -5  -1 -13    1.10    0.70   1
   5   1  14    6.40    0.70   1
  -5  -1 -14    5.90    0.90   1
   5   1  15    6.20    0.90   1
  -5  -1 -15    9.40    1.10   1
   5   1  16    8.30    1.20   1
  -5  -1 -16    8.40    1.30   1
   5   2 -17    1.60    1.60   1
  -5  -2  17    0.90    1.50   1
   5   2 -16    0.80    1.20   1
  -5  -2  16    0.70    0.90   1
   5   2 -15   -0.70    1.00   1
  -5  -2  15   -0.60    0.80   1
   5   2 -14    1.10    1.00   1
  -5  -2  14    0.20    0.80   1
   5   2 -13    5.30    1.30   1
  -5  -2  13    2.70    0.80   1
   5   2 -12   -0.70    0.90   1
  -5  -2  12    0.90    0.70   1
   5   2 -11    2.40    1.00   1
  -5  -2  11    2.20    0.80   1
   5   2 -10   -0.30    0.50   1
  -5  -2  10   -0.10    0.70   1
   5   2  -9    0.50    0.50   1
  -5  -2   9   -0.50    0.50   1
   5   2  -8    4.60    0.50   1
  -5  -2   8    5.20    0.70   1
   5   2  -7    0.60    0.60   1
  -5  -2   7   -0.10    0.50   1
   5   2  -6    3.90    0.80   1
  -5  -2   6    2.90    0.60   1
   5   2  -5    8.50    0.70   1
  -5  -2   5    8.70    0.70   1
   5   2  -4   31.40    2.20   1
  -5  -2   4   29.30    1.40   1
   5   2  -3  140.20    7.40   1
  -5  -2   3  130.40    4.30   1
   5   2  -2    3.70    0.30   1
  -5  -2   2    4.90    0.40   1
   5   2  -1    1.50    0.30   1
  -5  -2   1    1.00    0.30   1
   5   2   0    4.20    0.30   1
  -5  -2   0    5.10    0.40   1
   5   2   1   14.90    1.30   1
  -5  -2  -1   15.80    0.60   1
   5   2   2    1.90    0.30   1
  -5  -2  -2    1.90    0.30   1
   5   2   3   16.00    0.70   1
  -5  -2  -3   17.20    0.80   1
   5   2   4    2.80    3.30   1
  -5  -2  -4    0.40    0.30   1
   5   2   5    3.80    0.50   1
  -5  -2  -5    4.90    0.40   1
   5   2   6    2.20    0.40   1
  -5  -2  -6    2.40    0.40   1
   5   2   7    0.90    0.40   1
  -5  -2  -7    0.70    0.30   1
   5   2   8    0.40    0.50   1
  -5  -2  -8   -0.60    0.80   1
   5   2   9    5.00    0.90   1
  -5  -2  -9    5.50    1.10   1
   5   2  10    0.20    0.60   1
  -5  -2 -10    0.80    0.90   1
   5   2  11   20.00    1.10   1
  -5  -2 -11   22.50    2.00   1
   5   2  12    3.90    0.90   1
  -5  -2 -12    4.90    1.10   1
   5   2  13    0.80    0.90   1
  -5  -2 -13    2.10    1.00   1
   5   2  14    0.60    0.90   1
  -5  -2 -14    2.00    0.90   1
   5   2  15    3.30    1.50   1
  -5  -2 -15    0.30    1.20   1
   5   3 -15    9.50    1.70   1
  -5  -3  15    8.20    1.20   1
   5   3 -14    5.00    1.20   1
  -5  -3  14    6.30    1.00   1
   5   3 -13    2.80    1.30   1
  -5  -3  13    2.40    0.80   1
   5   3 -12    2.00    1.30   1
  -5  -3  12    0.80    0.70   1
   5   3 -11    0.60    0.80   1
  -5  -3  11    0.70    0.70   1
   5   3 -10    6.60    1.10   1
  -5  -3  10    5.50    0.90   1
   5   3  -9   12.10    1.00   1
  -5  -3   9   10.90    0.90   1
   5   3  -8    3.00    0.90   1
  -5  -3   8    4.60    0.80   1
   5   3  -7   20.80    1.10   1
  -5  -3   7   19.10    1.20   1
   5   3  -6   13.30    1.00   1
  -5  -3   6   14.30    1.10   1
   5   3  -5    0.30    0.50   1
  -5  -3   5   -0.20    0.40   1
   5   3  -4   -0.10    0.50   1
  -5  -3   4   -0.10    0.40   1
   5   3  -3    0.20    0.80   1
  -5  -3   3    1.00    0.40   1
  -5  -3   2    1.00    0.30   1
   5   3  -1    1.20    0.80   1
  -5  -3   1    0.90    0.40   1
   5   3   0   12.50    1.20   1
  -5  -3   0   11.60    0.60   1
   5   3   1    1.50    0.30   1
  -5  -3  -1    3.00    0.40   1
   5   3   2    2.60    0.40   1
  -5  -3  -2    4.10    0.40   1
   5   3   3    0.60    0.40   1
  -5  -3  -3    1.00    0.40   1
   5   3   4   14.90    0.80   1
  -5  -3  -4   20.30    1.10   1
   5   3   5   -1.50    0.60   1
  -5  -3  -5    0.20    0.40   1
   5   3   6   33.30    1.30   1
  -5  -3  -6   34.00    2.50   1
   5   3   7    1.60    0.50   1
  -5  -3  -7    2.30    1.10   1
   5   3   8    7.90    0.70   1
  -5  -3  -8    8.60    1.30   1
   5   3   9    1.00    0.70   1
  -5  -3  -9    2.20    1.20   1
   5   3  10   -0.20    0.60   1
  -5  -3 -10    1.40    1.00   1
   5   3  11   -0.40    0.60   1
  -5  -3 -11    0.90    1.00   1
   5   3  12   15.50    1.30   1
  -5  -3 -12   18.20    2.00   1
   5   3  13    0.20    0.70   1
  -5  -3 -13    1.00    1.70   1
   5   3  14    3.50    0.90   1
  -5  -3 -14    3.00    2.00   1
   5   4 -14    7.40    1.30   1
  -5  -4  14    5.00    1.50   1
   5   4 -13    6.70    1.40   1
  -5  -4  13    5.60    1.30   1
   5   4 -12    4.50    1.70   1
  -5  -4  12    1.70    1.10   1
   5   4 -11    5.20    1.30   1
  -5  -4  11    4.20    1.00   1
   5   4 -10    0.40    1.00   1
  -5  -4  10    0.60    0.90   1
   5   4  -9    1.00    0.70   1
  -5  -4   9    1.40    0.80   1
   5   4  -8    1.60    0.70   1
  -5  -4   8    0.70    0.80   1
   5   4  -7    2.80    0.60   1
  -5  -4   7    3.70    0.60   1
   5   4  -6   -0.10    0.50   1
  -5  -4   6   -0.40    0.50   1
   5   4  -5    1.00    0.70   1
  -5  -4   5    1.30    0.50   1
   5   4  -4    3.50    0.70   1
  -5  -4   4    3.00    0.60   1
   5   4  -3    6.20    0.70   1
  -5  -4   3    4.90    0.60   1
   5   4  -2    0.60    0.50   1
  -5  -4   2   -0.10    0.40   1
   5   4  -1   -0.20    0.80   1
  -5  -4   1    1.00    0.50   1
   5   4   0    3.30    1.20   1
  -5  -4   0    2.90    0.60   1
   5   4   1    1.80    0.90   1
  -5  -4  -1    0.30    0.50   1
   5   4   2   16.20    1.60   1
  -5  -4  -2   17.90    1.50   1
   5   4   3   22.80    1.70   1
  -5  -4  -3   27.80    1.90   1
   5   4   4    1.70    1.00   1
  -5  -4  -4    0.90    1.00   1
   5   4   5    5.90    0.60   1
  -5  -4  -5    9.60    1.40   1
   5   4   6    0.40    0.70   1
  -5  -4  -6    0.10    1.00   1
   5   4   7    0.80    0.90   1
  -5  -4  -7    0.30    1.10   1
   5   4   8    4.80    1.00   1
  -5  -4  -8    7.20    1.40   1
   5   4   9   24.70    1.40   1
  -5  -4  -9   26.60    2.70   1
   5   4  10    0.80    0.70   1
  -5  -4 -10    5.10    1.90   1
   5   4  11   -0.50    0.80   1
  -5  -4 -11    2.10    1.60   1
   5   5 -11    1.00    1.10   1
  -5  -5  11    0.70    1.20   1
   5   5 -10    1.10    1.00   1
  -5  -5  10    1.20    1.10   1
   5   5  -9    1.60    1.00   1
  -5  -5   9    4.10    0.80   1
   5   5  -8    1.10    1.50   1
  -5  -5   8    0.60    0.80   1
   5   5  -7    3.20    0.90   1
  -5  -5   7    3.70    0.80   1
   5   5  -6    0.20    0.90   1
  -5  -5   6    0.20    0.60   1
   5   5  -5    1.00    0.80   1
  -5  -5   5    0.90    0.80   1
   5   5  -4    0.90    0.80   1
  -5  -5   4   -0.10    0.60   1
   5   5  -3    7.00    0.90   1
  -5  -5   3    6.10    0.60   1
   5   5  -2    5.90    1.30   1
  -5  -5   2    3.60    0.70   1
   5   5  -1    3.70    0.90   1
  -5  -5   1    2.50    0.80   1
   5   5   0   -0.10    0.70   1
  -5  -5   0    1.90    0.80   1
   5   5   1    0.00    1.10   1
  -5  -5  -1    0.30    0.80   1
   5   5   2    0.80    1.10   1
  -5  -5  -2   -1.40    1.10   1
   5   5   3    6.50    1.40   1
  -5  -5  -3    4.80    1.50   1
   5   5   4   14.90    2.00   1
  -5  -5  -4   15.70    2.00   1
   5   5   5   -0.30    1.20   1
  -5  -5  -5   -0.50    1.30   1
   5   5   6    8.20    1.70   1
  -5  -5  -6    8.10    1.50   1
   5   5   7    3.20    1.60   1
  -5  -5  -7    2.40    1.40   1
   5   5   8   -0.90    1.40   1
  -5  -5  -8    0.50    1.40   1
   5   6  -5    1.30    1.20   1
  -5  -6   5    4.00    1.30   1
   5   6  -4    0.60    1.20   1
  -5  -6   4   -1.00    1.10   1
   5   6  -3   -0.10    1.10   1
  -5  -6   3    1.50    1.10   1
   5   6  -2    1.90    1.90   1
  -5  -6   2   -1.10    1.20   1
   5   6  -1    2.50    1.20   1
  -5  -6   1    3.30    1.10   1
   5   6   0    2.20    1.60   1
  -5  -6   0    0.10    1.10   1
   5   6   1   -0.90    1.50   1
  -5  -6  -1    0.30    1.10   1
   5   6   2    4.90    1.60   1
  -5  -6  -2    2.90    1.10   1
   6  -8  -5    3.80    0.90   1
  -6   8   5    3.60    1.20   1
   6  -8  -4    4.80    1.00   1
  -6   8   4    5.60    1.10   1
   6  -8  -3    2.00    1.00   1
  -6   8   3    2.20    1.10   1
   6  -8  -2    1.90    0.90   1
  -6   8   2    1.60    1.10   1
   6  -8  -1    0.90    0.90   1
  -6   8   1   -0.90    0.90   1
   6  -8   0    3.10    1.00   1
  -6   8   0    4.00    1.10   1
   6  -8   1    2.70    0.90   1
  -6   8  -1    3.00    1.20   1
   6  -8   2    7.10    1.20   1
  -6   8  -2    7.30    1.10   1
   6  -8   3    1.10    0.90   1
  -6   8  -3    2.30    1.00   1
   6  -8   4    1.10    1.00   1
  -6   8  -4    1.00    1.00   1
   6  -8   5    0.70    0.80   1
  -6   8  -5    0.30    1.10   1
   6  -8   6    3.90    1.00   1
  -6   8  -6    1.80    1.20   1
   6  -7 -10   11.50    1.50   1
   6  -7  -9   16.80    1.40   1
  -6   7   9   17.40    2.10   1
   6  -7  -8    2.70    0.90   1
  -6   7   8    3.00    1.50   1
   6  -7  -7    1.60    0.70   1
  -6   7   7    2.50    1.30   1
   6  -7  -6    0.60    0.80   1
  -6   7   6    1.40    1.00   1
   6  -7  -5   -0.30    0.80   1
  -6   7   5    1.80    0.80   1
   6  -7  -4    2.00    0.80   1
  -6   7   4    2.30    0.80   1
   6  -7  -3    3.70    0.70   1
  -6   7   3    5.20    0.90   1
   6  -7  -2    4.70    0.80   1
  -6   7   2    4.70    0.90   1
   6  -7  -1    2.70    0.70   1
  -6   7   1    1.90    0.80   1
   6  -7   0    2.60    0.70   1
  -6   7   0    2.00    0.80   1
   6  -7   1    0.80    0.70   1
  -6   7  -1    0.70    0.90   1
   6  -7   2    0.20    0.70   1
  -6   7  -2    1.30    0.80   1
   6  -7   3    0.40    0.90   1
  -6   7  -3    0.70    0.80   1
   6  -7   4    8.40    0.90   1
  -6   7  -4    7.70    1.00   1
   6  -7   5    5.30    0.80   1
  -6   7  -5    5.90    1.10   1
   6  -7   6    0.70    0.70   1
  -6   7  -6   -0.70    0.90   1
   6  -7   7    0.40    1.30   1
  -6   7  -7    2.10    1.00   1
   6  -7   8    0.50    1.30   1
  -6   7  -8   -0.60    0.90   1
   6  -7   9   -1.20    1.30   1
  -6   7  -9    0.60    1.10   1
   6  -7  10    2.90    1.60   1
  -6   7 -10    1.60    1.20   1
   6  -6 -12    1.90    1.00   1
   6  -6 -11    1.10    0.70   1
   6  -6 -10   -0.80    0.70   1
  -6   6  10    1.20    1.50   1
   6  -6  -9    2.40    0.70   1
  -6   6   9    1.80    1.30   1
   6  -6  -8   -0.70    0.70   1
  -6   6   8    0.90    1.10   1
   6  -6  -7   11.90    0.90   1
  -6   6   7   12.20    1.60   1
   6  -6  -6    3.00    0.70   1
  -6   6   6    3.30    1.00   1
   6  -6  -5   14.40    1.00   1
  -6   6   5   16.00    1.20   1
   6  -6  -4    0.00    0.50   1
  -6   6   4    0.10    0.60   1
   6  -6  -3    0.00    0.50   1
  -6   6   3   -0.70    0.70   1
   6  -6  -2    0.00    0.50   1
  -6   6   2   -0.50    0.60   1
   6  -6  -1    6.00    0.70   1
  -6   6   1    6.10    0.80   1
   6  -6   0    0.80    0.50   1
  -6   6   0    1.70    0.70   1
   6  -6   1    1.50    0.60   1
  -6   6  -1    1.00    0.60   1
   6  -6   2    8.50    0.70   1
  -6   6  -2    8.00    0.80   1
   6  -6   3    1.60    0.50   1
  -6   6  -3    0.80    0.70   1
   6  -6   4    7.30    0.80   1
  -6   6  -4    6.20    0.90   1
   6  -6   5    8.70    0.80   1
  -6   6  -5    8.10    0.90   1
   6  -6   6   18.70    1.00   1
  -6   6  -6   17.20    1.20   1
  -6   6  -7   -0.10    0.70   1
   6  -6   8    3.90    1.30   1
  -6   6  -8    1.90    0.80   1
   6  -6   9    7.40    1.20   1
  -6   6  -9    4.40    1.00   1
   6  -6  10    7.00    1.10   1
  -6   6 -10    4.10    0.80   1
   6  -6  11    0.90    1.00   1
  -6   6 -11    0.70    0.80   1
   6  -6  12    2.80    1.00   1
  -6   6 -12    4.60    0.80   1
   6  -6  13    1.10    1.00   1
  -6   6 -13    1.60    0.90   1
   6  -5 -14    0.90    1.10   1
  -6   5  14    0.80    1.60   1
   6  -5 -13    0.50    0.70   1
  -6   5  13    3.00    1.50   1
   6  -5 -12    9.50    1.00   1
   6  -5 -11    0.20    0.50   1
  -6   5  11    0.40    1.10   1
   6  -5 -10    6.80    0.60   1
  -6   5  10    8.40    1.50   1
   6  -5  -9    0.00    0.50   1
  -6   5   9   -0.70    1.20   1
   6  -5  -8    0.00    0.40   1
  -6   5   8   -0.60    1.00   1
   6  -5  -7   -0.70    0.40   1
  -6   5   7    0.80    0.90   1
   6  -5  -6   11.00    0.60   1
  -6   5   6   13.10    1.40   1
   6  -5  -5    1.10    0.40   1
  -6   5   5   -0.90    0.80   1
   6  -5  -4   32.80    1.30   1
  -6   5   4   34.30    2.40   1
   6  -5  -3    4.10    0.50   1
  -6   5   3    6.70    0.70   1
   6  -5  -2    2.60    0.50   1
  -6   5   2    2.60    0.60   1
   6  -5  -1    1.10    0.40   1
  -6   5   1    1.70    0.60   1
   6  -5   0    0.20    0.50   1
  -6   5   0    0.70    0.60   1
   6  -5   1    5.60    0.50   1
  -6   5  -1    6.90    0.70   1
   6  -5   2   20.50    1.00   1
  -6   5  -2   19.00    1.00   1
   6  -5   3   19.80    1.00   1
  -6   5  -3   17.00    1.10   1
   6  -5   4    0.60    0.50   1
  -6   5  -4    0.50    0.60   1
   6  -5   5    2.70    0.60   1
  -6   5  -5    1.00    0.60   1
   6  -5   6   18.20    1.60   1
  -6   5  -6   15.90    1.10   1
   6  -5   7    0.90    0.80   1
  -6   5  -7    0.30    0.60   1
   6  -5   8    1.90    0.70   1
  -6   5  -8    0.50    0.70   1
   6  -5   9   -0.20    0.80   1
  -6   5  -9    0.00    0.60   1
   6  -5  10   11.30    1.00   1
  -6   5 -10    8.70    0.90   1
   6  -5  11    5.60    1.00   1
  -6   5 -11    3.90    0.80   1
   6  -5  12    4.00    0.90   1
  -6   5 -12    3.30    0.70   1
   6  -5  13    1.60    1.60   1
  -6   5 -13    0.40    0.80   1
   6  -5  14    0.20    1.00   1
  -6   5 -14   -0.90    0.80   1
   6  -4 -15    0.50    0.90   1
  -6   4  15    1.30    1.90   1
   6  -4 -14    6.50    0.90   1
  -6   4  14    9.90    1.70   1
   6  -4 -13    2.10    0.60   1
  -6   4  13    3.30    1.60   1
   6  -4 -12    0.10    0.50   1
   6  -4 -11   -0.40    0.50   1
   6  -4 -10   -0.50    0.40   1
   6  -4  -9    0.10    0.40   1
  -6   4   9   -0.40    0.50   1
   6  -4  -8    3.40    0.40   1
  -6   4   8    4.60    0.70   1
   6  -4  -7   18.40    0.70   1
  -6   4   7   21.00    1.10   1
   6  -4  -6    5.50    0.50   1
  -6   4   6    5.60    0.70   1
   6  -4  -5   45.70    1.40   1
  -6   4   5   49.00    2.10   1
   6  -4  -4   16.50    0.80   1
  -6   4   4   16.70    1.10   1
   6  -4  -3   31.60    1.20   1
  -6   4   3   32.80    1.40   1
   6  -4  -2   17.00    0.70   1
  -6   4   2   19.00    0.80   1
   6  -4  -1   12.90    0.60   1
  -6   4   1   12.80    0.60   1
   6  -4   0    0.10    0.30   1
  -6   4   0    0.40    0.30   1
   6  -4   1    8.20    0.50   1
  -6   4  -1    9.60    0.50   1
   6  -4   2    0.20    0.30   1
  -6   4  -2   -0.70    0.50   1
   6  -4   3   15.60    0.80   1
  -6   4  -3   16.20    1.00   1
   6  -4   4    1.90    0.50   1
  -6   4  -4    2.30    0.60   1
   6  -4   5    8.10    0.90   1
  -6   4  -5    7.70    0.90   1
   6  -4   6    0.70    0.80   1
  -6   4  -6    0.10    0.50   1
   6  -4   7   21.50    1.20   1
  -6   4  -7   17.60    1.20   1
   6  -4   8    3.40    0.90   1
  -6   4  -8    3.50    0.80   1
   6  -4   9    3.00    0.70   1
  -6   4  -9    3.40    0.60   1
   6  -4  10    5.90    0.80   1
  -6   4 -10    6.30    0.70   1
   6  -4  11    2.40    0.90   1
  -6   4 -11    1.80    0.60   1
   6  -4  12   -0.50    0.90   1
  -6   4 -12    1.30    0.70   1
   6  -4  13    3.60    1.00   1
  -6   4 -13    2.10    0.80   1
   6  -4  14    0.80    0.90   1
  -6   4 -14    1.20    0.70   1
   6  -4  15    8.50    1.90   1
  -6   4 -15    9.10    1.00   1
   6  -3 -16    0.10    0.80   1
   6  -3 -15    1.90    0.90   1
  -6   3  15    0.00    1.70   1
   6  -3 -14    1.70    0.70   1
  -6   3  14    2.40    1.20   1
   6  -3 -13    7.90    0.90   1
  -6   3  13   11.50    1.90   1
   6  -3 -12   12.00    0.70   1
  -6   3  12   15.40    1.70   1
   6  -3 -11    0.90    0.40   1
  -6   3  11    1.00    0.80   1
   6  -3 -10    4.50    0.60   1
  -6   3  10    4.40    1.10   1
   6  -3  -9    0.80    0.40   1
  -6   3   9   -0.50    0.70   1
   6  -3  -8   24.30    0.90   1
  -6   3   8   28.80    1.40   1
   6  -3  -7   43.60    1.40   1
  -6   3   7   47.30    2.40   1
   6  -3  -6  149.80    4.30   1
  -6   3   6  159.30    6.20   1
   6  -3  -5   23.70    1.00   1
  -6   3   5   26.40    1.30   1
   6  -3  -4    2.10    0.40   1
  -6   3   4    2.60    0.40   1
   6  -3  -3    9.10    0.50   1
  -6   3   3    9.70    0.70   1
   6  -3  -2    6.20    0.40   1
  -6   3   2    6.50    0.40   1
   6  -3  -1    1.30    0.30   1
  -6   3   1    1.10    0.30   1
   6  -3   0   18.60    0.80   1
  -6   3   0   20.40    0.70   1
   6  -3   1    1.30    0.30   1
  -6   3  -1    1.70    0.30   1
   6  -3   2   49.00    2.40   1
  -6   3  -2   46.10    1.10   1
   6  -3   3    0.40    0.60   1
  -6   3  -3    0.10    0.30   1
   6  -3   4    0.20    0.60   1
  -6   3  -4   -0.10    0.20   1
   6  -3   5    9.70    0.80   1
  -6   3  -5    9.50    0.50   1
   6  -3   6    0.40    0.50   1
  -6   3  -6   -0.20    0.20   1
   6  -3   7    0.30    0.50   1
  -6   3  -7    0.30    0.30   1
   6  -3   8    1.30    0.60   1
  -6   3  -8    0.90    0.60   1
   6  -3   9    1.50    0.60   1
  -6   3  -9    0.40    0.50   1
   6  -3  10    0.40    0.70   1
  -6   3 -10    1.70    0.50   1
   6  -3  11    0.50    0.70   1
  -6   3 -11   -0.90    0.70   1
   6  -3  12    2.30    0.90   1
  -6   3 -12    0.40    0.70   1
   6  -3  13    1.60    0.90   1
  -6   3 -13    0.50    0.80   1
   6  -3  14   -0.70    1.40   1
  -6   3 -14    1.20    0.70   1
   6  -3  15    1.30    1.20   1
  -6   3 -15    1.20    0.70   1
   6  -3  16    1.60    1.70   1
  -6   3 -16    2.40    1.60   1
   6  -2 -16    8.10    1.00   1
  -6   2  16    9.20    1.90   1
   6  -2 -15    1.40    0.70   1
  -6   2  15    1.30    1.40   1
   6  -2 -14    8.00    0.80   1
  -6   2  14    9.90    1.60   1
   6  -2 -13    2.20    0.70   1
  -6   2  13    3.50    1.20   1
   6  -2 -12   -0.20    0.40   1
  -6   2  12    0.30    1.10   1
   6  -2 -11   12.90    0.70   1
  -6   2  11   14.60    1.50   1
   6  -2 -10    1.70    0.40   1
  -6   2  10    2.90    0.80   1
   6  -2  -9    7.50    0.50   1
  -6   2   9    8.70    1.00   1
   6  -2  -8   -0.10    0.30   1
  -6   2   8   -0.90    0.80   1
   6  -2  -7    3.80    0.40   1
  -6   2   7    4.90    0.70   1
   6  -2  -6    2.40    0.30   1
  -6   2   6    2.80    0.40   1
   6  -2  -5    0.50    0.30   1
  -6   2   5    1.40    0.30   1
   6  -2  -4    0.40    0.30   1
  -6   2   4    1.60    0.30   1
   6  -2  -3    0.60    0.30   1
  -6   2   3    1.40    0.40   1
   6  -2  -2   33.50    1.20   1
  -6   2   2   33.10    1.10   1
   6  -2  -1   43.20    2.30   1
  -6   2   1   46.20    1.40   1
   6  -2   0    0.80    0.70   1
  -6   2   0   -0.10    0.30   1
   6  -2   1    8.90    1.00   1
  -6   2  -1    9.90    0.50   1
   6  -2   2    7.00    0.60   1
  -6   2  -2    6.60    0.40   1
   6  -2   3   35.00    1.30   1
  -6   2  -3   35.10    1.10   1
   6  -2   4    0.60    0.50   1
  -6   2  -4    0.90    0.30   1
   6  -2   5   25.20    1.20   1
  -6   2  -5   24.50    0.90   1
   6  -2   6    1.80    0.60   1
  -6   2  -6    0.60    0.30   1
   6  -2   7   49.60    2.00   1
  -6   2  -7   48.40    1.60   1
   6  -2   8   30.40    1.60   1
  -6   2  -8   31.60    1.10   1
   6  -2   9   32.40    1.70   1
  -6   2  -9   26.50    1.00   1
   6  -2  10   23.20    1.40   1
  -6   2 -10   23.90    0.90   1
   6  -2  11   -0.70    0.70   1
  -6   2 -11    0.00    0.50   1
   6  -2  12    4.50    1.20   1
  -6   2 -12    4.60    0.70   1
   6  -2  13   14.30    1.20   1
  -6   2 -13   13.90    1.00   1
   6  -2  14    0.50    1.00   1
  -6   2 -14    0.50    0.60   1
   6  -2  15    2.80    1.00   1
  -6   2 -15    1.60    1.20   1
   6  -2  16    1.70    1.70   1
  -6   2 -16    1.80    1.40   1
   6  -1 -16    0.30    1.20   1
  -6   1  16    1.70    2.00   1
   6  -1 -15   37.10    3.00   1
  -6   1  15   39.50    3.60   1
   6  -1 -14   31.30    2.40   1
  -6   1  14   34.00    3.30   1
   6  -1 -13    1.50    1.00   1
  -6   1  13    3.10    0.90   1
   6  -1 -12    4.00    1.10   1
  -6   1  12    3.40    1.10   1
   6  -1 -11    2.10    0.50   1
  -6   1  11    2.70    0.70   1
   6  -1 -10   -0.30    0.50   1
  -6   1  10    0.90    0.50   1
   6  -1  -9    8.80    0.60   1
  -6   1   9    8.00    0.60   1
   6  -1  -8    2.20    0.40   1
  -6   1   8    2.50    0.60   1
   6  -1  -7   18.60    0.90   1
  -6   1   7   21.50    1.00   1
   6  -1  -6    0.30    0.30   1
  -6   1   6    0.80    0.40   1
   6  -1  -5   21.30    0.90   1
  -6   1   5   22.80    1.00   1
   6  -1  -4    1.80    0.30   1
  -6   1   4    3.20    0.50   1
   6  -1  -3    5.10    0.30   1
  -6   1   3    7.10    0.50   1
   6  -1  -2    1.40    0.60   1
  -6   1   2    1.30    0.40   1
   6  -1  -1   31.90    1.30   1
  -6   1   1   31.90    1.10   1
   6  -1   0   24.80    1.10   1
  -6   1   0   25.30    0.90   1
   6  -1   1    1.50    0.40   1
  -6   1  -1    2.20    0.30   1
   6  -1   2   52.40    1.90   1
  -6   1  -2   53.30    1.60   1
   6  -1   3    4.00    0.60   1
  -6   1  -3    4.70    0.40   1
   6  -1   4    4.40    0.60   1
  -6   1  -4    3.50    0.40   1
   6  -1   5    7.10    0.70   1
  -6   1  -5    8.60    0.50   1
   6  -1   6  118.20    4.10   1
  -6   1  -6  115.40    3.80   1
   6  -1   7   41.60    2.10   1
  -6   1  -7   42.60    1.60   1
   6  -1   8    0.70    0.50   1
  -6   1  -8   -0.60    0.50   1
   6  -1   9    2.80    0.90   1
  -6   1  -9    3.40    0.60   1
   6  -1  10   -0.10    0.70   1
  -6   1 -10   -0.70    0.50   1
   6  -1  11    8.60    0.80   1
  -6   1 -11    6.90    0.70   1
   6  -1  12    0.60    0.70   1
  -6   1 -12   -0.70    0.70   1
   6  -1  13   -1.90    1.10   1
  -6   1 -13    0.50    0.70   1
   6  -1  14    7.90    1.10   1
  -6   1 -14    6.30    1.40   1
   6  -1  15    0.40    0.90   1
  -6   1 -15   -0.90    1.30   1
   6  -1  16    7.20    1.90   1
  -6   1 -16    7.70    1.80   1
   6   0 -16    1.40    1.20   1
  -6   0  16    1.80    1.30   1
   6   0 -15   -1.20    1.40   1
  -6   0  15   -0.10    1.00   1
   6   0 -14   -0.80    1.20   1
  -6   0  14    2.10    1.20   1
   6   0 -13    0.60    1.20   1
  -6   0  13    0.30    0.70   1
   6   0 -12    3.70    1.10   1
  -6   0  12    4.10    0.80   1
   6   0 -11    5.50    0.60   1
  -6   0  11    4.50    0.70   1
   6   0 -10    3.30    0.60   1
  -6   0  10    3.50    0.70   1
   6   0  -9    0.10    0.80   1
  -6   0   9    0.90    0.60   1
   6   0  -8    0.10    0.50   1
  -6   0   8   -0.90    0.60   1
   6   0  -7   17.50    1.00   1
  -6   0   7   16.20    0.90   1
   6   0  -6    0.60    0.40   1
  -6   0   6    0.70    0.50   1
   6   0  -5    6.50    0.80   1
  -6   0   5    5.50    0.60   1
   6   0  -4    5.00    0.90   1
  -6   0   4    7.00    0.70   1
  -6   0   3    2.30    0.40   1
   6   0  -2   62.20    3.20   1
  -6   0   2   59.40    2.10   1
   6   0  -1   57.00    2.00   1
  -6   0   1   57.90    2.40   1
   6   0   0    5.60    0.50   1
  -6   0   0    7.40    0.60   1
   6   0   1    2.10    0.60   1
  -6   0  -1    2.40    0.50   1
   6   0   2   17.00    0.90   1
  -6   0  -2   15.00    0.70   1
   6   0   3   15.40    0.90   1
  -6   0  -3   16.40    0.90   1
   6   0   4    7.90    0.80   1
  -6   0  -4    8.50    0.70   1
   6   0   5    6.00    0.70   1
  -6   0  -5    6.90    0.70   1
   6   0   6    2.90    0.60   1
  -6   0  -6    4.70    0.70   1
   6   0   7    0.20    0.60   1
  -6   0  -7    0.50    0.50   1
   6   0   8   -0.20    0.50   1
  -6   0  -8    1.30    0.80   1
   6   0   9    4.10    0.70   1
  -6   0  -9    2.40    0.60   1
   6   0  10    1.50    0.80   1
  -6   0 -10    0.40    0.60   1
   6   0  11    7.80    1.30   1
  -6   0 -11    8.80    0.80   1
  -6   0 -12    1.60    1.00   1
   6   0  13   12.00    1.20   1
  -6   0 -13   12.90    1.20   1
   6   0  14   -0.10    0.90   1
  -6   0 -14    1.20    0.80   1
   6   0  15    1.20    1.10   1
  -6   0 -15    1.80    1.10   1
   6   1 -15   10.30    1.50   1
  -6  -1  15    9.40    1.10   1
   6   1 -14    1.00    1.20   1
  -6  -1  14    1.30    0.90   1
   6   1 -13    9.50    1.60   1
  -6  -1  13    7.80    1.00   1
   6   1 -12    0.40    0.80   1
  -6  -1  12    1.40    0.80   1
   6   1 -11   -0.30    0.80   1
  -6  -1  11    0.20    0.70   1
   6   1 -10    0.80    0.50   1
  -6  -1  10    1.90    0.70   1
   6   1  -9   10.20    0.90   1
  -6  -1   9   10.60    1.00   1
   6   1  -8    4.90    0.90   1
  -6  -1   8    3.20    0.70   1
   6   1  -7   23.70    1.30   1
  -6  -1   7   22.00    1.30   1
   6   1  -6    1.40    0.80   1
  -6  -1   6    0.70    0.50   1
   6   1  -5   22.60    1.30   1
  -6  -1   5   22.70    1.20   1
   6   1  -4    0.20    0.60   1
  -6  -1   4    0.20    0.50   1
   6   1  -3    3.40    1.00   1
  -6  -1   3    4.10    0.60   1
   6   1  -2    5.40    1.00   1
  -6  -1   2    8.20    0.80   1
   6   1  -1    9.90    0.70   1
  -6  -1   1   11.30    0.80   1
   6   1   0    1.10    0.50   1
  -6  -1   0    1.30    0.60   1
   6   1   1    9.70    0.70   1
  -6  -1  -1    9.70    0.70   1
   6   1   2    0.10    0.50   1
  -6  -1  -2    1.20    0.50   1
   6   1   3    4.30    0.90   1
  -6  -1  -3    5.30    0.70   1
   6   1   4    0.90    0.80   1
  -6  -1  -4    0.20    0.70   1
   6   1   5   14.30    1.00   1
  -6  -1  -5   13.60    1.10   1
  -6  -1  -6   25.30    1.60   1
   6   1   7    4.50    0.70   1
  -6  -1  -7    3.50    0.80   1
   6   1   8   24.10    1.30   1
  -6  -1  -8   24.80    1.70   1
   6   1   9    0.50    0.70   1
  -6  -1  -9   -0.30    0.90   1
   6   1  10    0.40    0.60   1
  -6  -1 -10   -0.40    1.00   1
   6   1  11    0.20    0.80   1
  -6  -1 -11    2.20    1.20   1
   6   1  12    0.80    0.90   1
  -6  -1 -12    1.20    1.10   1
   6   1  13    1.90    1.00   1
  -6  -1 -13    1.50    1.50   1
   6   1  14   15.00    1.20   1
  -6  -1 -14   21.00    2.10   1
   6   2 -14    3.70    1.30   1
  -6  -2  14    4.30    1.10   1
   6   2 -13    0.90    1.20   1
  -6  -2  13    1.40    0.90   1
   6   2 -12   17.20    2.10   1
  -6  -2  12   16.90    1.30   1
   6   2 -11    0.90    1.30   1
  -6  -2  11    2.00    0.80   1
   6   2 -10    2.90    0.80   1
  -6  -2  10    4.70    0.90   1
   6   2  -9    2.60    0.70   1
  -6  -2   9    2.70    0.80   1
   6   2  -8    5.50    1.00   1
  -6  -2   8    4.10    0.80   1
   6   2  -7    2.10    0.90   1
  -6  -2   7    0.90    0.70   1
   6   2  -6   12.10    1.00   1
  -6  -2   6   13.80    1.00   1
   6   2  -5    4.80    0.70   1
  -6  -2   5    6.90    0.80   1
  -6  -2   4    4.20    0.70   1
   6   2  -3    0.40    0.80   1
  -6  -2   3    0.00    0.60   1
   6   2  -2    4.00    0.90   1
  -6  -2   2    3.20    0.70   1
   6   2  -1    0.60    0.80   1
  -6  -2   1    0.10    0.60   1
  -6  -2   0    0.00    0.60   1
   6   2   1    0.70    1.00   1
  -6  -2  -1    2.00    0.60   1
   6   2   2   18.80    1.90   1
  -6  -2  -2   18.70    1.10   1
   6   2   3   -0.20    0.40   1
  -6  -2  -3    0.70    0.80   1
   6   2   4   42.90    2.10   1
  -6  -2  -4   46.10    2.90   1
  -6  -2  -5    2.30    0.90   1
   6   2   6    1.10    0.70   1
  -6  -2  -6    0.90    0.80   1
   6   2   7   -0.20    0.60   1
  -6  -2  -7   -0.30    1.00   1
   6   2   8    0.30    0.60   1
  -6  -2  -8   -1.00    0.90   1
   6   2   9    1.70    0.70   1
  -6  -2  -9    1.30    1.10   1
   6   2  10    6.80    1.00   1
  -6  -2 -10   10.60    1.60   1
   6   2  11   13.90    1.10   1
  -6  -2 -11   20.40    2.10   1
   6   2  12    0.40    0.90   1
  -6  -2 -12    2.40    1.20   1
   6   2  13    1.00    1.60   1
  -6  -2 -13   -0.10    1.30   1
   6   3 -13   -0.70    1.20   1
  -6  -3  13    0.30    1.10   1
   6   3 -12    3.30    1.60   1
  -6  -3  12    3.60    1.00   1
   6   3 -11    1.10    1.30   1
  -6  -3  11    0.30    0.90   1
   6   3 -10    6.70    1.40   1
  -6  -3  10    7.50    1.10   1
   6   3  -9   11.50    1.10   1
  -6  -3   9    9.20    1.10   1
   6   3  -8    0.20    0.70   1
  -6  -3   8    1.20    0.80   1
   6   3  -7    0.80    0.70   1
  -6  -3   7    2.50    0.80   1
   6   3  -6   -0.70    0.60   1
  -6  -3   6    0.60    0.80   1
   6   3  -5   -0.50    0.60   1
  -6  -3   5   -0.10    0.80   1
   6   3  -4    0.20    0.90   1
  -6  -3   4    0.50    0.80   1
   6   3  -3    8.60    1.30   1
  -6  -3   3   10.50    1.10   1
   6   3  -2   -0.60    0.90   1
  -6  -3   2   -1.10    0.80   1
   6   3  -1   20.40    1.60   1
  -6  -3   1   22.80    1.50   1
   6   3   0    0.20    1.00   1
  -6  -3   0    0.90    0.70   1
   6   3   1   -0.70    1.00   1
  -6  -3  -1    0.70    0.70   1
  -6  -3  -2    0.20    0.80   1
   6   3   3    1.70    1.00   1
  -6  -3  -3    0.20    1.20   1
  -6  -3  -4   -0.30    1.00   1
   6   3   5   24.00    2.20   1
  -6  -3  -5   28.20    2.30   1
   6   3   6   15.80    1.80   1
  -6  -3  -6   15.00    2.10   1
   6   3   7    1.90    0.70   1
  -6  -3  -7    2.50    1.10   1
   6   3   8    4.10    0.80   1
  -6  -3  -8    4.40    1.50   1
   6   3   9   -0.20    1.00   1
  -6  -3  -9    1.00    1.40   1
   6   3  10    0.80    1.00   1
  -6  -3 -10    3.90    1.50   1
   6   3  11    3.30    0.90   1
  -6  -3 -11    3.50    1.60   1
   6   4 -10    1.30    1.30   1
  -6  -4  10    0.30    1.10   1
   6   4  -9    4.20    1.60   1
  -6  -4   9    3.10    1.30   1
   6   4  -8   12.90    1.40   1
  -6  -4   8   13.30    1.40   1
   6   4  -7    3.50    1.30   1
  -6  -4   7    0.60    0.90   1
   6   4  -6   10.90    1.10   1
  -6  -4   6    8.10    1.20   1
   6   4  -5    1.60    1.10   1
  -6  -4   5    3.60    1.00   1
   6   4  -4    5.90    0.90   1
  -6  -4   4    5.40    1.00   1
   6   4  -3   -0.50    0.70   1
  -6  -4   3   -0.90    0.90   1
   6   4  -2    0.60    0.70   1
  -6  -4   2    0.80    0.80   1
   6   4  -1   -1.10    1.00   1
  -6  -4   1   -0.30    0.80   1
   6   4   0    4.20    1.30   1
  -6  -4   0    2.70    1.00   1
   6   4   1    1.80    1.30   1
  -6  -4  -1    0.90    0.80   1
   6   4   2    2.20    1.10   1
  -6  -4  -2    0.90    0.80   1
   6   4   3    3.00    1.30   1
  -6  -4  -3   -0.20    1.10   1
   6   4   4    2.10    1.30   1
  -6  -4  -4    2.50    1.20   1
   6   4   5   -0.40    1.40   1
  -6  -4  -5    0.50    1.30   1
   6   4   6    2.20    1.30   1
  -6  -4  -6    4.40    1.60   1
   6   4   7    2.90    1.60   1
  -6  -4  -7    3.30    1.50   1
   6   4   8   -0.80    1.50   1
  -6  -4  -8   -2.50    1.50   1
   6   5  -4    1.20    0.90   1
  -6  -5   4    0.30    1.20   1
   6   5  -3   20.30    1.60   1
  -6  -5   3   20.10    1.70   1
   6   5  -2    1.20    1.40   1
  -6  -5   2    2.70    1.00   1
   6   5  -1   -0.90    1.30   1
  -6  -5   1    0.30    1.10   1
   6   5   0    3.50    1.00   1
  -6  -5   0    2.10    1.20   1
   6   5   1   -1.30    1.60   1
  -6  -5  -1    2.00    1.20   1
   6   5   2    5.70    1.70   1
  -6  -5  -2    5.00    1.30   1
   7  -7  -6   -0.20    1.10   1
  -7   7   6    0.80    1.40   1
   7  -7  -5    1.30    1.00   1
  -7   7   5    1.20    1.90   1
   7  -7  -4    8.80    1.60   1
  -7   7   4    5.60    1.20   1
   7  -7  -3    3.80    1.40   1
  -7   7   3    3.70    1.00   1
   7  -7  -2   13.20    1.70   1
  -7   7   2   12.00    1.20   1
   7  -7  -1    0.00    1.00   1
  -7   7   1    1.00    1.00   1
   7  -7   0    0.20    1.30   1
  -7   7   0    0.10    1.00   1
   7  -7   1   -0.90    1.20   1
  -7   7  -1    0.00    0.90   1
   7  -7   2   -0.20    1.20   1
  -7   7  -2   -1.30    1.20   1
   7  -7   3    3.70    1.40   1
  -7   7  -3    0.40    1.00   1
   7  -7   4   20.10    2.00   1
  -7   7  -4   15.20    1.40   1
   7  -7   5    1.70    1.20   1
  -7   7  -5    1.40    0.90   1
   7  -7   6   -1.50    1.40   1
  -7   7  -6   -0.20    1.00   1
   7  -7   7    7.40    1.70   1
  -7   7  -7    5.20    1.10   1
   7  -6  -9    2.00    1.10   1
  -7   6   9    2.40    1.80   1
   7  -6  -8    3.80    1.30   1
  -7   6   8    3.10    1.70   1
   7  -6  -7   -0.70    0.80   1
  -7   6   7   -0.10    1.60   1
   7  -6  -6    7.50    1.20   1
  -7   6   6    7.60    1.60   1
   7  -6  -5    1.30    0.90   1
  -7   6   5   -0.10    1.20   1
   7  -6  -4    2.10    0.90   1
  -7   6   4    2.60    1.30   1
   7  -6  -3    4.70    1.20   1
  -7   6   3    4.30    0.80   1
   7  -6  -2   19.20    1.70   1
  -7   6   2   21.30    1.30   1
   7  -6  -1   26.10    2.10   1
  -7   6   1   24.90    1.50   1
   7  -6   0    1.60    1.10   1
  -7   6   0    1.80    0.80   1
   7  -6   1    2.00    1.10   1
  -7   6  -1    1.00    0.70   1
   7  -6   2    1.90    1.20   1
  -7   6  -2    0.20    0.80   1
   7  -6   3    2.80    1.20   1
  -7   6  -3    1.10    0.80   1
   7  -6   4    0.20    0.80   1
  -7   6  -4    0.20    0.80   1
   7  -6   5   13.30    1.60   1
  -7   6  -5   10.30    1.20   1
   7  -6   6   -1.10    0.90   1
  -7   6  -6    2.50    1.40   1
   7  -6   7   12.70    1.70   1
  -7   6  -7    7.10    1.20   1
   7  -6   8    1.60    1.00   1
  -7   6  -8    2.50    1.00   1
   7  -6   9    8.40    1.30   1
  -7   6  -9    7.20    1.20   1
   7  -6  10   -0.70    1.10   1
  -7   6 -10   -0.10    1.10   1
   7  -5 -11   17.70    2.20   1
   7  -5 -10    2.40    0.80   1
  -7   5  10    2.80    1.40   1
   7  -5  -9   -0.50    0.70   1
  -7   5   9   -0.90    1.30   1
   7  -5  -8    0.10    0.60   1
  -7   5   8    0.60    1.40   1
   7  -5  -7   -1.00    0.70   1
  -7   5   7   -0.20    1.30   1
   7  -5  -6    3.30    0.70   1
   7  -5  -5   75.50    3.30   1
  -7   5   5   79.50    4.90   1
   7  -5  -4   64.30    3.10   1
  -7   5   4   66.00    4.10   1
   7  -5  -3    5.60    1.20   1
  -7   5   3    4.50    1.10   1
   7  -5  -2    2.70    0.90   1
  -7   5   2    2.50    0.90   1
   7  -5  -1    5.20    1.10   1
  -7   5   1    4.80    0.80   1
   7  -5   0    0.40    0.90   1
  -7   5   0   -0.60    0.70   1
   7  -5   1    6.30    1.00   1
  -7   5  -1    5.40    0.80   1
   7  -5   2    7.30    1.40   1
  -7   5  -2    9.30    1.10   1
   7  -5   3    5.80    1.20   1
  -7   5  -3    4.90    1.20   1
   7  -5   4   14.00    1.40   1
  -7   5  -4   11.70    1.10   1
   7  -5   5    0.40    0.80   1
  -7   5  -5    0.00    0.80   1
   7  -5   6    0.20    0.90   1
  -7   5  -6    1.80    0.90   1
   7  -5   7    3.10    0.90   1
  -7   5  -7    1.40    1.00   1
   7  -5   8    3.10    0.90   1
  -7   5  -8    1.80    1.00   1
   7  -5   9    0.20    0.90   1
  -7   5  -9    0.30    0.90   1
   7  -5  10    4.60    1.30   1
  -7   5 -10    6.00    1.10   1
   7  -5  11    0.10    1.10   1
  -7   5 -11    0.70    1.00   1
   7  -5  12    0.40    1.70   1
  -7   5 -12   -0.10    1.10   1
   7  -4 -13    1.70    1.60   1
   7  -4 -12    2.10    0.90   1
   7  -4 -11   -1.20    0.70   1
  -7   4  11    2.70    1.40   1
   7  -4 -10    6.80    0.90   1
  -7   4  10    7.50    1.40   1
   7  -4  -9    6.70    1.00   1
  -7   4   9    8.80    1.10   1
   7  -4  -8    2.70    0.60   1
  -7   4   8    4.80    0.90   1
   7  -4  -7    1.20    0.60   1
  -7   4   7    2.20    0.70   1
   7  -4  -6   -0.60    0.60   1
  -7   4   6   -0.60    0.60   1
   7  -4  -5   15.40    1.30   1
  -7   4   5   18.60    1.10   1
   7  -4  -4   -0.90    0.70   1
  -7   4   4   -0.50    0.50   1
   7  -4  -3    9.30    1.20   1
  -7   4   3    7.90    0.70   1
   7  -4  -2    9.90    1.20   1
  -7   4   2    9.00    1.10   1
   7  -4  -1   -0.50    0.80   1
  -7   4   1    1.40    0.90   1
   7  -4   0   42.20    2.90   1
  -7   4   0   39.90    2.10   1
   7  -4   1    4.20    1.10   1
  -7   4  -1    1.80    2.40   1
   7  -4   2    0.10    0.70   1
  -7   4  -2   -0.90    0.70   1
   7  -4   3   -0.70    1.00   1
  -7   4  -3   -0.70    0.70   1
   7  -4   4   23.90    1.80   1
  -7   4  -4   15.00    1.10   1
   7  -4   5   19.70    1.20   1
  -7   4  -5   18.00    1.10   1
   7  -4   6    1.50    0.70   1
  -7   4  -6    0.70    0.70   1
   7  -4   7    6.20    0.90   1
  -7   4  -7    4.40    0.90   1
   7  -4   8    5.10    0.90   1
  -7   4  -8    2.50    0.90   1
   7  -4   9    9.90    1.10   1
  -7   4  -9   11.60    1.20   1
   7  -4  10   15.40    1.40   1
  -7   4 -10   12.80    1.30   1
   7  -4  11   24.80    1.80   1
  -7   4 -11   20.90    1.60   1
   7  -4  12    7.80    1.10   1
  -7   4 -12    6.00    1.10   1
   7  -4  13    0.00    1.00   1
  -7   4 -13   -1.70    0.90   1
   7  -3 -14    7.10    1.60   1
  -7   3  14   10.30    1.80   1
   7  -3 -13   48.10    3.90   1
  -7   3  13   55.00    5.00   1
   7  -3 -12    7.50    1.20   1
  -7   3  12    7.30    1.80   1
   7  -3 -11    0.40    0.90   1
  -7   3  11    1.50    1.30   1
   7  -3 -10   -0.30    0.70   1
  -7   3  10   -0.40    1.10   1
   7  -3  -9   -0.30    0.60   1
  -7   3   9    0.50    0.90   1
   7  -3  -8   -0.70    0.50   1
  -7   3   8    1.50    1.00   1
   7  -3  -7   15.00    1.00   1
  -7   3   7   15.90    1.10   1
   7  -3  -6    0.10    0.50   1
  -7   3   6    0.20    0.70   1
   7  -3  -5   23.50    1.70   1
  -7   3   5   26.30    1.10   1
   7  -3  -4    1.10    0.70   1
  -7   3   4    0.30    0.50   1
   7  -3  -3   17.70    1.50   1
  -7   3   3   17.30    0.80   1
   7  -3  -2    1.80    0.80   1
  -7   3   2    1.00    0.40   1
   7  -3  -1    0.60    0.80   1
  -7   3   1    0.80    0.40   1
   7  -3   0    0.00    1.00   1
  -7   3   0    0.50    0.30   1
   7  -3   1   43.20    2.50   1
  -7   3  -1   46.10    1.70   1
   7  -3   2   16.50    1.70   1
  -7   3  -2   17.60    0.90   1
   7  -3   3   11.50    0.90   1
  -7   3  -3    9.40    1.20   1
   7  -3   4    5.30    0.70   1
  -7   3  -4    4.40    1.20   1
   7  -3   5    4.30    0.80   1
  -7   3  -5    2.70    1.00   1
   7  -3   6    2.10    0.80   1
  -7   3  -6    0.60    1.00   1
   7  -3   7   25.70    1.50   1
  -7   3  -7   20.50    1.30   1
   7  -3   8   72.90    3.80   1
  -7   3  -8   69.20    2.90   1
   7  -3   9   10.10    1.00   1
  -7   3  -9    8.10    1.00   1
   7  -3  10    1.50    0.90   1
  -7   3 -10    0.50    0.80   1
   7  -3  11    1.00    1.20   1
  -7   3 -11    1.80    1.00   1
   7  -3  12    1.00    0.90   1
  -7   3 -12    1.00    1.00   1
   7  -3  13    1.40    1.40   1
  -7   3 -13    1.80    1.10   1
   7  -2 -14   -1.30    1.40   1
  -7   2  14   -0.80    1.50   1
   7  -2 -13   -0.20    1.30   1
  -7   2  13   -0.70    1.20   1
   7  -2 -12    9.90    1.40   1
  -7   2  12   12.40    1.60   1
   7  -2 -11   -0.60    0.60   1
  -7   2  11   -0.20    1.20   1
   7  -2 -10   14.80    1.20   1
  -7   2  10   16.50    1.70   1
   7  -2  -9   -0.20    0.60   1
  -7   2   9    0.20    1.00   1
   7  -2  -8    0.60    0.50   1
  -7   2   8    0.20    0.60   1
   7  -2  -7   -0.40    0.60   1
  -7   2   7    0.10    0.50   1
   7  -2  -6    3.00    0.70   1
  -7   2   6    3.40    0.60   1
   7  -2  -5   10.90    1.30   1
  -7   2   5   12.60    0.80   1
   7  -2  -4   11.80    1.50   1
  -7   2   4   13.50    0.70   1
   7  -2  -3    3.60    1.00   1
  -7   2   3    3.70    0.50   1
   7  -2  -2   13.50    1.30   1
  -7   2   2   15.50    0.80   1
   7  -2  -1   -0.70    1.00   1
  -7   2   1    0.80    0.40   1
   7  -2   0   38.90    1.50   1
  -7   2   0   37.50    1.40   1
   7  -2   1   16.40    1.00   1
  -7   2  -1   15.90    0.80   1
   7  -2   2   11.60    0.80   1
  -7   2  -2   14.30    0.70   1
   7  -2   3    5.80    0.70   1
  -7   2  -3    7.80    0.60   1
   7  -2   4   20.30    1.20   1
  -7   2  -4   22.10    0.90   1
   7  -2   5    5.20    0.90   1
  -7   2  -5    6.90    0.60   1
   7  -2   6    9.60    0.80   1
  -7   2  -6   11.10    0.70   1
   7  -2   7    1.00    0.90   1
  -7   2  -7   -1.20    0.90   1
   7  -2   8    2.80    0.80   1
  -7   2  -8    1.50    1.00   1
   7  -2   9    1.40    0.80   1
  -7   2  -9    1.00    1.00   1
   7  -2  10    0.40    1.20   1
  -7   2 -10    1.80    1.20   1
   7  -2  11    4.60    1.00   1
  -7   2 -11    3.10    1.20   1
   7  -2  12    3.40    0.90   1
  -7   2 -12    2.40    1.20   1
   7  -2  13    2.70    1.00   1
  -7   2 -13    3.80    6.10   1
   7  -1 -14    7.80    2.00   1
  -7   1  14    7.60    1.70   1
   7  -1 -13   11.40    2.00   1
  -7   1  13   11.20    2.10   1
   7  -1 -12    7.60    1.40   1
  -7   1  12    5.20    1.40   1
   7  -1 -11    1.70    0.60   1
  -7   1  11    2.00    0.90   1
   7  -1 -10    0.50    0.60   1
  -7   1  10    0.50    0.70   1
   7  -1  -9   11.90    1.00   1
  -7   1   9   14.20    0.90   1
   7  -1  -8    4.40    0.70   1
  -7   1   8    4.90    0.70   1
   7  -1  -7   29.60    1.50   1
  -7   1   7   32.90    1.40   1
   7  -1  -6    2.20    0.60   1
  -7   1   6    1.50    0.70   1
   7  -1  -5    8.60    1.00   1
  -7   1   5    9.60    0.80   1
   7  -1  -4    0.50    0.80   1
  -7   1   4    0.70    0.60   1
   7  -1  -3    1.60    0.80   1
  -7   1   3    0.90    0.60   1
   7  -1  -2   -0.30    0.50   1
  -7   1   2    0.30    0.50   1
   7  -1  -1   15.30    0.90   1
  -7   1   1   16.60    0.90   1
   7  -1   0    2.60    0.70   1
  -7   1   0    3.60    0.60   1
   7  -1   1   10.40    0.80   1
  -7   1  -1    9.60    0.60   1
   7  -1   2   -0.40    0.50   1
  -7   1  -2    0.20    0.40   1
   7  -1   3    5.00    0.80   1
  -7   1  -3    5.80    0.50   1
   7  -1   4    0.50    0.60   1
  -7   1  -4   -0.10    0.40   1
   7  -1   5    5.90    0.80   1
  -7   1  -5    6.30    0.60   1
   7  -1   6    4.90    0.80   1
  -7   1  -6    5.90    0.70   1
   7  -1   7   32.50    2.50   1
  -7   1  -7   30.30    1.20   1
   7  -1   8   13.60    1.10   1
  -7   1  -8   12.60    1.00   1
   7  -1   9   10.80    1.10   1
  -7   1  -9   10.40    0.90   1
   7  -1  10    4.90    1.00   1
  -7   1 -10    2.90    1.10   1
   7  -1  11   -0.50    1.20   1
  -7   1 -11   -2.00    5.30   1
   7  -1  12    1.40    1.00   1
  -7   1 -12    1.30    5.20   1
   7  -1  13    2.30    1.10   1
   7   0 -13    3.70    1.70   1
  -7   0  13    3.60    0.90   1
   7   0 -12   18.10    2.20   1
  -7   0  12   18.10    1.30   1
   7   0 -11    7.90    1.60   1
  -7   0  11    4.50    0.90   1
   7   0 -10   19.90    1.40   1
  -7   0  10   22.20    1.50   1
   7   0  -9   -0.20    0.90   1
  -7   0   9    0.00    0.80   1
   7   0  -8    0.60    0.60   1
  -7   0   8   -0.10    0.60   1
   7   0  -7    2.30    0.60   1
  -7   0   7    1.40    0.70   1
   7   0  -6   26.80    2.00   1
  -7   0   6   24.10    1.40   1
   7   0  -5    0.30    0.80   1
  -7   0   5    0.50    0.60   1
   7   0  -4   28.10    1.90   1
  -7   0   4   28.20    1.50   1
   7   0  -3   -0.50    0.80   1
  -7   0   3    0.00    0.50   1
   7   0  -2    1.70    0.90   1
  -7   0   2    0.60    0.60   1
   7   0  -1    4.00    1.10   1
  -7   0   1    3.70    0.70   1
   7   0   0    0.40    0.80   1
  -7   0   0    0.80    0.60   1
   7   0   1   -1.40    0.90   1
  -7   0  -1    0.90    0.60   1
   7   0   2    7.80    1.20   1
  -7   0  -2    9.00    0.90   1
   7   0   3   -0.50    0.60   1
  -7   0  -3    0.50    0.60   1
   7   0   4   14.90    1.10   1
  -7   0  -4   17.00    0.90   1
   7   0   5    2.00    0.60   1
  -7   0  -5    0.90    0.50   1
   7   0   6   26.40    2.40   1
  -7   0  -6   27.10    1.30   1
   7   0   7    0.30    1.10   1
  -7   0  -7    1.70    0.70   1
   7   0   8    0.00    0.70   1
  -7   0  -8   -0.30    0.70   1
  -7   0  -9    1.90    0.80   1
   7   0  10    4.10    1.00   1
  -7   0 -10    5.50    0.90   1
   7   0  11    2.50    0.90   1
  -7   0 -11    0.20    1.00   1
   7   0  12    9.30    1.30   1
  -7   0 -12    9.40    1.60   1
   7   1 -12    0.20    1.50   1
  -7  -1  12    1.30    1.00   1
   7   1 -11    1.30    1.30   1
  -7  -1  11    0.20    0.90   1
   7   1 -10    0.30    0.90   1
  -7  -1  10    1.10    0.90   1
   7   1  -9   -0.90    0.70   1
  -7  -1   9    0.20    0.70   1
   7   1  -8   10.10    1.70   1
  -7  -1   8   11.60    1.20   1
   7   1  -7   16.60    1.20   1
  -7  -1   7   18.30    1.30   1
   7   1  -6    2.10    0.70   1
  -7  -1   6    0.70    0.70   1
   7   1  -5   -0.20    0.90   1
  -7  -1   5    0.20    0.80   1
   7   1  -4    0.20    0.90   1
  -7  -1   4    0.30    0.70   1
   7   1  -3    6.60    1.30   1
  -7  -1   3    7.50    0.90   1
   7   1  -2    1.50    1.00   1
  -7  -1   2    1.10    0.70   1
   7   1  -1   27.30    2.60   1
  -7  -1   1   24.30    1.40   1
  -7  -1   0    4.20    0.70   1
   7   1   1   19.10    1.70   1
  -7  -1  -1   18.10    1.10   1
  -7  -1  -2   -0.10    0.60   1
   7   1   3    0.30    1.10   1
  -7  -1  -3    1.10    0.60   1
   7   1   4    1.70    1.10   1
  -7  -1  -4    1.00    0.70   1
   7   1   5    8.30    1.40   1
  -7  -1  -5    8.00    0.90   1
   7   1   6    1.10    0.70   1
  -7  -1  -6    0.90    1.00   1
   7   1   7   22.20    1.30   1
  -7  -1  -7   30.80    2.20   1
   7   1   8    2.60    1.30   1
  -7  -1  -8    6.30    1.40   1
   7   1   9    1.80    0.80   1
  -7  -1  -9    3.30    1.40   1
   7   1  10    3.10    0.80   1
  -7  -1 -10    0.90    1.50   1
   7   1  11    1.70    0.90   1
  -7  -1 -11    2.80    1.70   1
   7   2 -11   13.10    2.10   1
  -7  -2  11   16.30    1.40   1
   7   2 -10   11.00    1.80   1
  -7  -2  10    9.60    1.50   1
   7   2  -9    0.70    1.40   1
  -7  -2   9   -0.30    1.00   1
   7   2  -8    0.00    0.80   1
  -7  -2   8    0.00    0.80   1
   7   2  -7    8.80    1.50   1
  -7  -2   7    7.70    1.10   1
   7   2  -6   24.80    1.70   1
  -7  -2   6   23.80    1.60   1
   7   2  -5    6.70    0.90   1
  -7  -2   5    6.10    0.90   1
   7   2  -4   12.80    1.20   1
  -7  -2   4   14.10    1.20   1
  -7  -2   3   10.30    1.10   1
  -7  -2   2    1.80    0.80   1
  -7  -2   1    0.10    0.70   1
   7   2   0   13.30    1.60   1
  -7  -2   0   11.80    1.10   1
   7   2   1    2.50    1.20   1
  -7  -2  -1    0.10    0.80   1
   7   2   2   12.70    1.50   1
  -7  -2  -2   15.20    1.20   1
   7   2   3    0.20    1.20   1
  -7  -2  -3   -0.50    0.90   1
   7   2   4    1.90    1.40   1
  -7  -2  -4   -0.80    0.70   1
   7   2   5    0.10    1.10   1
  -7  -2  -5    0.50    0.80   1
   7   2   6    0.40    1.30   1
  -7  -2  -6    0.20    1.10   1
   7   2   7   -0.80    1.30   1
  -7  -2  -7   -0.30    1.20   1
   7   2   8    6.10    1.80   1
  -7  -2  -8    7.20    1.60   1
   7   2   9    2.60    1.60   1
  -7  -2  -9    2.60    1.80   1
   7   3  -8    5.50    1.10   1
  -7  -3   8    4.10    1.10   1
   7   3  -7    0.40    0.80   1
  -7  -3   7    0.60    1.20   1
   7   3  -6   -0.60    0.90   1
  -7  -3   6   -0.70    0.90   1
   7   3  -5    4.10    1.30   1
  -7  -3   5    2.50    1.00   1
   7   3  -4    1.40    0.90   1
  -7  -3   4    0.70    1.00   1
   7   3  -3    2.10    0.90   1
  -7  -3   3    2.30    0.90   1
  -7  -3   2    5.30    1.00   1
   7   3  -1   20.20    2.30   1
  -7  -3   1   19.80    1.60   1
  -7  -3   0    2.50    1.00   1
   7   3   1    0.90    1.50   1
  -7  -3  -1    1.30    1.00   1
   7   3   2    3.20    1.30   1
  -7  -3  -2    3.40    1.00   1
   7   3   3    1.40    1.40   1
  -7  -3  -3   -1.30    0.90   1
   7   3   4    9.60    1.80   1
  -7  -3  -4    9.60    1.10   1
  -7  -3  -5   24.00    1.70   1
   7   3   6   -1.00    1.70   1
  -7  -3  -6    2.20    1.90   1
   8  -6  -5    2.70    1.70   1
   8  -6  -4    6.00    1.70   1
  -8   6   4    4.20    1.60   1
   8  -6  -3    4.80    1.40   1
  -8   6   3    5.70    1.70   1
   8  -6  -2   -0.50    1.40   1
  -8   6   2    1.10    1.50   1
   8  -6  -1    1.50    1.20   1
  -8   6   1   -1.20    1.30   1
   8  -6   0    3.10    1.50   1
  -8   6   0    2.70    1.30   1
   8  -6   1    3.00    1.60   1
  -8   6  -1    1.40    1.10   1
   8  -6   2   13.60    2.00   1
  -8   6  -2   13.20    1.40   1
   8  -6   3    0.50    1.50   1
  -8   6  -3    0.60    1.10   1
   8  -6   4    1.50    1.90   1
  -8   6  -4    0.80    1.10   1
   8  -6   5    0.30    1.50   1
  -8   6  -5    0.60    1.20   1
   8  -5  -8    0.90    0.90   1
  -8   5   8   -0.80    1.50   1
   8  -5  -7    4.50    1.00   1
  -8   5   7    1.90    1.90   1
   8  -5  -6    1.30    0.80   1
  -8   5   6    1.70    1.40   1
   8  -5  -5   10.50    1.10   1
  -8   5   5   11.30    1.80   1
   8  -5  -4    2.50    1.50   1
  -8   5   4    2.40    1.40   1
   8  -5  -3    4.40    1.40   1
  -8   5   3    5.50    1.50   1
   8  -5  -2    2.90    1.10   1
  -8   5   2    2.10    1.30   1
   8  -5  -1    0.70    1.00   1
  -8   5   1   -0.90    1.30   1
   8  -5   0    0.80    1.30   1
  -8   5   0    1.10    1.30   1
   8  -5   1    0.20    1.10   1
  -8   5  -1   -0.30    1.20   1
   8  -5   2    1.40    1.20   1
  -8   5  -2    0.80    1.50   1
   8  -5   3   22.80    2.40   1
  -8   5  -3   15.30    1.50   1
   8  -5   4    3.00    1.40   1
  -8   5  -4    3.80    1.00   1
   8  -5   5    3.40    1.00   1
  -8   5  -5    2.00    1.00   1
   8  -5   6    0.80    1.00   1
  -8   5  -6    0.80    1.10   1
   8  -5   7    4.60    1.20   1
  -8   5  -7    4.20    1.10   1
  -8   5  -8    0.30    1.20   1
   8  -4  -9    2.20    0.90   1
   8  -4  -8    9.40    1.10   1
   8  -4  -7   -1.70    0.70   1
   8  -4  -6    0.10    0.70   1
  -8   4   6   -1.90    1.30   1
   8  -4  -5    0.10    0.60   1
  -8   4   5   -0.40    1.40   1
   8  -4  -4   17.80    1.80   1
  -8   4   4   14.60    2.10   1
   8  -4  -3    1.50    1.20   1
  -8   4   3    2.30    1.00   1
   8  -4  -2   16.30    1.60   1
  -8   4   2   16.80    2.10   1
   8  -4  -1    1.60    1.10   1
  -8   4   1    0.70    1.20   1
   8  -4   0    5.20    1.20   1
  -8   4   0    4.20    1.30   1
   8  -4   1    4.30    1.30   1
  -8   4  -1    3.50    1.30   1
   8  -4   2    5.00    1.30   1
  -8   4  -2    3.80    1.40   1
   8  -4   3    8.30    1.00   1
  -8   4  -3    6.90    1.50   1
   8  -4   4   19.50    1.30   1
  -8   4  -4   17.90    1.90   1
   8  -4   5    0.90    0.90   1
  -8   4  -5    0.90    1.20   1
   8  -4   6    3.40    1.10   1
  -8   4  -6    9.40    1.80   1
   8  -4   7    1.60    1.00   1
  -8   4  -7   -1.10    1.50   1
   8  -4   8   -0.90    1.10   1
  -8   4  -8   -0.20    1.00   1
   8  -4   9    1.90    1.10   1
  -8   4  -9    0.60    1.10   1
   8  -3 -10    1.10    1.10   1
  -8   3  10    3.30    1.60   1
   8  -3  -9    0.20    0.90   1
  -8   3   9    0.80    1.40   1
   8  -3  -8    0.20    0.70   1
  -8   3   8    1.20    1.10   1
   8  -3  -7   10.40    0.90   1
  -8   3   7   12.00    1.50   1
   8  -3  -6    5.60    0.80   1
  -8   3   6    4.90    1.30   1
  -8   3   5   18.80    1.00   1
   8  -3  -4    5.80    1.10   1
  -8   3   4    5.30    1.20   1
   8  -3  -3    0.90    1.10   1
  -8   3   3   -1.60    1.30   1
   8  -3  -2    1.80    1.00   1
   8  -3  -1    1.70    1.00   1
  -8   3   1    2.00    1.00   1
   8  -3   0    2.10    1.50   1
  -8   3   0    1.50    1.20   1
   8  -3   1   19.60    1.20   1
  -8   3  -1   19.90    2.30   1
   8  -3   2   -0.60    0.70   1
  -8   3  -2   -0.60    3.80   1
   8  -3   3    1.30    0.80   1
  -8   3  -3   -2.30    1.00   1
   8  -3   4   -0.30    1.10   1
  -8   3  -4   -0.80    1.10   1
   8  -3   5    0.60    0.80   1
  -8   3  -5   -0.40    1.30   1
   8  -3   6    1.10    0.90   1
  -8   3  -6    0.30    1.50   1
   8  -3   7    4.70    1.00   1
  -8   3  -7    7.00    1.50   1
   8  -3   8    1.40    1.20   1
  -8   3  -8    0.20    1.50   1
   8  -3   9   17.40    2.10   1
  -8   3  -9   14.20    2.00   1
  -8   3 -10   12.40    7.40   1
   8  -2 -10    6.70    1.00   1
  -8   2  10   11.00    1.80   1
   8  -2  -9   10.50    1.30   1
  -8   2   9   11.50    1.70   1
   8  -2  -8    5.80    0.80   1
  -8   2   8    6.30    1.00   1
   8  -2  -7    0.60    0.80   1
  -8   2   7   -0.40    0.70   1
   8  -2  -6   -0.70    0.70   1
  -8   2   6    0.10    0.70   1
   8  -2  -5    4.80    1.30   1
  -8   2   5   10.00    1.00   1
   8  -2  -4   18.40    1.90   1
  -8   2   4   20.90    1.20   1
   8  -2  -3    1.10    1.10   1
  -8   2   3    2.40    0.70   1
   8  -2  -2   14.00    1.60   1
  -8   2   2   14.70    0.90   1
   8  -2  -1   -0.60    0.90   1
  -8   2   1   -0.40    0.50   1
   8  -2   0   -1.50    0.80   1
  -8   2   0   -0.20    0.50   1
   8  -2   1    2.90    0.80   1
  -8   2  -1    3.10    1.30   1
   8  -2   2    1.00    0.80   1
  -8   2  -2    0.30    1.10   1
   8  -2   3   -0.80    0.80   1
  -8   2  -3    0.20    1.40   1
   8  -2   4   10.70    1.10   1
  -8   2  -4   12.70    1.90   1
   8  -2   5    0.90    0.90   1
  -8   2  -5    0.20    1.20   1
   8  -2   6    4.20    1.60   1
  -8   2  -6    2.60    1.20   1
   8  -2   7    3.10    1.30   1
  -8   2  -7    2.80    1.20   1
   8  -2   8    1.70    0.90   1
  -8   2  -8    3.30    1.30   1
   8  -2   9    0.10    1.20   1
  -8   2  -9    0.20    1.50   1
   8  -1 -10    0.50    1.00   1
  -8   1  10    0.50    0.80   1
   8  -1  -9    3.80    1.30   1
  -8   1   9    4.30    0.80   1
   8  -1  -8    0.60    0.80   1
  -8   1   8    1.10    0.90   1
   8  -1  -7    0.90    0.80   1
  -8   1   7    2.00    0.80   1
   8  -1  -6    9.90    1.00   1
  -8   1   6   10.90    1.10   1
   8  -1  -5    4.00    1.30   1
  -8   1   5    4.90    0.90   1
   8  -1  -4   -1.30    1.10   1
  -8   1   4    0.00    0.80   1
   8  -1  -3    2.90    1.10   1
  -8   1   3    2.20    0.80   1
   8  -1  -2    0.80    1.10   1
  -8   1   2    0.30    0.70   1
   8  -1  -1    4.90    1.20   1
  -8   1   1    7.20    0.90   1
   8  -1   0    5.30    1.30   1
  -8   1   0    2.20    0.70   1
  -8   1  -1   11.80    1.10   1
   8  -1   2    3.50    1.20   1
  -8   1  -2    3.90    0.70   1
   8  -1   3    9.00    1.60   1
  -8   1  -3    5.90    0.70   1
   8  -1   4   -0.10    0.80   1
  -8   1  -4    0.70    0.60   1
   8  -1   5    4.30    0.90   1
  -8   1  -5    5.10    1.30   1
   8  -1   6   -0.20    1.30   1
  -8   1  -6   -1.30    1.00   1
   8  -1   7    7.50    1.10   1
  -8   1  -7   16.50    6.80   1
   8  -1   8    3.00    1.10   1
  -8   1  -8    2.30    1.30   1
   8  -1   9   14.70    2.20   1
  -8   1  -9    8.70    1.70   1
   8   0  -9   16.70    2.20   1
  -8   0   9   16.30    1.50   1
   8   0  -8    4.40    1.10   1
  -8   0   8    2.40    1.00   1
   8   0  -7    1.20    0.80   1
  -8   0   7    0.60    1.10   1
   8   0  -6    0.20    0.70   1
  -8   0   6   -0.10    0.80   1
   8   0  -5   23.90    1.50   1
  -8   0   5   23.90    1.60   1
   8   0  -4    9.20    1.40   1
  -8   0   4   10.30    1.00   1
   8   0  -3    6.60    1.50   1
  -8   0   3    8.80    1.00   1
   8   0  -2    2.10    1.20   1
  -8   0   2    3.90    0.90   1
   8   0  -1    3.60    1.30   1
  -8   0   1    6.00    0.90   1
  -8   0   0    0.80    0.80   1
   8   0   1    3.00    1.40   1
  -8   0  -1    1.90    0.80   1
  -8   0  -2   11.60    1.20   1
   8   0   3    4.60    1.50   1
  -8   0  -3    2.10    0.80   1
   8   0   4    5.00    1.60   1
  -8   0  -4    7.70    1.00   1
   8   0   5   -1.20    1.50   1
  -8   0  -5    1.40    0.90   1
   8   0   6    0.00    1.40   1
  -8   0  -6    1.00    1.40   1
   8   0   7   -0.50    1.40   1
  -8   0  -7    0.20    0.90   1
   8   0   8    1.40    1.80   1
   8   1  -7    0.00    1.00   1
  -8  -1   7   -0.50    1.10   1
   8   1  -6    4.90    1.60   1
  -8  -1   6    5.40    1.20   1
   8   1  -5    2.30    0.80   1
  -8  -1   5    2.50    1.00   1
   8   1  -4    2.30    1.40   1
  -8  -1   4    1.70    1.00   1
   8   1  -3    8.90    1.40   1
  -8  -1   3    9.20    1.20   1
   8   1  -2    4.90    1.50   1
  -8  -1   2    2.60    1.00   1
   8   1  -1   -0.10    1.20   1
  -8  -1   1    0.30    0.90   1
   8   1   0   11.10    1.80   1
  -8  -1   0   11.20    1.30   1
   8   1   1    6.60    1.60   1
  -8  -1  -1    7.50    1.00   1
   8   1   2    3.10    1.50   1
  -8  -1  -2    5.10    1.00   1
  -8  -1  -3    0.20    0.90   1
   8   1   4   -0.60    1.30   1
  -8  -1  -4    1.50    1.00   1
   8   1   5    0.20    1.60   1
  -8  -1  -5    1.40    0.90   1
   8   2  -2   -2.20    1.80   1
  -8  -2   2   -0.10    1.20   1
   8   2  -1   -0.10    1.60   1
  -8  -2   1    0.50    1.10   1
  -8  -2   0    1.00    1.10   1
   9  -3  -3    1.60    1.30   1
  -9   3   3   -2.40    3.50   1
   9  -3  -2    5.00    1.50   1
  -9   3   2    3.20    1.50   1
   9  -3  -1   -0.70    1.60   1
  -9   3   1    1.70    1.60   1
   9  -3   0    0.80    1.30   1
  -9   3   0    1.80    1.50   1
   9  -3   1    2.30    1.40   1
  -9   3  -1    1.60    1.50   1
   9  -3   2    2.30    1.50   1
  -9   3  -2    3.60    1.80   1
   9  -2  -3   18.90    2.30   1
  -9   2   3   17.00    3.40   1
  -9   2   2    3.30    3.90   1
   9  -2  -1    1.40    1.60   1
  -9   2   1    2.70    4.20   1
   9  -2   0    4.00    1.60   1
  -9   2   0   -2.10    4.40   1
   9  -2   1    0.00    1.70   1
  -9   2  -1    3.40    1.60   1
   0   0   0
;
_shelx_hkl_checksum   38977

