 
data_k14065s 
 
_audit_creation_method            SHELXL-2014 
# CIF file edited on-the-fly by script CIFFIX (S. Parkin, 2000-2014). 
# CIFFIX: http://xray.uky.edu/people/parkin/programs/ciffix 
 
_publ_section_exptl_refinement 
; 
H atoms were found in difference Fourier maps, but subsequently included 
in the refinement using riding models, with constrained distances set to 
0.95 %A (C~sp2~H), 0.98 %A (RCH~3~), 0.99 %A (R~2~CH~2~) and 1.00 %A (R~3~CH). 
U~iso~(H) parameters were set to values of either 1.2U~eq~ or 1.5U~eq~ 
(RCH~3~ only) of the attached atom. 
 
To ensure satisfactory refinement of disordered groups in the structure, 
a combination of constraints and restraints were employed. The constraints 
(SHELXL commands EXYZ and EADP) were used to fix overlapping fragments. 
Restraints were used to maintain the integrity of ill-defined or disordered 
groups (SHELXL commands SAME and RIGU). 
; 
 
_publ_section_references 
; 
Hope, H. (1994). 
  <i>Prog. Inorg. Chem.</i> <b>41</b>, 1--19. 
 
Nonius (1998). 
  <i>Collect</i> Nonius BV, Delft, The Netherlands. 
 
Otwinowski, Z. & Minor, W. (2006). 
  <i>International Tables for Crystallography</i>, Vol. F, ch. 11.4, 226--235. 
 
Parkin, S. & Hope, H. (1998). 
  <i>J. Appl. Cryst.</i> <b>31</b>, 945--953. 
 
Parkin, S. (2000). 
  <i>Acta Cryst.</i> A<b>56</b>, 157--162. 
 
Parkin, S. (2013). 
  <i>CIFFIX</i>, http://xray.uky.edu/people/parkin/programs/ciffix 
 
Sheldrick, G.M. (2008a). 
  <i>Acta Cryst.</i> A<b>64</b>, 112--122. 
 
Sheldrick, G.M. (2008b). 
  <i>SADABS</i> University of G\"ottingen, Germany. 
 
Spek, A.L. (2009). 
  <i>Acta Cryst.</i> D<b>65</b>, 148--155. 
; 
 
_chemical_name_systematic 
; 
 ? 
; 
_chemical_name_common             ? 
_chemical_melting_point           ? 
_chemical_formula_moiety          'C36 H40 F2 S2 Si2' 
_chemical_formula_sum             'C36 H40 F2 S2 Si2' 
_chemical_formula_weight          630.98 
 
loop_ 
 _atom_type_symbol 
 _atom_type_description 
 _atom_type_scat_dispersion_real 
 _atom_type_scat_dispersion_imag 
 _atom_type_scat_source 
 'C'  'C'   0.0033   0.0016 
 'International Tables Vol C Tables 4.2.6.8 and 6.1.1.4' 
 'H'  'H'   0.0000   0.0000 
 'International Tables Vol C Tables 4.2.6.8 and 6.1.1.4' 
 'F'  'F'   0.0171   0.0103 
 'International Tables Vol C Tables 4.2.6.8 and 6.1.1.4' 
 'Si'  'Si'   0.0817   0.0704 
 'International Tables Vol C Tables 4.2.6.8 and 6.1.1.4' 
 'S'  'S'   0.1246   0.1234 
 'International Tables Vol C Tables 4.2.6.8 and 6.1.1.4' 
 
_space_group_crystal_system       monoclinic 
_space_group_IT_number            14 
_space_group_name_H-M_alt         'P 21/c' 
_space_group_name_Hall            '-P 2ybc' 
 
_shelx_space_group_comment 
; 
The symmetry employed for this shelxl refinement is uniquely defined 
by the following loop, which should always be used as a source of 
symmetry information in preference to the above space-group names. 
They are only intended as comments. 
; 
 
loop_ 
 _space_group_symop_operation_xyz 
 'x, y, z' 
 '-x, y+1/2, -z+1/2' 
 '-x, -y, -z' 
 'x, -y-1/2, z-1/2' 
 
_cell_length_a                    7.3261(1) 
_cell_length_b                    33.4045(5) 
_cell_length_c                    7.2059(1) 
_cell_angle_alpha                 90 
_cell_angle_beta                  107.5154(6) 
_cell_angle_gamma                 90 
_cell_volume                      1681.70(4) 
_cell_formula_units_Z             2 
_cell_measurement_temperature     90.0(2) 
_cell_measurement_reflns_used     3892 
_cell_measurement_theta_min       1.00 
_cell_measurement_theta_max       27.48 
 
_exptl_crystal_description        plate 
_exptl_crystal_colour             red 
_exptl_crystal_density_meas       ? 
_exptl_crystal_density_method     ? 
_exptl_crystal_density_diffrn     1.246 
_exptl_crystal_F_000              668 
_exptl_transmission_factor_min    ? 
_exptl_transmission_factor_max    ? 
_exptl_crystal_size_max           0.280 
_exptl_crystal_size_mid           0.220 
_exptl_crystal_size_min           0.030 
_exptl_absorpt_coefficient_mu     0.265 
_shelx_estimated_absorpt_T_min    0.930 
_shelx_estimated_absorpt_T_max    0.992 
_exptl_absorpt_correction_type    none 
_exptl_absorpt_correction_T_min   . 
_exptl_absorpt_correction_T_max   . 
_exptl_absorpt_process_details    . 
 
_exptl_special_details 
; 
The crystal was mounted with polyisobutene oil on the tip of a fine glass 
fibre, which was fastened in a copper mounting pin with electrical solder. 
It was placed directly into the cold gas stream of a liquid nitrogen based 
cryostat, according to published methods (Hope, 1994; Parkin & Hope, 1998). 
 
Diffraction data were collected with the crystal at 90K, which is standard 
practice in this laboratory for the majority of flash-cooled crystals. 
; 
 
_diffrn_ambient_temperature       90.0(2) 
_diffrn_radiation_wavelength      0.71073 
_diffrn_radiation_type            MoK\a 
_diffrn_source                    'fine-focus sealed-tube' 
_diffrn_measurement_device_type   'Nonius KappaCCD diffractometer' 
_diffrn_measurement_method        '\f and \w scans at fixed \c = 55\%' 
_diffrn_detector_area_resol_mean  9.1 
_diffrn_reflns_number             5881 
_diffrn_reflns_av_unetI/netI      0.0552 
_diffrn_reflns_av_R_equivalents   0.0380 
_diffrn_reflns_limit_h_min        -8 
_diffrn_reflns_limit_h_max        8 
_diffrn_reflns_limit_k_min        -39 
_diffrn_reflns_limit_k_max        39 
_diffrn_reflns_limit_l_min        -8 
_diffrn_reflns_limit_l_max        8 
_diffrn_reflns_theta_min          2.439 
_diffrn_reflns_theta_max          24.992 
_diffrn_reflns_theta_full         25.242 
_diffrn_measured_fraction_theta_max                1.000 
_diffrn_measured_fraction_theta_full               0.975 
_diffrn_reflns_Laue_measured_fraction_max          1.000 
_diffrn_reflns_Laue_measured_fraction_full         0.975 
_diffrn_reflns_point_group_measured_fraction_max   1.000 
_diffrn_reflns_point_group_measured_fraction_full  0.975 
 
_reflns_number_total              2969 
_reflns_number_gt                 1764 
_reflns_threshold_expression      'I > 2\s(I)' 
_reflns_Friedel_coverage          0.000 
_reflns_Friedel_fraction_max      . 
_reflns_Friedel_fraction_full     . 
 
_reflns_special_details 
; 
Reflections were merged by SHELXL according to the crystal 
class for the calculation of statistics and refinement. 
 
_reflns_Friedel_fraction is defined as the number of unique 
Friedel pairs measured divided by the number that would be 
possible theoretically, ignoring centric projections and 
systematic absences. 
; 
 
_computing_data_collection        '<i>COLLECT</i> (Nonius, 1998)' 
_computing_cell_refinement        '<i>SCALEPACK</i> (Otwinowski & Minor, 2006)' 
_computing_data_reduction         '<i>DENZO-SMN</i> (Otwinowski & Minor, 2006)' 
_computing_structure_solution     '<i>SHELXS-97</i> (Sheldrick, 2008a)' 
_computing_structure_refinement   '<i>SHELXL-2014</i> (Sheldrick, 2008a)' 
_computing_molecular_graphics     '<i>XP in SHELXTL</i> (Sheldrick, 2008a)' 
_computing_publication_material 
'<i>SHELX</i> (Sheldrick, 2008a) and <i>CIFFIX</i> (Parkin, 2013)' 
 
_refine_special_details 
; 
Refinement progress was checked using <i>Platon</i> (Spek, 2009) and by 
an <i>R</i>-tensor (Parkin, 2000). The final model was further checked 
with the IUCr utility <i>checkCIF</i>. 
; 
 
_refine_ls_structure_factor_coef  Fsqd 
_refine_ls_matrix_type            full 
_refine_ls_weighting_scheme       calc 
_refine_ls_weighting_details 
'w=1/[\s^2^(Fo^2^)+(0.0963P)^2^] where P=(Fo^2^+2Fc^2^)/3' 
_atom_sites_solution_primary      direct 
_atom_sites_solution_secondary    difmap 
_atom_sites_solution_hydrogens    difmap 
_refine_ls_hydrogen_treatment     constr 
_refine_ls_extinction_method      none 
_refine_ls_extinction_coef        . 
_refine_ls_number_reflns          2969 
_refine_ls_number_parameters      227 
_refine_ls_number_restraints      120 
_refine_ls_R_factor_all           0.1006 
_refine_ls_R_factor_gt            0.0562 
_refine_ls_wR_factor_ref          0.1651 
_refine_ls_wR_factor_gt           0.1435 
_refine_ls_goodness_of_fit_ref    1.019 
_refine_ls_restrained_S_all       1.011 
_refine_ls_shift/su_max           0.000 
_refine_ls_shift/su_mean          0.000 
 
loop_ 
 _atom_site_label 
 _atom_site_type_symbol 
 _atom_site_fract_x 
 _atom_site_fract_y 
 _atom_site_fract_z 
 _atom_site_U_iso_or_equiv 
 _atom_site_adp_type 
 _atom_site_occupancy 
 _atom_site_site_symmetry_order 
 _atom_site_calc_flag 
 _atom_site_refinement_flags_posn 
 _atom_site_refinement_flags_adp 
 _atom_site_refinement_flags_occupancy 
 _atom_site_disorder_assembly 
 _atom_site_disorder_group 
Si1 Si 0.52721(13) 0.65875(3) 0.15717(15) 0.0529(3) Uani 1 1 d . . . . . 
C1 C 0.5187(4) 0.53727(8) 0.4166(4) 0.0370(7) Uani 1 1 d . . . . . 
C2 C 0.6113(4) 0.53100(8) 0.6156(4) 0.0373(7) Uani 1 1 d . . . . . 
C3 C 0.7275(4) 0.56119(8) 0.7338(4) 0.0411(8) Uani 1 1 d . . . . . 
H3 H 0.7455 0.5861 0.6778 0.049 Uiso 1 1 calc R U . A 1 
C4 C 0.8129(4) 0.55446(8) 0.9271(4) 0.0395(7) Uani 0.719(3) 1 d D U P B 1 
S5 S 0.9623(3) 0.58734(5) 1.0967(2) 0.0466(5) Uani 0.719(3) 1 d D U P B 1 
C6 C 0.9759(9) 0.55169(16) 1.2779(6) 0.0427(11) Uani 0.719(3) 1 d D U P B 1 
F1 F 1.0829(5) 0.56226(9) 1.4593(4) 0.0560(8) Uani 0.719(3) 1 d D U P B 1 
C7 C 0.880(2) 0.5169(4) 1.2190(15) 0.0435(10) Uani 0.719(3) 1 d D U P B 1 
H7 H 0.8766 0.4952 1.3028 0.052 Uiso 0.719(3) 1 calc R U P B 1 
C8 C 0.7870(4) 0.51731(8) 1.0158(4) 0.0382(7) Uani 0.719(3) 1 d D U P B 1 
C4' C 0.8129(4) 0.55446(8) 0.9271(4) 0.0395(7) Uani 0.281(3) 1 d D U P B 2 
C5' C 0.923(3) 0.5821(5) 1.063(2) 0.0466(5) Uani 0.281(3) 1 d D U P B 2 
H5' H 0.9492 0.6089 1.0354 0.056 Uiso 0.281(3) 1 calc R U P B 2 
F1' F 1.0903(13) 0.5810(2) 1.4108(11) 0.0560(8) Uani 0.281(3) 1 d D U P B 2 
C6' C 0.987(3) 0.5643(4) 1.2414(14) 0.0427(11) Uani 0.281(3) 1 d D U P B 2 
S7' S 0.9037(15) 0.5162(3) 1.2608(9) 0.0435(10) Uani 0.281(3) 1 d D U P B 2 
C8' C 0.7870(4) 0.51731(8) 1.0158(4) 0.0382(7) Uani 0.281(3) 1 d D U P B 2 
C9 C 0.6798(4) 0.48769(9) 0.9051(4) 0.0403(7) Uani 1 1 d . . . . . 
H9 H 0.6644 0.4630 0.9643 0.048 Uiso 1 1 calc R U . B 1 
C10 C 0.5905(4) 0.49315(8) 0.7024(4) 0.0365(7) Uani 1 1 d . . . . . 
C12 C 0.5318(4) 0.57596(9) 0.3315(4) 0.0412(7) Uani 1 1 d . . . . . 
C13 C 0.5366(4) 0.60840(9) 0.2618(5) 0.0464(8) Uani 1 1 d . . . . . 
C14 C 0.4969(5) 0.65400(10) -0.1083(5) 0.0660(10) Uani 1 1 d . . . . . 
H14A H 0.4734 0.6810 -0.1679 0.079 Uiso 1 1 calc R U . . . 
H14B H 0.6181 0.6439 -0.1250 0.079 Uiso 1 1 calc R U . . . 
C15 C 0.3352(6) 0.62644(12) -0.2176(6) 0.0902(13) Uani 1 1 d . . . . . 
H15A H 0.3585 0.5994 -0.1622 0.135 Uiso 1 1 calc R U . . . 
H15B H 0.3291 0.6256 -0.3552 0.135 Uiso 1 1 calc R U . . . 
H15C H 0.2136 0.6366 -0.2057 0.135 Uiso 1 1 calc R U . . . 
C16 C 0.310(3) 0.6830(5) 0.2126(19) 0.069(2) Uani 0.632(6) 1 d D U P C 1 
H16A H 0.2111 0.6621 0.2016 0.083 Uiso 0.632(6) 1 calc R U P C 1 
H16B H 0.3508 0.6924 0.3491 0.083 Uiso 0.632(6) 1 calc R U P C 1 
C17 C 0.2197(14) 0.7174(3) 0.0841(19) 0.090(3) Uani 0.632(6) 1 d D U P C 1 
H17A H 0.3132 0.7391 0.0996 0.135 Uiso 0.632(6) 1 calc R U P C 1 
H17B H 0.1089 0.7271 0.1207 0.135 Uiso 0.632(6) 1 calc R U P C 1 
H17C H 0.1779 0.7086 -0.0518 0.135 Uiso 0.632(6) 1 calc R U P C 1 
C18 C 0.750(3) 0.6856(6) 0.269(2) 0.067(2) Uani 0.632(6) 1 d D U P C 1 
H18 H 0.8392 0.6748 0.2001 0.080 Uiso 0.632(6) 1 calc R U P C 1 
C19 C 0.7486(9) 0.72823(17) 0.2319(10) 0.091(3) Uani 0.632(6) 1 d D U P C 1 
H19A H 0.6829 0.7334 0.0940 0.137 Uiso 0.632(6) 1 calc R U P C 1 
H19B H 0.6814 0.7421 0.3119 0.137 Uiso 0.632(6) 1 calc R U P C 1 
H19C H 0.8805 0.7381 0.2647 0.137 Uiso 0.632(6) 1 calc R U P C 1 
C20 C 0.8534(13) 0.6761(3) 0.4873(14) 0.080(3) Uani 0.632(6) 1 d D U P C 1 
H20A H 0.8523 0.6471 0.5083 0.120 Uiso 0.632(6) 1 calc R U P C 1 
H20B H 0.9860 0.6855 0.5218 0.120 Uiso 0.632(6) 1 calc R U P C 1 
H20C H 0.7869 0.6896 0.5690 0.120 Uiso 0.632(6) 1 calc R U P C 1 
C16' C 0.770(5) 0.6845(11) 0.310(4) 0.067(2) Uani 0.368(6) 1 d D U P C 2 
H16C H 0.8805 0.6690 0.2953 0.080 Uiso 0.368(6) 1 calc R U P C 2 
H16D H 0.7775 0.7120 0.2612 0.080 Uiso 0.368(6) 1 calc R U P C 2 
C17' C 0.777(2) 0.6858(6) 0.523(3) 0.080(3) Uani 0.368(6) 1 d D U P C 2 
H17D H 0.8971 0.6985 0.5995 0.120 Uiso 0.368(6) 1 calc R U P C 2 
H17E H 0.6686 0.7013 0.5366 0.120 Uiso 0.368(6) 1 calc R U P C 2 
H17F H 0.7713 0.6585 0.5705 0.120 Uiso 0.368(6) 1 calc R U P C 2 
C18' C 0.319(5) 0.6856(8) 0.166(4) 0.069(2) Uani 0.368(6) 1 d D U P C 2 
H18' H 0.2044 0.6700 0.0895 0.083 Uiso 0.368(6) 1 calc R U P C 2 
C19' C 0.3125(19) 0.6874(3) 0.3654(19) 0.091(4) Uani 0.368(6) 1 d D U P C 2 
H19D H 0.3243 0.6603 0.4200 0.137 Uiso 0.368(6) 1 calc R U P C 2 
H19E H 0.4184 0.7040 0.4430 0.137 Uiso 0.368(6) 1 calc R U P C 2 
H19F H 0.1906 0.6991 0.3677 0.137 Uiso 0.368(6) 1 calc R U P C 2 
C20' C 0.300(3) 0.7291(5) 0.079(4) 0.090(3) Uani 0.368(6) 1 d D U P C 2 
H20D H 0.3038 0.7279 -0.0556 0.135 Uiso 0.368(6) 1 calc R U P C 2 
H20E H 0.1778 0.7408 0.0814 0.135 Uiso 0.368(6) 1 calc R U P C 2 
H20F H 0.4056 0.7457 0.1567 0.135 Uiso 0.368(6) 1 calc R U P C 2 
 
loop_ 
 _atom_site_aniso_label 
 _atom_site_aniso_U_11 
 _atom_site_aniso_U_22 
 _atom_site_aniso_U_33 
 _atom_site_aniso_U_23 
 _atom_site_aniso_U_13 
 _atom_site_aniso_U_12 
Si1 0.0538(6) 0.0330(5) 0.0651(7) 0.0035(4) 0.0078(5) -0.0014(4) 
C1 0.0309(16) 0.0332(16) 0.0495(19) -0.0030(14) 0.0158(14) 0.0008(12) 
C2 0.0344(17) 0.0343(16) 0.0453(19) -0.0047(14) 0.0154(14) 0.0017(13) 
C3 0.0408(18) 0.0314(16) 0.051(2) -0.0021(14) 0.0141(15) -0.0020(13) 
C4 0.0348(17) 0.0380(16) 0.0467(18) -0.0062(13) 0.0137(14) 0.0001(13) 
S5 0.0448(11) 0.0413(8) 0.0502(9) -0.0074(6) 0.0091(7) -0.0063(6) 
C6 0.040(2) 0.046(3) 0.042(2) -0.0077(18) 0.0125(19) -0.004(2) 
F1 0.0642(14) 0.049(2) 0.0487(17) -0.0092(14) 0.0082(13) -0.0087(18) 
C7 0.038(2) 0.0533(13) 0.037(3) -0.0096(17) 0.008(2) -0.0021(12) 
C8 0.0330(16) 0.0383(16) 0.0453(18) -0.0055(13) 0.0148(13) 0.0009(13) 
C4' 0.0348(17) 0.0380(16) 0.0467(18) -0.0062(13) 0.0137(14) 0.0001(13) 
C5' 0.0448(11) 0.0413(8) 0.0502(9) -0.0074(6) 0.0091(7) -0.0063(6) 
F1' 0.0642(14) 0.049(2) 0.0487(17) -0.0092(14) 0.0082(13) -0.0087(18) 
C6' 0.040(2) 0.046(3) 0.042(2) -0.0077(18) 0.0125(19) -0.004(2) 
S7' 0.038(2) 0.0533(13) 0.037(3) -0.0096(17) 0.008(2) -0.0021(12) 
C8' 0.0330(16) 0.0383(16) 0.0453(18) -0.0055(13) 0.0148(13) 0.0009(13) 
C9 0.0359(17) 0.0387(17) 0.049(2) -0.0016(15) 0.0163(15) -0.0017(14) 
C10 0.0313(16) 0.0335(17) 0.0474(19) -0.0035(14) 0.0157(14) 0.0001(13) 
C12 0.0345(17) 0.0370(17) 0.0503(19) -0.0069(15) 0.0101(14) -0.0038(14) 
C13 0.0401(18) 0.0376(19) 0.057(2) -0.0037(16) 0.0075(15) -0.0039(15) 
C14 0.078(3) 0.046(2) 0.066(3) 0.0082(18) 0.009(2) 0.0006(19) 
C15 0.098(3) 0.081(3) 0.073(3) -0.011(2) -0.001(2) -0.003(3) 
C16 0.076(3) 0.046(3) 0.088(7) -0.006(4) 0.026(5) 0.003(2) 
C17 0.085(8) 0.065(6) 0.122(4) 0.014(4) 0.032(6) 0.029(5) 
C18 0.071(5) 0.038(2) 0.077(6) 0.008(4) -0.001(4) -0.012(3) 
C19 0.097(5) 0.057(4) 0.090(5) 0.018(3) -0.016(4) -0.025(3) 
C20 0.065(7) 0.064(5) 0.085(5) 0.009(4) -0.015(4) -0.010(4) 
C16' 0.071(5) 0.038(2) 0.077(6) 0.008(4) -0.001(4) -0.012(3) 
C17' 0.065(7) 0.064(5) 0.085(5) 0.009(4) -0.015(4) -0.010(4) 
C18' 0.076(3) 0.046(3) 0.088(7) -0.006(4) 0.026(5) 0.003(2) 
C19' 0.127(11) 0.060(7) 0.103(8) 0.004(6) 0.058(8) 0.025(7) 
C20' 0.085(8) 0.065(6) 0.122(4) 0.014(4) 0.032(6) 0.029(5) 
 
_geom_special_details 
; 
 All esds (except the esd in the dihedral angle between two l.s. planes) 
 are estimated using the full covariance matrix.  The cell esds are taken 
 into account individually in the estimation of esds in distances, angles 
 and torsion angles; correlations between esds in cell parameters are only 
 used when they are defined by crystal symmetry.  An approximate (isotropic) 
 treatment of cell esds is used for estimating esds involving l.s. planes. 
; 
 
loop_ 
 _geom_bond_atom_site_label_1 
 _geom_bond_atom_site_label_2 
 _geom_bond_distance 
 _geom_bond_site_symmetry_2 
 _geom_bond_publ_flag 
Si1 C18' 1.79(3) . ? 
Si1 C18 1.824(19) . ? 
Si1 C13 1.836(3) . ? 
Si1 C14 1.865(4) . ? 
Si1 C16 1.933(17) . ? 
Si1 C16' 1.98(3) . ? 
C1 C2 1.406(4) . ? 
C1 C10 1.413(4) 3_666 ? 
C1 C12 1.446(4) . ? 
C2 C3 1.425(4) . ? 
C2 C10 1.439(4) . ? 
C3 C4 1.362(4) . ? 
C3 H3 0.9500 . ? 
C4 C8 1.434(4) . ? 
C4 S5 1.759(3) . ? 
S5 C6 1.747(5) . ? 
C6 F1 1.353(4) . ? 
C6 C7 1.357(12) . ? 
C7 C8 1.417(10) . ? 
C7 H7 0.9500 . ? 
C8 C9 1.362(4) . ? 
C5' C6' 1.361(14) . ? 
C5' H5' 0.9500 . ? 
F1' C6' 1.347(7) . ? 
C6' S7' 1.742(9) . ? 
C9 C10 1.421(4) . ? 
C9 H9 0.9500 . ? 
C10 C1 1.412(4) 3_666 ? 
C12 C13 1.199(4) . ? 
C14 C15 1.520(5) . ? 
C14 H14A 0.9900 . ? 
C14 H14B 0.9900 . ? 
C15 H15A 0.9800 . ? 
C15 H15B 0.9800 . ? 
C15 H15C 0.9800 . ? 
C16 C17 1.498(14) . ? 
C16 H16A 0.9900 . ? 
C16 H16B 0.9900 . ? 
C17 H17A 0.9800 . ? 
C17 H17B 0.9800 . ? 
C17 H17C 0.9800 . ? 
C18 C19 1.448(19) . ? 
C18 C20 1.561(14) . ? 
C18 H18 1.0000 . ? 
C19 H19A 0.9800 . ? 
C19 H19B 0.9800 . ? 
C19 H19C 0.9800 . ? 
C20 H20A 0.9800 . ? 
C20 H20B 0.9800 . ? 
C20 H20C 0.9800 . ? 
C16' C17' 1.52(2) . ? 
C16' H16C 0.9900 . ? 
C16' H16D 0.9900 . ? 
C17' H17D 0.9800 . ? 
C17' H17E 0.9800 . ? 
C17' H17F 0.9800 . ? 
C18' C19' 1.45(2) . ? 
C18' C20' 1.57(2) . ? 
C18' H18' 1.0000 . ? 
C19' H19D 0.9800 . ? 
C19' H19E 0.9800 . ? 
C19' H19F 0.9800 . ? 
C20' H20D 0.9800 . ? 
C20' H20E 0.9800 . ? 
C20' H20F 0.9800 . ? 
 
loop_ 
 _geom_angle_atom_site_label_1 
 _geom_angle_atom_site_label_2 
 _geom_angle_atom_site_label_3 
 _geom_angle 
 _geom_angle_site_symmetry_1 
 _geom_angle_site_symmetry_3 
 _geom_angle_publ_flag 
C18' Si1 C13 111.7(8) . . ? 
C18 Si1 C13 110.6(5) . . ? 
C18' Si1 C14 104.0(8) . . ? 
C18 Si1 C14 108.0(5) . . ? 
C13 Si1 C14 108.75(15) . . ? 
C18 Si1 C16 112.7(6) . . ? 
C13 Si1 C16 103.3(4) . . ? 
C14 Si1 C16 113.4(4) . . ? 
C18' Si1 C16' 113.3(11) . . ? 
C13 Si1 C16' 104.6(9) . . ? 
C14 Si1 C16' 114.5(8) . . ? 
C2 C1 C10 121.6(3) . 3_666 ? 
C2 C1 C12 119.5(3) . . ? 
C10 C1 C12 118.9(3) 3_666 . ? 
C1 C2 C3 121.5(3) . . ? 
C1 C2 C10 119.5(3) . . ? 
C3 C2 C10 119.0(3) . . ? 
C4 C3 C2 120.1(3) . . ? 
C4 C3 H3 119.9 . . ? 
C2 C3 H3 119.9 . . ? 
C3 C4 C8 121.1(3) . . ? 
C3 C4 S5 127.3(2) . . ? 
C8 C4 S5 111.6(2) . . ? 
C6 S5 C4 88.71(17) . . ? 
F1 C6 C7 128.3(6) . . ? 
F1 C6 S5 115.5(3) . . ? 
C7 C6 S5 116.2(5) . . ? 
C6 C7 C8 111.0(8) . . ? 
C6 C7 H7 124.5 . . ? 
C8 C7 H7 124.5 . . ? 
C9 C8 C7 127.7(6) . . ? 
C9 C8 C4 119.9(3) . . ? 
C7 C8 C4 112.4(5) . . ? 
C6' C5' H5' 125.2 . . ? 
F1' C6' C5' 127.9(9) . . ? 
F1' C6' S7' 115.0(7) . . ? 
C5' C6' S7' 116.6(7) . . ? 
C8 C9 C10 121.0(3) . . ? 
C8 C9 H9 119.5 . . ? 
C10 C9 H9 119.5 . . ? 
C1 C10 C9 122.2(3) 3_666 . ? 
C1 C10 C2 118.9(3) 3_666 . ? 
C9 C10 C2 118.9(3) . . ? 
C13 C12 C1 177.7(3) . . ? 
C12 C13 Si1 175.9(3) . . ? 
C15 C14 Si1 114.6(3) . . ? 
C15 C14 H14A 108.6 . . ? 
Si1 C14 H14A 108.6 . . ? 
C15 C14 H14B 108.6 . . ? 
Si1 C14 H14B 108.6 . . ? 
H14A C14 H14B 107.6 . . ? 
C14 C15 H15A 109.5 . . ? 
C14 C15 H15B 109.5 . . ? 
H15A C15 H15B 109.5 . . ? 
C14 C15 H15C 109.5 . . ? 
H15A C15 H15C 109.5 . . ? 
H15B C15 H15C 109.5 . . ? 
C17 C16 Si1 115.5(9) . . ? 
C17 C16 H16A 108.4 . . ? 
Si1 C16 H16A 108.4 . . ? 
C17 C16 H16B 108.4 . . ? 
Si1 C16 H16B 108.4 . . ? 
H16A C16 H16B 107.5 . . ? 
C16 C17 H17A 109.5 . . ? 
C16 C17 H17B 109.5 . . ? 
H17A C17 H17B 109.5 . . ? 
C16 C17 H17C 109.5 . . ? 
H17A C17 H17C 109.5 . . ? 
H17B C17 H17C 109.5 . . ? 
C19 C18 C20 111.2(12) . . ? 
C19 C18 Si1 116.6(10) . . ? 
C20 C18 Si1 116.3(11) . . ? 
C19 C18 H18 103.6 . . ? 
C20 C18 H18 103.6 . . ? 
Si1 C18 H18 103.6 . . ? 
C18 C19 H19A 109.5 . . ? 
C18 C19 H19B 109.5 . . ? 
H19A C19 H19B 109.5 . . ? 
C18 C19 H19C 109.5 . . ? 
H19A C19 H19C 109.5 . . ? 
H19B C19 H19C 109.5 . . ? 
C18 C20 H20A 109.5 . . ? 
C18 C20 H20B 109.5 . . ? 
H20A C20 H20B 109.5 . . ? 
C18 C20 H20C 109.5 . . ? 
H20A C20 H20C 109.5 . . ? 
H20B C20 H20C 109.5 . . ? 
C17' C16' Si1 109(2) . . ? 
C17' C16' H16C 109.9 . . ? 
Si1 C16' H16C 109.9 . . ? 
C17' C16' H16D 109.9 . . ? 
Si1 C16' H16D 109.9 . . ? 
H16C C16' H16D 108.3 . . ? 
C16' C17' H17D 109.5 . . ? 
C16' C17' H17E 109.5 . . ? 
H17D C17' H17E 109.5 . . ? 
C16' C17' H17F 109.5 . . ? 
H17D C17' H17F 109.5 . . ? 
H17E C17' H17F 109.5 . . ? 
C19' C18' C20' 109(2) . . ? 
C19' C18' Si1 109.8(17) . . ? 
C20' C18' Si1 114.9(18) . . ? 
C19' C18' H18' 107.5 . . ? 
C20' C18' H18' 107.5 . . ? 
Si1 C18' H18' 107.5 . . ? 
C18' C19' H19D 109.5 . . ? 
C18' C19' H19E 109.5 . . ? 
H19D C19' H19E 109.5 . . ? 
C18' C19' H19F 109.5 . . ? 
H19D C19' H19F 109.5 . . ? 
H19E C19' H19F 109.5 . . ? 
C18' C20' H20D 109.5 . . ? 
C18' C20' H20E 109.5 . . ? 
H20D C20' H20E 109.5 . . ? 
C18' C20' H20F 109.5 . . ? 
H20D C20' H20F 109.5 . . ? 
H20E C20' H20F 109.5 . . ? 
 
loop_ 
 _geom_torsion_atom_site_label_1 
 _geom_torsion_atom_site_label_2 
 _geom_torsion_atom_site_label_3 
 _geom_torsion_atom_site_label_4 
 _geom_torsion 
 _geom_torsion_site_symmetry_1 
 _geom_torsion_site_symmetry_2 
 _geom_torsion_site_symmetry_3 
 _geom_torsion_site_symmetry_4 
 _geom_torsion_publ_flag 
C10 C1 C2 C3 177.5(3) 3_666 . . . ? 
C12 C1 C2 C3 -3.8(4) . . . . ? 
C10 C1 C2 C10 -1.8(4) 3_666 . . . ? 
C12 C1 C2 C10 176.9(2) . . . . ? 
C1 C2 C3 C4 178.9(3) . . . . ? 
C10 C2 C3 C4 -1.8(4) . . . . ? 
C2 C3 C4 C8 -0.4(4) . . . . ? 
C2 C3 C4 S5 179.4(2) . . . . ? 
C3 C4 S5 C6 177.8(4) . . . . ? 
C8 C4 S5 C6 -2.3(3) . . . . ? 
C4 S5 C6 F1 -179.4(5) . . . . ? 
C4 S5 C6 C7 1.4(10) . . . . ? 
F1 C6 C7 C8 -179.2(8) . . . . ? 
S5 C6 C7 C8 -0.1(16) . . . . ? 
C6 C7 C8 C9 179.2(7) . . . . ? 
C6 C7 C8 C4 -1.7(15) . . . . ? 
C3 C4 C8 C9 1.8(4) . . . . ? 
S5 C4 C8 C9 -178.1(2) . . . . ? 
C3 C4 C8 C7 -177.4(8) . . . . ? 
S5 C4 C8 C7 2.7(9) . . . . ? 
C7 C8 C9 C10 178.2(10) . . . . ? 
C4 C8 C9 C10 -0.8(4) . . . . ? 
C8 C9 C10 C1 178.9(3) . . . 3_666 ? 
C8 C9 C10 C2 -1.4(4) . . . . ? 
C1 C2 C10 C1 1.7(4) . . . 3_666 ? 
C3 C2 C10 C1 -177.6(2) . . . 3_666 ? 
C1 C2 C10 C9 -178.0(2) . . . . ? 
C3 C2 C10 C9 2.7(4) . . . . ? 
C18' Si1 C14 C15 -68.8(10) . . . . ? 
C18 Si1 C14 C15 170.4(7) . . . . ? 
C13 Si1 C14 C15 50.4(3) . . . . ? 
C16 Si1 C14 C15 -63.9(6) . . . . ? 
C16' Si1 C14 C15 167.0(12) . . . . ? 
C18' Si1 C18 C19 -40.8(14) . . . . ? 
C13 Si1 C18 C19 -167.2(9) . . . . ? 
C14 Si1 C18 C19 73.9(12) . . . . ? 
C16 Si1 C18 C19 -52.1(13) . . . . ? 
C16' Si1 C18 C19 -132(15) . . . . ? 
C18' Si1 C18 C20 93.5(12) . . . . ? 
C13 Si1 C18 C20 -33.0(15) . . . . ? 
C14 Si1 C18 C20 -151.9(11) . . . . ? 
C16 Si1 C18 C20 82.1(14) . . . . ? 
C16' Si1 C18 C20 3(13) . . . . ? 
C18 Si1 C18' C19' -69.5(17) . . . . ? 
C13 Si1 C18' C19' 56(2) . . . . ? 
C14 Si1 C18' C19' 173.4(15) . . . . ? 
C16 Si1 C18' C19' 19(7) . . . . ? 
C16' Si1 C18' C19' -62(2) . . . . ? 
C18 Si1 C18' C20' 54(2) . . . . ? 
C13 Si1 C18' C20' -179.9(16) . . . . ? 
C14 Si1 C18' C20' -63(2) . . . . ? 
C16 Si1 C18' C20' 143(10) . . . . ? 
C16' Si1 C18' C20' 62(2) . . . . ? 
 
_refine_diff_density_max    0.377 
_refine_diff_density_min   -0.260 
_refine_diff_density_rms    0.054 
 
_shelxl_version_number 2014-3 
 
_iucr_refine_instructions_details 
; 
TITL k14064t in P2(1)/c 
CELL  0.71073   7.3261  33.4045   7.2059   90.0000  107.5154   90.0000 
ZERR     2.00   0.0001   0.0005   0.0001    0.0000    0.0006    0.0000 
LATT  1 
SYMM -X, 1/2+Y, 1/2-Z 
SFAC C H F SI S 
UNIT 72 80 4 4 4 
TEMP -183 
SIZE 0.28 0.22 0.03 
OMIT -2 50 
REM COLR red 
REM FORM plate 
L.S. 10 
BOND $H 
CONF 
HTAB 
LIST 4 
ACTA 
FMAP 2 
PLAN 10 
WGHT    0.096300 
FVAR       0.31943   0.71928   0.63165 
SI1   4    0.527208    0.658749    0.157171    11.00000    0.05377    0.03303 = 
         0.06510    0.00349    0.00778   -0.00139 
C1    1    0.518736    0.537272    0.416554    11.00000    0.03090    0.03318 = 
         0.04947   -0.00303    0.01576    0.00079 
C2    1    0.611265    0.531005    0.615622    11.00000    0.03445    0.03428 = 
         0.04531   -0.00474    0.01544    0.00172 
C3    1    0.727516    0.561191    0.733840    11.00000    0.04084    0.03141 = 
         0.05128   -0.00208    0.01407   -0.00205 
AFIX  43 
H3    2    0.745533    0.586055    0.677788    11.00000   -1.20000 
AFIX   0 
EXYZ C4 C4' 
EXYZ C8 C8' 
EADP C4 C4' 
EADP S5 C5' 
EADP C6 C6' 
EADP F1 F1' 
EADP C7 S7' 
EADP C8 C8' 
SAME 0.010 C8' < C4' 
RIGU C4 > C8' 
PART 1 
C4    1    0.812868    0.554464    0.927078    21.00000    0.03483    0.03797 = 
         0.04666   -0.00618    0.01372    0.00009 
S5    5    0.962281    0.587338    1.096741    21.00000    0.04483    0.04127 = 
         0.05024   -0.00742    0.00907   -0.00627 
C6    1    0.975904    0.551694    1.277895    21.00000    0.04022    0.04633 = 
         0.04179   -0.00772    0.01250   -0.00443 
F1    3    1.082950    0.562259    1.459266    21.00000    0.06419    0.04928 = 
         0.04868   -0.00917    0.00822   -0.00874 
C7    1    0.880391    0.516922    1.218987    21.00000    0.03838    0.05326 = 
         0.03665   -0.00959    0.00811   -0.00213 
AFIX  43 
H7    2    0.876584    0.495193    1.302794    21.00000   -1.20000 
AFIX   0 
C8    1    0.787022    0.517315    1.015786    21.00000    0.03305    0.03832 = 
         0.04529   -0.00548    0.01477    0.00088 
PART 2 
C4'   1    0.812868    0.554464    0.927078   -21.00000    0.03483    0.03797 = 
         0.04666   -0.00618    0.01372    0.00009 
C5'   1    0.923376    0.582061    1.063435   -21.00000    0.04483    0.04127 = 
         0.05024   -0.00742    0.00907   -0.00627 
AFIX  43 
H5'   2    0.949205    0.608883    1.035361   -21.00000   -1.20000 
AFIX   0 
F1'   3    1.090323    0.580965    1.410770   -21.00000    0.06419    0.04928 = 
         0.04868   -0.00917    0.00822   -0.00874 
C6'   1    0.987257    0.564322    1.241403   -21.00000    0.04022    0.04633 = 
         0.04179   -0.00772    0.01250   -0.00443 
S7'   5    0.903714    0.516155    1.260787   -21.00000    0.03838    0.05326 = 
         0.03665   -0.00959    0.00811   -0.00213 
C8'   1    0.787022    0.517315    1.015786   -21.00000    0.03305    0.03832 = 
         0.04529   -0.00548    0.01477    0.00088 
PART 0 
C9    1    0.679754    0.487686    0.905114    11.00000    0.03588    0.03872 = 
         0.04864   -0.00161    0.01628   -0.00169 
AFIX  43 
H9    2    0.664408    0.463017    0.964302    11.00000   -1.20000 
AFIX   0 
C10   1    0.590492    0.493147    0.702437    11.00000    0.03134    0.03348 = 
         0.04738   -0.00349    0.01575    0.00007 
C12   1    0.531798    0.575962    0.331459    11.00000    0.03453    0.03695 = 
         0.05029   -0.00691    0.01014   -0.00376 
C13   1    0.536646    0.608396    0.261784    11.00000    0.04006    0.03762 = 
         0.05689   -0.00367    0.00748   -0.00394 
C14   1    0.496919    0.654005   -0.108290    11.00000    0.07838    0.04569 = 
         0.06579    0.00817    0.00946    0.00057 
AFIX  23 
H14A  2    0.473363    0.680954   -0.167900    11.00000   -1.20000 
H14B  2    0.618110    0.643935   -0.124966    11.00000   -1.20000 
AFIX   0 
C15   1    0.335152    0.626439   -0.217560    11.00000    0.09836    0.08145 = 
         0.07318   -0.01064   -0.00060   -0.00282 
AFIX 137 
H15A  2    0.358476    0.599444   -0.162215    11.00000   -1.50000 
H15B  2    0.329102    0.625552   -0.355222    11.00000   -1.50000 
H15C  2    0.213588    0.636550   -0.205689    11.00000   -1.50000 
AFIX   0 
EADP C16' C18 
EADP C17' C20 
EADP C18' C16 
EADP C20' C17 
SAME 0.020 C16' > C20' 
RIGU C16 > C20' 
PART 1 
C16   1    0.309701    0.682997    0.212563    31.00000    0.07593    0.04576 = 
         0.08768   -0.00559    0.02649    0.00346 
AFIX  23 
H16A  2    0.211058    0.662126    0.201562    31.00000   -1.20000 
H16B  2    0.350800    0.692427    0.349141    31.00000   -1.20000 
AFIX   0 
C17   1    0.219655    0.717399    0.084146    31.00000    0.08457    0.06454 = 
         0.12156    0.01397    0.03222    0.02912 
AFIX 137 
H17A  2    0.313245    0.739066    0.099607    31.00000   -1.50000 
H17B  2    0.108913    0.727074    0.120662    31.00000   -1.50000 
H17C  2    0.177907    0.708560   -0.051829    31.00000   -1.50000 
AFIX   0 
C18   1    0.749926    0.685621    0.268904    31.00000    0.07106    0.03761 = 
         0.07705    0.00841   -0.00079   -0.01181 
AFIX  13 
H18   2    0.839176    0.674770    0.200086    31.00000   -1.20000 
AFIX   0 
C19   1    0.748570    0.728228    0.231891    31.00000    0.09709    0.05720 = 
         0.09031    0.01798   -0.01648   -0.02537 
AFIX  33 
H19A  2    0.682898    0.733375    0.094015    31.00000   -1.50000 
H19B  2    0.681386    0.742101    0.311919    31.00000   -1.50000 
H19C  2    0.880508    0.738055    0.264683    31.00000   -1.50000 
AFIX   0 
C20   1    0.853412    0.676065    0.487331    31.00000    0.06533    0.06370 = 
         0.08508    0.00861   -0.01513   -0.01034 
AFIX  33 
H20A  2    0.852266    0.647091    0.508290    31.00000   -1.50000 
H20B  2    0.986036    0.685529    0.521812    31.00000   -1.50000 
H20C  2    0.786914    0.689575    0.569048    31.00000   -1.50000 
AFIX   0 
PART 2 
C16'  1    0.770268    0.684475    0.309757   -31.00000    0.07106    0.03761 = 
         0.07705    0.00841   -0.00079   -0.01181 
AFIX  23 
H16C  2    0.880512    0.669034    0.295254   -31.00000   -1.20000 
H16D  2    0.777479    0.711973    0.261191   -31.00000   -1.20000 
AFIX   0 
C17'  1    0.777471    0.685812    0.523112   -31.00000    0.06533    0.06370 = 
         0.08508    0.00861   -0.01513   -0.01034 
AFIX  33 
H17D  2    0.897137    0.698481    0.599545   -31.00000   -1.50000 
H17E  2    0.668588    0.701315    0.536556   -31.00000   -1.50000 
H17F  2    0.771324    0.658499    0.570521   -31.00000   -1.50000 
AFIX   0 
C18'  1    0.318676    0.685584    0.166472   -31.00000    0.07593    0.04576 = 
         0.08768   -0.00559    0.02649    0.00346 
AFIX  13 
H18'  2    0.204385    0.670005    0.089496   -31.00000   -1.20000 
AFIX   0 
C19'  1    0.312503    0.687393    0.365367   -31.00000    0.12733    0.05959 = 
         0.10268    0.00364    0.05794    0.02474 
AFIX  33 
H19D  2    0.324320    0.660307    0.419961   -31.00000   -1.50000 
H19E  2    0.418414    0.703969    0.443019   -31.00000   -1.50000 
H19F  2    0.190598    0.699126    0.367664   -31.00000   -1.50000 
AFIX   0 
C20'  1    0.299677    0.729116    0.078998   -31.00000    0.08457    0.06454 = 
         0.12156    0.01397    0.03222    0.02912 
AFIX  33 
H20D  2    0.303836    0.727925   -0.055557   -31.00000   -1.50000 
H20E  2    0.177776    0.740839    0.081373   -31.00000   -1.50000 
H20F  2    0.405591    0.745681    0.156727   -31.00000   -1.50000 
PART 0 
AFIX   0 
HKLF 4 
 
REM  k14064t in P2(1)/c 
REM R1 =  0.0562 for    1764 Fo > 4sig(Fo)  and  0.1006 for all    2969 data 
REM    227 parameters refined using    120 restraints 
 
END 
 
WGHT      0.0946      0.0000 
 
REM Instructions for potential hydrogen bonds 
EQIV $1 -x+2, -y+1, -z+3 
HTAB C7 F1_$1 
 
REM Highest difference peak  0.377,  deepest hole -0.260,  1-sigma level  0.054 
Q1    1   0.4854  0.5310  0.3679  11.00000  0.05    0.24 
Q2    1   0.8071  0.5570  0.8446  11.00000  0.05    0.24 
Q3    1   0.9491  0.6986  0.5774  11.00000  0.05    0.23 
Q4    1   0.9389  0.5280  1.2514  11.00000  0.05    0.21 
Q5    1   0.5816  0.4823  0.6646  11.00000  0.05    0.20 
Q6    1   0.5709  0.6580 -0.0997  11.00000  0.05    0.20 
Q7    1   0.5552  0.6021  0.2233  11.00000  0.05    0.19 
Q8    1   0.9022  0.6782  0.2934  11.00000  0.05    0.19 
Q9    1   0.6153  0.6261  0.2897  11.00000  0.05    0.19 
Q10   1   0.4782  0.5791  0.2328  11.00000  0.05    0.17 
; 
_shelx_res_checksum   93592 
 
_shelx_hkl_file
;
   1   0   0  363.70    6.41     0.902
   2   0   0  190.84    2.97     0.900
   3   0   0   71.50    1.48     0.870
   4   0   0  201.44    3.43     0.901
   5   0   0   59.58    1.65     0.870
   6   0   0    2.63    1.31     1.194
   7   0   0   11.22    1.60     1.002
   8   0   0    0.08    0.45     0.253
   1  -1   0   45.74    0.79     0.876
  -1   1   0   46.58    0.79     0.876
   2  -1   0   64.03    1.13     0.872
  -2   1   0   64.64    1.22     0.872
   3  -1   0   31.51    0.81     0.903
  -3   1   0   31.42    0.81     0.903
   4  -1   0   79.15    1.58     0.879
  -4   1   0   80.29    1.58     0.878
   5  -1   0  113.12    2.60     0.898
  -5   1   0  112.22    2.51     0.898
   6  -1   0    1.50    1.38     1.252
  -6   1   0    1.75    1.38     1.253
   7  -1   0   12.29    1.78     1.050
  -7   1   0   12.29    1.68     1.051
   8  -1   0    4.39    2.93     1.625
  -8   1   0   -0.98    2.77     1.629
   1  -2   0  165.47    2.43     0.900
  -1   2   0  161.13    3.06     0.900
   2  -2   0  398.44    5.95     0.902
  -2   2   0  398.69    6.32     0.902
   3  -2   0   14.18    0.58     0.965
  -3   2   0   15.53    0.58     0.965
   4  -2   0   37.09    0.97     0.881
  -4   2   0   35.94    0.97     0.881
   5  -2   0    2.49    1.00     1.244
  -5   2   0    2.24    0.87     1.244
   6  -2   0    3.62    1.10     1.097
  -6   2   0    5.92    1.10     1.096
   7  -2   0   -1.56    2.02     1.555
  -7   2   0   -1.09    1.87     1.558
   8  -2   0    2.39    2.18     1.040
  -8   2   0    1.87    1.77     1.041
   1  -3   0  217.95    3.60     0.901
  -1   3   0  221.46    3.87     0.901
   2  -3   0    0.34    0.23     1.128
  -2   3   0    0.23    0.23     1.144
   3  -3   0   30.19    0.81     0.899
  -3   3   0   29.83    0.99     0.899
   4  -3   0   17.54    0.77     0.964
  -4   3   0   17.27    0.87     0.965
   5  -3   0   95.06    2.10     0.873
  -5   3   0   94.08    2.27     0.873
   6  -3   0    1.00    1.12     1.249
  -6   3   0    2.49    1.25     1.245
   7  -3   0   37.65    2.15     0.894
  -7   3   0   33.72    2.06     0.894
   8  -3   0    1.17    3.39     1.305
  -8   3   0    0.13    2.21     1.298
   0  -4   0   30.75    1.02     0.929
   0   4   0   32.33    0.74     0.929
   1  -4   0  124.20    2.07     0.898
  -1   4   0  121.24    1.89     0.898
   2  -4   0  649.82    9.76     0.904
  -2   4   0  620.35   11.57     0.904
   3  -4   0   21.65    0.58     0.958
  -3   4   0   23.08    0.77     0.958
   4  -4   0  125.87    2.15     0.898
  -4   4   0  120.39    2.42     0.898
   5  -4   0   14.19    0.95     0.952
  -5   4   0   14.78    1.05     0.953
   6  -4   0   22.42    1.21     0.934
  -6   4   0   20.65    1.49     0.934
   7  -4   0   -0.91    2.58     1.516
  -7   4   0   -0.75    1.96     1.508
   8  -4   0    0.63    2.24     0.898
  -8   4   0    1.77    1.68     0.886
   1  -5   0  260.97    4.15     0.901
  -1   5   0  253.79    4.06     0.902
   2  -5   0    5.85    0.34     1.125
  -2   5   0    4.73    0.45     1.126
   3  -5   0   32.77    0.81     0.903
  -3   5   0   32.68    0.99     0.903
   4  -5   0    8.36    0.60     0.996
  -4   5   0    8.07    0.60     0.996
   5  -5   0    0.32    0.74     1.057
  -5   5   0   -0.32    0.75     1.068
   6  -5   0   26.50    1.59     0.937
  -6   5   0   24.25    1.59     0.936
   7  -5   0    0.00    0.58     0.385
  -7   5   0    0.12    0.50     0.388
   8  -5   0    8.61    2.98     1.104
  -8   5   0    4.31    2.10     1.105
   0  -6   0  399.55   11.82     0.902
   0   6   0  428.48    7.22     0.902
   1  -6   0 1129.03   18.26     0.904
  -1   6   0 1133.70   16.27     0.904
   2  -6   0   67.35    1.13     0.870
  -2   6   0   67.29    1.48     0.871
   3  -6   0  218.94    3.60     0.901
  -3   6   0  216.67    3.96     0.901
   4  -6   0   22.12    0.77     0.966
  -4   6   0   19.99    0.87     0.966
   5  -6   0   14.47    0.96     0.965
  -5   6   0   13.97    1.06     0.963
   6  -6   0    3.87    1.25     1.247
  -6   6   0    2.99    1.37     1.246
   7  -6   0    1.60    2.32     1.451
  -7   6   0    2.03    1.89     1.451
   8  -6   0    4.90    3.19     1.226
  -8   6   0    1.23    2.21     1.229
   1  -7   0  315.71    4.87     0.902
  -1   7   0  322.37    3.97     0.901
   2  -7   0   47.25    0.97     0.882
  -2   7   0   46.28    1.06     0.881
   3  -7   0    3.02    0.50     1.259
  -3   7   0    2.65    0.50     1.260
   4  -7   0  118.63    2.16     0.898
  -4   7   0  117.92    2.51     0.898
   5  -7   0    0.26    0.61     0.871
  -5   7   0    0.26    0.61     0.878
   6  -7   0    1.33    1.77     1.474
  -6   7   0    1.48    1.48     1.480
   7  -7   0    3.08    1.76     1.100
  -7   7   0    2.20    1.43     1.098
   8  -7   0    2.63    2.40     1.144
  -8   7   0    6.40    2.17     1.142
   0  -8   0  568.37   16.24     0.902
   0   8   0  583.29   11.01     0.903
   1  -8   0  313.97    4.78     0.901
  -1   8   0  315.37    3.79     0.901
   2  -8   0    2.98    0.37     1.241
  -2   8   0    3.36    0.50     1.244
   3  -8   0    2.88    0.44     1.107
  -3   8   0    2.54    0.66     1.106
   4  -8   0  109.24    2.21     0.886
  -4   8   0  103.46    2.48     0.885
   5  -8   0    0.40    0.81     1.344
  -5   8   0   -0.14    1.09     1.366
   6  -8   0    2.97    1.29     1.293
  -6   8   0    3.10    1.42     1.293
   7  -8   0    0.00    0.26     0.151
  -7   8   0    0.25    0.20     0.157
   8  -8   0    0.92    0.85     0.341
  -8   8   0    0.04    0.67     0.352
   1  -9   0   -0.12    0.12     0.591
  -1   9   0    0.00    0.12     0.584
   2  -9   0    3.61    0.39     1.289
  -2   9   0    3.61    0.65     1.291
   3  -9   0   27.19    0.72     0.903
  -3   9   0   27.56    0.99     0.904
   4  -9   0   33.06    0.92     0.921
  -4   9   0   30.29    1.20     0.921
   5  -9   0   15.22    1.08     0.982
  -5   9   0   11.58    1.18     0.981
   6  -9   0   13.50    1.42     1.015
  -6   9   0   10.46    1.22     1.015
   7  -9   0   10.01    2.04     1.021
  -7   9   0   12.25    1.84     1.021
   8  -9   0   13.83    3.57     1.080
  -8   9   0   11.35    2.27     1.081
   0 -10   0    5.73    0.65     1.081
   0  10   0    5.74    0.43     1.082
   1 -10   0  159.15    2.70     0.900
  -1  10   0  156.99    2.25     0.900
   2 -10   0  118.70    1.98     0.898
  -2  10   0  118.08    2.07     0.898
   3 -10   0  169.40    3.06     0.900
  -3  10   0  159.13    3.15     0.900
   4 -10   0   48.87    1.33     0.884
  -4  10   0   48.61    1.50     0.884
   5 -10   0   12.23    0.98     0.978
  -5  10   0   12.22    1.17     0.978
   6 -10   0   20.67    1.53     0.957
  -6  10   0   17.51    1.53     0.957
   7 -10   0    1.31    2.77     1.455
  -7  10   0    0.44    2.04     1.454
   8 -10   0    0.00    4.10     1.243
  -8  10   0    6.22    1.99     1.243
   1 -11   0   23.59    0.74     0.922
  -1  11   0   23.60    0.55     0.922
   2 -11   0  201.18    3.33     0.901
  -2  11   0  202.71    2.88     0.901
   3 -11   0   16.79    0.57     0.954
  -3  11   0   16.50    0.86     0.954
   4 -11   0    4.91    0.60     1.198
  -4  11   0    3.83    0.84     1.197
   5 -11   0    6.81    0.97     1.082
  -5  11   0    9.20    1.30     1.082
   6 -11   0    6.64    1.20     1.088
  -6  11   0    6.31    1.31     1.088
   7 -11   0   52.49    3.14     0.897
  -7  11   0   42.16    2.15     0.897
   0 -12   0  576.17   23.21     0.903
   0  12   0  605.15   10.66     0.903
   1 -12   0    1.65    0.51     1.270
  -1  12   0    1.65    0.38     1.270
   2 -12   0  289.39    4.68     0.901
  -2  12   0  291.35    4.41     0.901
   3 -12   0   11.43    0.59     0.986
  -3  12   0   11.43    0.79     0.985
   4 -12   0   19.04    0.92     0.920
  -4  12   0   17.57    1.10     0.920
   5 -12   0   18.24    1.05     0.955
  -5  12   0   16.32    1.34     0.954
   6 -12   0   -0.10    0.97     0.974
  -6  12   0    1.46    1.07     0.972
   7 -12   0    0.00    0.72     0.358
  -7  12   0   -0.08    0.53     0.376
   1 -13   0   64.41    1.65     0.870
  -1  13   0   67.90    1.13     0.870
   2 -13   0  201.46    3.33     0.900
  -2  13   0  199.45    2.97     0.900
   3 -13   0  138.18    2.43     0.898
  -3  13   0  135.84    2.43     0.898
   4 -13   0   -0.04    0.19     0.378
  -4  13   0    0.08    0.23     0.384
   5 -13   0   21.03    1.23     0.943
  -5  13   0   19.22    1.32     0.942
   6 -13   0    0.50    1.39     1.261
  -6  13   0    3.16    1.64     1.262
   7 -13   0    1.61    1.84     1.152
  -7  13   0    0.23    1.84     1.152
   0 -14   0   13.90    1.15     0.958
   0  14   0   13.61    0.58     0.959
   1 -14   0   51.61    1.41     0.884
  -1  14   0   54.79    0.88     0.884
   2 -14   0   15.98    0.65     0.934
  -2  14   0   15.62    0.65     0.935
   3 -14   0    0.42    0.42     1.390
  -3  14   0    0.00    0.56     1.401
   4 -14   0    3.01    0.75     1.254
  -4  14   0    3.46    1.03     1.282
   5 -14   0    1.17    1.17     1.457
  -5  14   0    0.58    1.17     1.458
   6 -14   0    4.43    1.72     1.229
  -6  14   0    3.32    1.47     1.229
   7 -14   0    0.32    1.40     0.638
  -7  14   0   -0.63    1.06     0.626
   1 -15   0    0.00    0.38     1.272
  -1  15   0   -0.39    0.39     1.287
   2 -15   0    2.42    0.48     1.212
  -2  15   0    2.55    0.49     1.213
   3 -15   0  118.40    2.42     0.898
  -3  15   0  116.52    2.15     0.898
   4 -15   0   25.35    1.29     0.922
  -4  15   0   22.48    1.11     0.921
   5 -15   0   15.61    1.25     0.964
  -5  15   0   13.59    1.35     0.964
   6 -15   0    1.00    1.22     1.111
  -6  15   0    0.00    1.56     1.112
   7 -15   0    5.60    2.61     1.244
  -7  15   0    1.74    2.24     1.244
   0 -16   0    4.87    1.02     1.133
   0  16   0    3.40    0.57     1.134
   1 -16   0  127.36    2.78     0.898
  -1  16   0  131.58    1.98     0.898
   2 -16   0  470.14    9.02     0.902
  -2  16   0  465.64    7.94     0.902
   3 -16   0  101.13    2.54     0.875
  -3  16   0  100.83    2.01     0.875
   4 -16   0   52.84    1.85     0.882
  -4  16   0   50.55    1.50     0.882
   5 -16   0    1.49    0.99     1.242
  -5  16   0    1.12    1.12     1.245
   6 -16   0    7.30    1.85     1.089
  -6  16   0    4.90    1.31     1.089
   7 -16   0   12.27    2.15     1.076
  -7  16   0    8.82    2.26     1.075
   1 -17   0    2.27    0.63     1.259
  -1  17   0    2.52    0.38     1.260
   2 -17   0  159.67    3.78     0.900
  -2  17   0  160.85    2.70     0.900
   3 -17   0   45.34    1.50     0.882
  -3  17   0   47.67    1.24     0.883
   4 -17   0    1.07    1.23     1.533
  -4  17   0    1.97    1.06     1.516
   5 -17   0    1.05    1.19     1.319
  -5  17   0   -1.05    1.05     1.318
   6 -17   0   13.14    2.01     1.060
  -6  17   0    9.64    1.80     1.059
   7 -17   0   25.47    2.29     0.954
  -7  17   0   24.63    2.39     0.955
   0 -18   0   14.73    1.61     1.009
   0  18   0   14.73    0.81     1.009
   1 -18   0   44.96    1.32     0.878
  -1  18   0   46.04    0.97     0.879
   2 -18   0    1.12    0.74     1.240
  -2  18   0    0.74    0.50     1.240
   3 -18   0   69.55    2.00     0.869
  -3  18   0   71.84    1.57     0.870
   4 -18   0    6.17    1.08     1.083
  -4  18   0    6.71    0.87     1.082
   5 -18   0    1.74    1.12     1.243
  -5  18   0    2.86    1.12     1.242
   6 -18   0   -0.30    1.78     1.484
  -6  18   0    0.59    2.51     1.477
   7 -18   0    0.13    2.02     1.265
  -7  18   0    3.15    2.90     1.261
   1 -19   0   -0.59    0.59     1.182
  -1  19   0    0.82    0.35     1.174
   2 -19   0   25.85    1.12     0.933
  -2  19   0   25.86    0.84     0.934
   3 -19   0   34.01    1.53     0.902
  -3  19   0   32.68    1.26     0.903
   4 -19   0   29.46    1.47     0.918
  -4  19   0   30.76    1.29     0.918
   5 -19   0    3.86    1.29     1.287
  -5  19   0    4.63    1.67     1.287
   6 -19   0   10.14    1.67     1.046
  -6  19   0   10.25    1.88     1.046
   7 -19   0    8.00    2.25     1.127
  -7  19   0    5.63    2.70     1.126
   0 -20   0   10.11    1.33     1.021
   0  20   0   12.26    0.82     1.022
   1 -20   0   21.46    1.13     0.941
  -1  20   0   24.38    0.75     0.941
   2 -20   0   61.22    1.66     0.875
  -2  20   0   61.04    1.31     0.874
   3 -20   0    9.46    1.16     1.051
  -3  20   0    7.36    0.84     1.052
   4 -20   0    7.85    1.18     1.075
  -4  20   0    9.99    1.29     1.075
   5 -20   0   -0.78    1.12     1.122
  -5  20   0    1.13    1.36     1.131
   6 -20   0    0.64    1.91     1.274
  -6  20   0    0.76    2.03     1.272
   7 -20   0    1.40    2.39     0.822
  -7  20   0    1.65    2.09     0.869
   1 -21   0    3.32    0.80     1.144
  -1  21   0    4.00    0.57     1.144
   2 -21   0    0.00    0.74     1.226
  -2  21   0    0.24    0.48     1.207
   3 -21   0   14.28    1.29     0.992
  -3  21   0   16.36    1.09     0.992
   4 -21   0   12.95    1.19     0.989
  -4  21   0   15.62    1.68     0.988
   5 -21   0   -0.35    0.38     0.350
  -5  21   0    0.28    0.46     0.353
   6 -21   0   31.81    2.29     0.955
  -6  21   0   26.66    2.77     0.956
   7 -21   0   -0.42    2.55     1.062
  -7  21   0    0.00    2.56     1.111
   0 -22   0    6.31    1.52     1.089
   0  22   0    6.76    0.87     1.090
   1 -22   0  151.65    3.32     0.898
  -1  22   0  152.37    2.34     0.898
   2 -22   0   78.22    2.00     0.869
  -2  22   0   80.30    1.48     0.869
   3 -22   0  133.61    4.22     0.898
  -3  22   0  132.00    4.31     0.898
   4 -22   0   -0.69    1.10     1.378
  -4  22   0    0.55    1.51     1.375
   5 -22   0   31.60    1.92     0.913
  -5  22   0   29.97    2.47     0.914
   6 -22   0    0.00    1.73     1.154
  -6  22   0   -1.27    2.20     1.157
   1 -23   0    2.20    0.98     1.223
  -1  23   0    2.08    0.49     1.223
   2 -23   0  171.17    3.78     0.899
  -2  23   0  167.11    2.70     0.899
   3 -23   0   57.67    2.47     0.883
  -3  23   0   53.63    3.00     0.884
   4 -23   0    2.47    1.30     1.299
  -4  23   0    1.17    2.08     1.303
   5 -23   0    1.60    1.89     1.451
  -5  23   0    1.90    2.77     1.459
   6 -23   0   14.58    2.03     0.966
  -6  23   0   15.56    2.61     0.966
   0 -24   0   18.31    1.94     0.969
   0  24   0   15.21    1.16     0.969
   1 -24   0    4.19    1.10     1.103
  -1  24   0    5.97    0.66     1.106
   2 -24   0  155.55    3.41     0.898
  -2  24   0  154.82    3.05     0.898
   3 -24   0    0.28    1.28     1.419
  -3  24   0   -2.43    2.43     1.427
   4 -24   0   -0.27    1.48     1.341
  -4  24   0   -0.67    1.75     1.347
   5 -24   0    3.28    2.14     1.262
  -5  24   0    2.02    2.15     1.264
   6 -24   0    7.54    1.75     1.093
  -6  24   0    7.32    2.40     1.093
   1 -25   0    1.86    0.99     1.241
  -1  25   0    1.61    0.87     1.242
   2 -25   0  124.09    3.78     0.880
  -2  25   0  118.93    2.46     0.880
   3 -25   0    1.68    1.29     1.289
  -3  25   0   -0.26    1.94     1.290
   4 -25   0   33.61    2.36     0.908
  -4  25   0   25.99    2.27     0.909
   5 -25   0   -0.40    0.55     0.396
  -5  25   0    0.55    0.82     0.391
   6 -25   0   11.47    2.27     1.082
  -6  25   0   13.41    2.92     1.081
   0 -26   0    7.47    1.89     1.052
   0  26   0    8.11    1.37     1.053
   1 -26   0  271.17    6.30     0.901
  -1  26   0  268.38    5.04     0.901
   2 -26   0   97.86    3.75     0.872
  -2  26   0  102.58    2.36     0.872
   3 -26   0   15.84    1.93     0.966
  -3  26   0   16.80    1.93     0.966
   4 -26   0   31.76    2.50     0.926
  -4  26   0   29.43    2.31     0.925
   5 -26   0    6.27    1.95     1.081
  -5  26   0    9.94    2.27     1.081
   6 -26   0    0.25    2.53     1.267
  -6  26   0    4.57    2.92     1.269
   1 -27   0   -1.02    1.32     1.464
  -1  27   0   -0.29    1.32     1.461
   2 -27   0   27.83    1.99     0.907
  -2  27   0   26.29    1.27     0.906
   3 -27   0    5.77    1.57     1.049
  -3  27   0    9.34    1.68     1.050
   4 -27   0    0.00    0.23     0.154
  -4  27   0   -0.05    0.29     0.162
   5 -27   0   33.04    2.79     0.931
  -5  27   0   30.44    2.79     0.931
   6 -27   0   -0.26    0.59     0.294
  -6  27   0    0.44    0.70     0.293
   0 -28   0  121.70    4.06     0.883
   0  28   0  129.40    4.76     0.881
   1 -28   0   19.87    1.46     0.916
  -1  28   0   24.91    1.28     0.916
   2 -28   0    9.40    1.80     1.056
  -2  28   0    7.08    1.37     1.057
   3 -28   0    1.56    1.19     0.918
  -3  28   0   -0.36    1.53     0.902
   4 -28   0    5.94    2.59     1.080
  -4  28   0    8.54    2.16     1.081
   5 -28   0    2.77    2.63     1.384
  -5  28   0    2.49    3.18     1.383
   1 -29   0    9.07    1.28     1.068
  -1  29   0   13.78    1.50     1.068
   2 -29   0   11.63    2.14     1.020
  -2  29   0   10.92    1.22     1.021
   3 -29   0    0.45    1.36     0.756
  -3  29   0    0.23    1.28     0.754
   4 -29   0   -0.14    0.74     0.338
  -4  29   0    0.00    0.53     0.331
   5 -29   0    1.11    0.91     0.506
  -5  29   0    1.75    1.13     0.514
   0 -30   0   48.41    2.73     0.880
   0  30   0   55.03    3.08     0.881
   1 -30   0   39.30    2.04     0.887
  -1  30   0   37.70    2.04     0.887
   2 -30   0    0.13    2.00     1.330
  -2  30   0    1.46    1.33     1.326
   3 -30   0   -0.36    0.36     0.172
  -3  30   0    0.06    0.26     0.160
   4 -30   0    4.92    3.45     1.231
  -4  30   0    1.11    2.46     1.231
   5 -30   0    0.79    2.37     0.987
  -5  30   0    0.20    2.07     0.987
   1 -31   0   11.23    1.49     0.993
  -1  31   0   12.42    1.69     0.994
   2 -31   0    0.27    2.05     1.368
  -2  31   0    2.88    1.78     1.372
   3 -31   0   -1.56    2.34     1.303
  -3  31   0    2.08    1.95     1.302
   4 -31   0   -1.17    2.98     1.295
  -4  31   0   -1.68    2.58     1.289
   5 -31   0    0.51    3.16     1.266
  -5  31   0    2.66    3.29     1.266
   0 -32   0   37.11    2.63     0.907
   0  32   0   38.39    3.09     0.908
   1 -32   0   21.07    1.52     0.949
  -1  32   0   23.91    1.99     0.949
   2 -32   0    2.25    1.78     1.186
  -2  32   0    2.25    1.78     1.186
   3 -32   0    0.16    0.29     0.125
  -3  32   0    0.28    0.24     0.121
   4 -32   0   13.42    3.46     1.082
  -4  32   0    6.38    2.60     1.082
   1 -33   0    9.14    2.04     1.075
  -1  33   0    9.46    1.83     1.075
   2 -33   0    7.02    2.50     1.190
  -2  33   0    5.12    1.79     1.191
   3 -33   0   -1.76    2.90     1.035
  -3  33   0   -1.58    2.21     1.051
   4 -33   0   11.01    3.41     1.101
  -4  33   0    7.27    2.53     1.101
   0 -34   0    2.71    2.45     1.291
   0  34   0    1.42    3.10     1.291
   1 -34   0   50.37    2.69     0.896
  -1  34   0   50.89    2.60     0.896
   2 -34   0    0.41    2.72     1.358
  -2  34   0   -0.40    2.15     1.344
   3 -34   0   29.41    3.75     0.937
  -3  34   0   29.90    3.00     0.937
   4 -34   0    4.14    3.51     1.254
  -4  34   0    4.51    3.76     1.253
   1 -35   0    3.16    2.02     1.263
  -1  35   0    1.89    2.02     1.261
   2 -35   0    1.00    1.99     1.107
  -2  35   0    1.45    2.12     1.115
   3 -35   0    6.21    3.70     1.194
  -3  35   0    0.95    2.87     1.194
   0 -36   0    0.41    2.19     1.370
   0  36   0    3.96    4.64     1.366
   1 -36   0    6.72    2.17     1.084
  -1  36   0   11.48    2.27     1.083
   2 -36   0    1.53    2.17     1.275
  -2  36   0    2.04    2.55     1.272
   3 -36   0    2.21    3.19     1.229
  -3  36   0   -0.12    3.19     1.229
   1 -37   0    0.11    2.14     1.126
  -1  37   0    3.05    1.92     1.130
   2 -37   0   -0.06    0.22     0.114
  -2  37   0    0.09    0.26     0.132
   3 -37   0   -0.25    3.49     1.247
  -3  37   0   -0.12    3.86     1.245
   0 -38   0   11.27    3.07     1.095
   0  38   0   10.83    3.28     1.094
   1 -38   0   24.53    2.59     0.958
  -1  38   0   23.19    2.39     0.958
   2 -38   0    3.21    2.21     1.105
  -2  38   0    9.17    2.87     1.105
   1 -39   0    3.02    2.89     1.258
  -1  39   0    4.96    3.30     1.271
  -8  -1   1   -2.13    2.13     1.251
   8   1  -1    0.50    2.00     1.253
  -7  -1   1   29.32    1.80     0.899
   7   1  -1   34.16    1.98     0.899
  -6  -1   1   55.15    2.19     0.875
   6   1  -1   57.32    2.28     0.875
  -5  -1   1   13.11    0.87     0.971
   5   1  -1   14.45    0.87     0.970
  -4  -1   1   61.48    1.32     0.877
   4   1  -1   61.75    1.14     0.877
  -3  -1   1  107.65    1.76     0.882
   3   1  -1  106.96    1.76     0.882
  -2  -1   1  562.99    8.12     0.903
   2   1  -1  567.27    7.31     0.903
  -1  -1   1  109.21    2.04     0.889
   1   1  -1  110.53    1.86     0.887
   0  -1   1   97.58    1.71     0.898
   0   1  -1   98.67    1.71     0.898
   1  -1   1   16.13    0.38     0.960
  -1   1  -1   15.36    0.48     0.960
   2  -1   1   19.95    0.57     0.941
  -2   1  -1   17.89    0.66     0.941
   3  -1   1  181.56    3.24     0.900
  -3   1  -1  180.03    3.24     0.900
   4  -1   1   39.64    1.17     0.897
  -4   1  -1   37.68    1.17     0.897
   5  -1   1   90.62    2.18     0.871
  -5   1  -1   87.74    2.26     0.871
   6  -1   1    1.00    1.25     1.247
  -6   1  -1   -1.12    1.37     1.243
   7  -1   1    9.68    2.00     1.052
  -7   1  -1    6.73    1.47     1.052
  -8  -2   1   -0.21    0.29     0.163
   8   2  -1    0.05    0.22     0.129
  -7  -2   1    0.52    1.56     1.298
   7   2  -1    6.49    1.82     1.297
  -6  -2   1   18.97    1.44     0.958
   6   2  -1   19.72    1.44     0.957
  -5  -2   1    2.25    0.87     1.250
   5   2  -1    2.38    0.75     1.252
  -4  -2   1  227.15    4.24     0.901
   4   2  -1  224.65    3.51     0.901
  -3  -2   1    6.16    0.31     1.026
   3   2  -1    6.16    0.31     1.026
  -2  -2   1 1227.05   20.53     0.904
   2   2  -1 1251.88   16.09     0.904
  -1  -2   1    5.00    0.25     1.250
   1   2  -1    4.14    0.38     1.253
   0  -2   1 1183.48   19.07     0.904
   0   2  -1 1186.24   21.06     0.904
   1  -2   1    0.11    0.11     1.143
  -1   2  -1    0.00    0.23     1.144
   2  -2   1  153.76    2.69     0.898
  -2   2  -1  151.79    3.14     0.898
   3  -2   1  256.86    4.33     0.901
  -3   2  -1  252.72    4.60     0.901
   4  -2   1   21.21    0.84     0.939
  -4   2  -1   21.29    0.94     0.938
   5  -2   1   83.65    2.09     0.870
  -5   2  -1   84.17    2.09     0.870
   6  -2   1   -0.66    1.18     1.315
  -6   2  -1    1.31    1.44     1.311
   7  -2   1    8.92    2.36     1.075
  -7   2  -1   10.10    2.04     1.075
  -8  -3   1    2.59    2.20     1.296
   8   3  -1    3.12    2.21     1.299
  -7  -3   1    3.65    1.88     1.107
   7   3  -1    7.96    1.66     1.105
  -6  -3   1   -0.62    0.62     0.622
   6   3  -1    1.25    0.62     0.624
  -5  -3   1   94.10    2.11     0.879
   5   3  -1   92.61    2.11     0.879
  -4  -3   1  173.93    3.78     0.900
   4   3  -1  174.47    3.15     0.900
  -3  -3   1   36.11    1.07     0.896
   3   3  -1   37.56    0.90     0.896
  -2  -3   1 2102.33   33.74     0.905
   2   3  -1 2102.60   36.36     0.905
  -1  -3   1 1174.68   22.51     0.904
   1   3  -1 1182.50   17.80     0.904
   0  -3   1   80.42    1.14     0.875
   0   3  -1   80.94    1.23     0.875
   1  -3   1   79.96    1.23     0.877
  -1   3  -1   74.69    1.75     0.876
   2  -3   1   38.67    0.88     0.883
  -2   3  -1   37.88    0.97     0.883
   3  -3   1   10.02    0.54     1.089
  -3   3  -1   10.34    0.76     1.088
   4  -3   1   11.53    0.67     0.953
  -4   3  -1   12.59    0.86     0.954
   5  -3   1    0.00    0.42     0.593
  -5   3  -1   -0.06    0.45     0.565
   6  -3   1   -0.14    1.65     1.378
  -6   3  -1    2.06    1.51     1.373
   7  -3   1    3.55    2.93     1.544
  -7   3  -1    0.46    2.13     1.521
  -8  -4   1    4.35    2.61     1.243
   8   4  -1    0.50    2.11     1.240
  -7  -4   1   -1.29    1.29     0.859
   7   4  -1   -0.09    0.95     0.860
  -6  -4   1   56.09    2.11     0.878
   6   4  -1   49.06    2.02     0.878
  -5  -4   1    3.91    0.89     1.118
   5   4  -1    3.69    1.01     1.117
  -4  -4   1   15.81    0.92     1.020
   4   4  -1   15.82    0.61     1.021
  -3  -4   1    1.30    0.58     1.447
   3   4  -1    2.02    0.43     1.445
  -2  -4   1 3744.30   76.89     0.905
   2   4  -1 3820.02  104.10     0.904
  -1  -4   1 1202.69   17.54     0.904
   1   4  -1 1212.50   17.27     0.904
   0  -4   1   35.91    0.71     0.889
   0   4  -1   37.88    0.62     0.889
   1  -4   1    8.20    0.37     1.243
  -1   4  -1    7.33    0.50     1.243
   2  -4   1    7.25    0.31     1.022
  -2   4  -1    7.05    0.51     1.022
   3  -4   1   -0.15    0.58     1.448
  -3   4  -1    0.14    0.72     1.446
   4  -4   1   45.62    1.14     0.879
  -4   4  -1   41.20    1.58     0.879
   5  -4   1   -0.18    0.64     0.915
  -5   4  -1    0.00    0.83     0.925
   6  -4   1   18.34    1.34     0.955
  -6   4  -1   17.28    1.62     0.955
   7  -4   1   -0.12    2.16     1.199
  -7   4  -1    0.36    1.69     1.210
  -8  -5   1    4.52    2.51     1.256
   8   5  -1    6.52    2.01     1.254
  -7  -5   1   14.73    1.96     0.982
   7   5  -1   13.74    1.67     0.981
  -6  -5   1   12.14    1.14     1.037
   6   5  -1   10.57    1.24     1.037
  -5  -5   1   11.06    0.87     0.970
   5   5  -1    9.99    0.97     0.970
  -4  -5   1    3.22    0.56     1.111
   4   5  -1    4.34    0.45     1.113
  -3  -5   1    2.60    0.50     1.240
   3   5  -1    4.09    0.37     1.239
  -2  -5   1 1234.16   19.61     0.904
   2   5  -1 1234.86   18.80     0.904
  -1  -5   1    8.22    0.42     1.041
   1   5  -1    8.74    0.21     1.041
   0  -5   1    0.30    0.20     0.988
   0   5  -1    0.00    0.10     1.010
   1  -5   1  177.81    2.61     0.900
  -1   5  -1  176.28    2.88     0.900
   2  -5   1  100.10    1.59     0.884
  -2   5  -1   95.78    1.94     0.884
   3  -5   1  136.39    2.06     0.896
  -3   5  -1  126.38    2.68     0.895
   4  -5   1    0.95    0.64     1.589
  -4   5  -1    0.63    0.95     1.577
   5  -5   1   19.69    1.04     0.942
  -5   5  -1   18.45    1.41     0.942
   6  -5   1    8.11    1.48     1.230
  -6   5  -1    3.69    1.47     1.229
   7  -5   1   26.73    2.50     0.925
  -7   5  -1   24.61    2.13     0.925
  -8  -6   1   -0.06    1.09     0.643
   8   6  -1   -0.25    1.05     0.615
  -7  -6   1    3.01    1.83     1.307
   7   6  -1    0.79    1.57     1.310
  -6  -6   1    5.38    1.10     1.097
   6   6  -1    4.39    1.10     1.097
  -5  -6   1   15.35    0.94     0.942
   5   6  -1   12.43    1.04     0.942
  -4  -6   1    2.42    0.86     1.427
   4   6  -1    2.42    0.85     1.424
  -3  -6   1   24.02    0.99     0.896
   3   6  -1   25.09    0.81     0.896
  -2  -6   1   50.07    0.88     0.883
   2   6  -1   48.23    0.97     0.883
  -1  -6   1   10.68    0.39     0.971
   1   6  -1   10.99    0.29     0.973
   0  -6   1  564.74    9.93     0.903
   0   6  -1  577.30    8.03     0.902
   1  -6   1   92.57    1.31     0.873
  -1   6  -1   86.97    1.48     0.872
   2  -6   1  228.48    3.51     0.901
  -2   6  -1  221.44    4.15     0.901
   3  -6   1   46.86    0.97     0.884
  -3   6  -1   43.49    1.41     0.884
   4  -6   1    0.31    0.61     1.525
  -4   6  -1   -0.15    1.07     1.530
   5  -6   1    0.00    1.01     1.261
  -5   6  -1   -0.13    1.00     1.253
   6  -6   1    2.29    1.62     1.349
  -6   6  -1    0.40    1.34     1.337
   7  -6   1   -0.41    1.86     1.035
  -7   6  -1   -1.44    1.54     1.030
  -8  -7   1   15.80    2.23     1.013
   8   7  -1   13.17    2.03     1.013
  -7  -7   1   -2.58    2.58     1.521
   7   7  -1   -1.66    1.97     1.512
  -6  -7   1   41.67    1.87     0.892
   6   7  -1   42.13    1.96     0.893
  -5  -7   1   41.92    1.25     0.894
   5   7  -1   37.56    1.52     0.894
  -4  -7   1    3.61    0.75     1.245
   4   7  -1    3.86    0.75     1.247
  -3  -7   1   22.15    0.91     0.911
   3   7  -1   22.60    0.73     0.911
  -2  -7   1    1.43    0.26     1.302
   2   7  -1    1.30    0.39     1.301
  -1  -7   1  602.89    8.75     0.903
   1   7  -1  609.72    7.94     0.903
   0  -7   1  141.24    2.34     0.900
   0   7  -1  140.17    1.89     0.900
   1  -7   1   25.09    0.57     0.951
  -1   7  -1   24.36    0.67     0.951
   2  -7   1  130.61    2.06     0.898
  -2   7  -1  125.05    2.60     0.898
   3  -7   1   63.79    1.22     0.872
  -3   7  -1   62.01    1.57     0.871
   4  -7   1    4.13    0.78     1.292
  -4   7  -1    2.06    0.90     1.290
   5  -7   1   66.14    2.00     0.871
  -5   7  -1   63.49    2.09     0.871
   6  -7   1   21.46    1.72     0.958
  -6   7  -1   16.47    1.53     0.958
   7  -7   1    8.66    2.27     1.082
  -7   7  -1    6.49    1.95     1.082
  -8  -8   1    8.58    3.01     1.159
   8   8  -1    3.72    2.09     1.161
  -7  -8   1    0.09    1.35     0.902
   7   8  -1    0.43    1.12     0.860
  -6  -8   1    4.41    1.02     1.130
   6   8  -1    3.51    1.24     1.131
  -5  -8   1   33.08    1.35     0.901
   5   8  -1   27.22    1.53     0.901
  -4  -8   1  125.01    2.87     0.898
   4   8  -1  122.58    2.96     0.898
  -3  -8   1  238.66    3.87     0.901
   3   8  -1  239.92    3.78     0.901
  -2  -8   1    1.26    0.25     1.264
   2   8  -1    0.63    0.38     1.267
  -1  -8   1    5.08    0.22     1.081
   1   8  -1    5.41    0.22     1.082
   0  -8   1    3.36    0.37     1.246
   0   8  -1    3.12    0.37     1.247
   1  -8   1   16.57    0.58     0.969
  -1   8  -1   16.19    0.68     0.970
   2  -8   1    9.50    0.50     1.000
  -2   8  -1   10.41    0.60     1.001
   3  -8   1    3.64    0.49     1.213
  -3   8  -1    3.88    0.73     1.213
   4  -8   1   67.76    1.57     0.871
  -4   8  -1   64.99    1.92     0.871
   5  -8   1   27.42    1.33     0.949
  -5   8  -1   25.24    1.52     0.949
   6  -8   1   21.18    1.73     0.963
  -6   8  -1   14.73    1.54     0.963
   7  -8   1   -1.78    1.78     1.115
  -7   8  -1    0.56    1.68     1.120
  -8  -9   1   -0.57    1.13     0.567
   8   9  -1    0.65    0.92     0.543
  -7  -9   1    1.11    1.98     1.237
   7   9  -1    1.86    1.74     1.243
  -6  -9   1    2.71    1.23     1.231
   6   9  -1    4.06    1.35     1.231
  -5  -9   1    2.32    0.81     1.158
   5   9  -1    2.32    0.93     1.159
  -4  -9   1   73.86    1.83     0.872
   4   9  -1   72.79    1.92     0.872
  -3  -9   1  150.24    2.97     0.900
   3   9  -1  149.26    2.61     0.900
  -2  -9   1  189.68    3.51     0.900
   2   9  -1  188.25    2.88     0.900
  -1  -9   1   13.67    0.42     1.051
   1   9  -1   13.97    0.31     1.051
   0  -9   1  155.86    2.88     0.899
   0   9  -1  149.92    2.25     0.899
   1  -9   1  560.96    9.12     0.903
  -1   9  -1  551.77    9.12     0.903
   2  -9   1    0.64    0.27     0.913
  -2   9  -1    0.64    0.37     0.916
   3  -9   1    2.49    0.50     1.244
  -3   9  -1    1.00    0.75     1.246
   4  -9   1   15.41    0.86     0.952
  -4   9  -1   13.80    1.05     0.952
   5  -9   1   11.53    1.14     1.038
  -5   9  -1   11.43    1.25     1.039
   6  -9   1    3.23    1.42     1.292
  -6   9  -1    1.94    1.68     1.292
   7  -9   1    6.29    2.71     1.084
  -7   9  -1    4.88    1.74     1.085
  -8 -10   1   -0.16    0.95     0.530
   8  10  -1   -0.21    0.99     0.522
  -7 -10   1    1.46    2.19     1.461
   7  10  -1    1.76    2.06     1.469
  -6 -10   1   17.18    1.47     0.982
   6  10  -1   13.65    1.38     0.982
  -5 -10   1   22.61    1.33     0.950
   5  10  -1   25.94    1.24     0.950
  -4 -10   1  112.84    2.60     0.898
   4  10  -1  116.33    2.69     0.898
  -3 -10   1  258.58    4.33     0.901
   3  10  -1  253.35    4.06     0.901
  -2 -10   1   33.04    0.97     0.884
   2  10  -1   33.13    0.80     0.883
  -1 -10   1    1.43    0.16     1.589
   1  10  -1    1.30    0.16     1.620
   0 -10   1   92.65    1.76     0.878
   0  10  -1   92.87    1.40     0.878
   1 -10   1   63.61    1.31     0.870
  -1  10  -1   61.94    1.31     0.870
   2 -10   1   79.54    1.48     0.871
  -2  10  -1   77.86    1.57     0.871
   3 -10   1   25.05    0.73     0.918
  -3  10  -1   22.22    1.01     0.918
   4 -10   1   12.73    0.80     1.002
  -4  10  -1   12.73    1.00     1.002
   5 -10   1    1.87    0.99     1.244
  -5  10  -1    0.99    1.24     1.242
   6 -10   1    3.37    1.55     1.295
  -6  10  -1    1.94    1.55     1.293
   7 -10   1    3.58    2.93     1.084
  -7  10  -1    6.94    1.84     1.084
  -8 -11   1    3.17    1.92     0.961
   8  11  -1   -0.84    1.58     0.931
  -7 -11   1   -1.14    1.71     1.139
   7  11  -1   -1.49    1.49     1.144
  -6 -11   1    0.75    1.50     1.496
   6  11  -1   -0.45    1.36     1.514
  -5 -11   1   18.92    1.21     0.928
   5  11  -1   18.18    1.21     0.928
  -4 -11   1    8.38    0.79     0.986
   4  11  -1   10.46    0.79     0.987
  -3 -11   1   38.56    1.07     0.893
   3  11  -1   36.31    0.98     0.892
  -2 -11   1    0.61    0.46     1.520
   2  11  -1    0.00    0.31     1.522
  -1 -11   1   23.68    0.63     0.897
   1  11  -1   24.23    0.54     0.897
   0 -11   1    4.40    0.44     1.099
   0  11  -1    3.84    0.33     1.099
   1 -11   1   13.26    0.59     0.975
  -1  11  -1   12.98    0.49     0.976
   2 -11   1  493.44    7.31     0.902
  -2  11  -1  484.54    8.66     0.902
   3 -11   1   88.16    1.66     0.875
  -3  11  -1   83.49    1.66     0.874
   4 -11   1    1.79    0.75     1.496
  -4  11  -1    0.74    1.04     1.484
   5 -11   1    2.26    0.90     1.128
  -5  11  -1    5.07    1.35     1.127
   6 -11   1    2.49    1.87     1.244
  -6  11  -1    3.23    1.49     1.241
   7 -11   1   -2.20    3.22     1.466
  -7  11  -1    3.92    2.61     1.451
  -8 -12   1    0.42    0.36     0.156
   8  12  -1    0.06    0.30     0.149
  -7 -12   1    0.00    0.41     0.342
   7  12  -1   -0.30    0.56     0.373
  -6 -12   1   -0.65    0.89     0.812
   6  12  -1   -0.41    0.90     0.815
  -5 -12   1    3.16    0.98     1.091
   5  12  -1    3.27    0.98     1.091
  -4 -12   1    6.16    0.77     1.100
   4  12  -1    6.15    0.88     1.099
  -3 -12   1   23.08    0.67     0.954
   3  12  -1   21.45    0.76     0.953
  -2 -12   1   92.68    2.10     0.874
   2  12  -1   95.05    1.40     0.874
  -1 -12   1   41.50    0.98     0.887
   1  12  -1   42.95    0.71     0.887
   0 -12   1  227.49    4.32     0.901
   0  12  -1  236.93    2.88     0.901
   1 -12   1   33.61    0.97     0.882
  -1  12  -1   35.90    0.88     0.882
   2 -12   1   89.70    1.57     0.873
  -2  12  -1   88.05    1.92     0.872
   3 -12   1   27.73    0.82     0.906
  -3  12  -1   25.92    1.00     0.906
   4 -12   1    4.81    0.72     1.202
  -4  12  -1    1.68    0.96     1.199
   5 -12   1   21.58    1.34     0.955
  -5  12  -1   17.95    1.43     0.955
   6 -12   1   16.84    1.84     1.021
  -6  12  -1   12.26    1.74     1.022
   7 -12   1    2.30    3.39     1.356
  -7  12  -1    2.84    2.43     1.351
  -8 -13   1    1.64    2.58     1.174
   8  13  -1    2.47    2.71     1.177
  -7 -13   1   21.94    1.92     0.962
   7  13  -1   23.48    2.02     0.963
  -6 -13   1   17.25    1.65     0.969
   6  13  -1   14.14    1.36     0.969
  -5 -13   1   10.97    1.23     1.026
   5  13  -1   11.28    1.13     1.025
  -4 -13   1   66.21    1.91     0.869
   4  13  -1   63.60    1.82     0.869
  -3 -13   1   37.41    0.88     0.884
   3  13  -1   35.13    1.06     0.885
  -2 -13   1   43.43    1.33     0.885
   2  13  -1   45.55    0.88     0.884
  -1 -13   1   62.41    1.56     0.869
   1  13  -1   65.20    1.04     0.869
   0 -13   1  425.35    7.94     0.902
   0  13  -1  431.36    6.04     0.902
   1 -13   1   85.69    1.82     0.869
  -1  13  -1   83.44    1.56     0.869
   2 -13   1   74.65    1.49     0.874
  -2  13  -1   70.22    1.66     0.875
   3 -13   1    4.42    0.61     1.229
  -3  13  -1    5.90    0.74     1.230
   4 -13   1   37.95    1.25     0.893
  -4  13  -1   36.24    1.34     0.893
   5 -13   1    1.12    0.99     1.243
  -5  13  -1    2.24    1.24     1.243
   6 -13   1    0.26    1.78     1.272
  -6  13  -1    0.51    1.53     1.278
   7 -13   1   -3.24    3.24     1.352
  -7  13  -1    3.38    2.30     1.353
  -8 -14   1   -3.68    3.68     1.267
   8  14  -1    0.51    2.70     1.287
  -7 -14   1    2.75    1.75     1.249
   7  14  -1    3.50    1.88     1.251
  -6 -14   1    3.05    1.52     1.270
   6  14  -1    4.97    1.91     1.275
  -5 -14   1    2.90    0.89     1.117
   5  14  -1    4.01    1.12     1.115
  -4 -14   1    0.00    0.99     1.235
   4  14  -1    0.86    0.74     1.234
  -3 -14   1    1.31    0.52     1.311
   3  14  -1    1.96    0.52     1.308
  -2 -14   1   24.43    0.99     0.898
   2  14  -1   27.86    0.63     0.899
  -1 -14   1   13.43    0.71     1.018
   1  14  -1   14.86    0.51     1.018
   0 -14   1  681.62   14.28     0.904
   0  14  -1  708.65    9.31     0.903
   1 -14   1    3.68    0.54     1.084
  -1  14  -1    4.55    0.43     1.084
   2 -14   1    2.26    0.60     1.191
  -2  14  -1    1.91    0.60     1.191
   3 -14   1   46.94    1.15     0.882
  -3  14  -1   42.54    1.32     0.883
   4 -14   1    1.82    0.78     1.302
  -4  14  -1    2.47    0.91     1.302
   5 -14   1  139.41    3.74     0.891
  -5  14  -1  138.17    3.03     0.890
   6 -14   1    3.23    1.61     1.152
  -6  14  -1    1.62    1.50     1.154
   7 -14   1    7.25    2.27     1.133
  -7  14  -1    3.74    2.27     1.133
  -7 -15   1    5.36    1.63     1.165
   7  15  -1    6.40    2.09     1.163
  -6 -15   1    1.38    1.38     1.250
   6  15  -1    1.25    1.62     1.250
  -5 -15   1   57.74    2.10     0.874
   5  15  -1   60.73    2.01     0.874
  -4 -15   1   25.21    1.26     0.901
   4  15  -1   27.38    1.26     0.901
  -3 -15   1    4.86    0.86     1.081
   3  15  -1    5.62    0.54     1.081
  -2 -15   1   44.65    1.68     0.884
   2  15  -1   48.61    0.97     0.884
  -1 -15   1    3.73    0.56     1.130
   1  15  -1    4.75    0.34     1.132
   0 -15   1   68.65    1.83     0.871
   0  15  -1   71.53    1.13     0.871
   1 -15   1   59.84    1.39     0.870
  -1  15  -1   62.79    1.13     0.870
   2 -15   1   19.85    0.86     0.954
  -2  15  -1   19.28    0.95     0.955
   3 -15   1    5.61    0.72     1.194
  -3  15  -1    3.59    0.84     1.195
   4 -15   1    0.09    0.55     0.909
  -4  15  -1    0.18    0.63     0.903
   5 -15   1    3.26    1.35     1.125
  -5  15  -1    1.35    1.01     1.125
   6 -15   1   17.36    2.51     0.965
  -6  15  -1   12.64    1.45     0.965
   7 -15   1    5.73    2.87     1.303
  -7  15  -1   -1.82    1.82     1.303
  -7 -16   1    1.45    1.26     0.967
   7  16  -1    0.28    1.80     0.945
  -6 -16   1    0.00    1.35     1.129
   6  16  -1   -0.45    1.34     1.120
  -5 -16   1    5.56    1.09     1.091
   5  16  -1    5.23    1.09     1.090
  -4 -16   1   18.30    1.26     0.968
   4  16  -1   15.96    0.97     0.967
  -3 -16   1   15.74    1.08     0.984
   3  16  -1   15.63    0.69     0.983
  -2 -16   1   30.70    1.53     0.898
   2  16  -1   31.79    0.72     0.898
  -1 -16   1  113.77    2.60     0.898
   1  16  -1  118.79    1.71     0.898
   0 -16   1    6.03    0.63     1.058
   0  16  -1    6.78    0.42     1.059
   1 -16   1   13.60    0.77     0.958
  -1  16  -1   14.27    0.67     0.957
   2 -16   1    9.70    0.71     1.021
  -2  16  -1   10.01    0.82     1.021
   3 -16   1    1.66    0.64     1.280
  -3  16  -1    2.31    0.90     1.283
   4 -16   1   38.78    1.59     0.886
  -4  16  -1   34.56    1.33     0.886
   5 -16   1    4.44    1.30     1.082
  -5  16  -1    3.79    1.08     1.082
   6 -16   1   19.78    2.41     0.965
  -6  16  -1   12.06    1.54     0.964
   7 -16   1   -0.35    1.29     0.585
  -7  16  -1   -0.72    0.90     0.597
  -7 -17   1    5.36    1.91     1.192
   7  17  -1    9.05    2.62     1.191
  -6 -17   1   -0.83    0.90     0.694
   6  17  -1   -0.64    0.93     0.713
  -5 -17   1   11.59    1.24     1.034
   5  17  -1   12.00    1.34     1.034
  -4 -17   1    2.12    1.12     1.250
   4  17  -1    0.25    1.00     1.248
  -3 -17   1    1.55    0.85     1.408
   3  17  -1    0.56    0.56     1.403
  -2 -17   1   48.71    1.59     0.882
   2  17  -1   51.09    1.06     0.882
  -1 -17   1   36.91    1.15     0.885
   1  17  -1   39.92    0.80     0.885
   0 -17   1   58.78    1.65     0.870
   0  17  -1   60.41    1.04     0.869
   1 -17   1  157.52    3.15     0.899
  -1  17  -1  166.76    2.97     0.899
   2 -17   1   64.40    1.66     0.874
  -2  17  -1   59.86    1.57     0.874
   3 -17   1    5.96    0.76     1.083
  -3  17  -1    5.41    0.86     1.082
   4 -17   1   14.76    1.16     0.964
  -4  17  -1   15.16    1.06     0.966
   5 -17   1    8.42    1.42     1.186
  -5  17  -1    3.68    1.31     1.188
   6 -17   1    1.72    2.21     1.231
  -6  17  -1    1.96    1.35     1.227
   7 -17   1    2.72    3.37     1.298
  -7  17  -1    3.11    2.20     1.294
  -7 -18   1    2.03    1.58     1.125
   7  18  -1    8.10    2.48     1.125
  -6 -18   1   -2.07    2.07     1.477
   6  18  -1    0.73    2.04     1.454
  -5 -18   1   -1.07    1.20     1.333
   5  18  -1    0.67    1.47     1.334
  -4 -18   1   55.70    2.02     0.880
   4  18  -1   55.67    1.67     0.880
  -3 -18   1    3.12    0.92     1.155
   3  18  -1    3.23    0.69     1.153
  -2 -18   1    7.89    0.84     1.052
   2  18  -1    9.26    0.53     1.052
  -1 -18   1   10.68    0.84     1.047
   1  18  -1   10.36    0.42     1.047
   0 -18   1   37.00    1.38     0.921
   0  18  -1   40.05    0.83     0.921
   1 -18   1   25.65    0.99     0.897
  -1  18  -1   25.73    0.81     0.897
   2 -18   1   69.09    1.65     0.870
  -2  18  -1   70.29    1.65     0.870
   3 -18   1    5.79    0.78     1.114
  -3  18  -1    3.45    0.89     1.113
   4 -18   1   13.98    1.11     1.006
  -4  18  -1   13.97    1.11     1.005
   5 -18   1   -0.33    1.08     0.835
  -5  18  -1    0.17    0.84     0.841
   6 -18   1   16.07    2.34     0.974
  -6  18  -1   15.10    1.46     0.974
   7 -18   1   13.45    3.04     1.085
  -7  18  -1    8.46    2.49     1.084
  -7 -19   1   17.70    2.22     1.011
   7  19  -1   13.46    2.63     1.012
  -6 -19   1   21.11    1.72     0.955
   6  19  -1   21.97    2.39     0.955
  -5 -19   1    1.47    1.23     1.227
   5  19  -1    3.19    1.47     1.226
  -4 -19   1   13.28    1.29     0.991
   4  19  -1   11.90    0.99     0.992
  -3 -19   1  194.37    4.59     0.900
   3  19  -1  188.40    3.60     0.900
  -2 -19   1   49.58    1.50     0.882
   2  19  -1   48.17    0.97     0.882
  -1 -19   1   31.93    1.16     0.895
   1  19  -1   35.34    0.81     0.895
   0 -19   1   53.03    1.67     0.878
   0  19  -1   57.42    1.14     0.878
   1 -19   1  226.42    4.68     0.900
  -1  19  -1  224.16    3.42     0.900
   2 -19   1    6.19    0.87     1.086
  -2  19  -1    6.73    0.76     1.086
   3 -19   1   25.33    1.19     0.918
  -3  19  -1   22.76    1.19     0.918
   4 -19   1   -0.10    0.22     0.249
  -4  19  -1   -0.07    0.19     0.237
   5 -19   1    1.02    0.94     0.852
  -5  19  -1   -0.25    0.74     0.824
   6 -19   1    0.43    1.74     1.086
  -6  19  -1    1.40    1.51     1.076
  -7 -20   1    2.40    2.14     1.261
   7  20  -1    0.76    2.77     1.260
  -6 -20   1    2.18    1.49     1.146
   6  20  -1    3.78    2.17     1.144
  -5 -20   1    0.39    1.29     1.286
   5  20  -1   -1.82    1.82     1.302
  -4 -20   1  128.03    3.59     0.898
   4  20  -1  130.54    3.23     0.898
  -3 -20   1   35.60    2.14     0.892
   3  20  -1   35.61    1.25     0.893
  -2 -20   1   61.84    1.84     0.876
   2  20  -1   64.70    1.49     0.877
  -1 -20   1    8.07    0.94     1.048
   1  20  -1   10.48    0.52     1.048
   0 -20   1   17.61    1.01     0.922
   0  20  -1   17.88    0.64     0.922
   1 -20   1  133.71    3.05     0.898
  -1  20  -1  132.17    2.07     0.898
   2 -20   1   95.35    2.35     0.871
  -2  20  -1   95.09    1.83     0.871
   3 -20   1   55.58    1.59     0.885
  -3  20  -1   46.32    1.59     0.886
   4 -20   1    8.92    1.16     1.050
  -4  20  -1    9.97    1.16     1.050
   5 -20   1    0.26    1.57     1.312
  -5  20  -1    1.31    1.31     1.313
   6 -20   1    1.48    1.85     1.230
  -6  20  -1    1.72    2.34     1.231
  -7 -21   1    0.25    2.26     1.254
   7  21  -1    2.64    3.40     1.260
  -6 -21   1    6.51    1.83     1.018
   6  21  -1   10.69    2.14     1.018
  -5 -21   1    1.09    1.46     1.215
   5  21  -1    0.00    1.71     1.224
  -4 -21   1   25.02    1.66     0.920
   4  21  -1   23.39    1.47     0.921
  -3 -21   1   44.43    1.94     0.883
   3  21  -1   43.37    1.68     0.883
  -2 -21   1   -0.17    0.24     0.348
   2  21  -1    0.11    0.26     0.366
  -1 -21   1   24.79    1.46     0.912
   1  21  -1   26.72    0.82     0.912
   0 -21   1    0.00    0.77     1.277
   0  21  -1    0.00    0.63     1.265
   1 -21   1    1.63    0.88     1.255
  -1  21  -1    2.76    0.63     1.254
   2 -21   1   20.38    1.01     0.918
  -2  21  -1   20.84    0.92     0.918
   3 -21   1    0.04    0.29     0.368
  -3  21  -1    0.29    0.29     0.363
   4 -21   1   -0.14    1.49     1.353
  -4  21  -1   -0.54    1.08     1.352
   5 -21   1    3.18    2.04     1.136
  -5  21  -1    1.48    1.14     1.139
   6 -21   1    2.62    2.18     1.092
  -6  21  -1    6.55    2.18     1.091
  -7 -22   1   -0.14    0.64     0.353
   7  22  -1   -0.66    0.87     0.346
  -6 -22   1   -0.25    1.76     1.257
   6  22  -1    0.00    2.51     1.256
  -5 -22   1   -0.22    0.24     0.172
   5  22  -1   -0.15    0.26     0.162
  -4 -22   1  142.94    4.04     0.898
   4  22  -1  142.40    3.50     0.898
  -3 -22   1   22.77    1.67     0.926
   3  22  -1   21.76    1.30     0.926
  -2 -22   1   -0.16    0.22     0.320
   2  22  -1   -0.11    0.26     0.371
  -1 -22   1    7.12    1.08     1.080
   1  22  -1    7.56    0.86     1.080
   0 -22   1   12.68    1.44     0.960
   0  22  -1   18.15    0.77     0.960
   1 -22   1   21.02    1.24     0.951
  -1  22  -1   22.53    0.95     0.951
   2 -22   1    1.22    0.95     1.355
  -2  22  -1    1.76    0.81     1.350
   3 -22   1    9.29    1.40     1.080
  -3  22  -1    7.56    1.08     1.079
   4 -22   1    0.27    1.48     1.347
  -4  22  -1   -1.22    1.22     1.358
   5 -22   1    0.73    1.71     1.220
  -5  22  -1   -1.10    1.84     1.226
   6 -22   1    0.00    1.99     1.243
  -6  22  -1   -0.37    2.73     1.241
  -7 -23   1    0.42    0.63     0.351
   7  23  -1   -0.94    0.94     0.362
  -6 -23   1   32.89    1.96     0.934
   6  23  -1   32.68    2.99     0.934
  -5 -23   1    2.63    1.68     1.197
   5  23  -1    3.95    2.15     1.196
  -4 -23   1   26.29    2.50     0.894
   4  23  -1   30.14    1.61     0.894
  -3 -23   1  115.34    3.77     0.878
   3  23  -1  108.15    2.72     0.877
  -2 -23   1    0.00    0.41     0.514
   2  23  -1   -0.31    0.31     0.512
  -1 -23   1   78.33    2.61     0.870
   1  23  -1   81.46    1.91     0.870
   0 -23   1   -0.53    0.85     1.067
   0  23  -1   -0.43    0.43     1.077
   1 -23   1   91.85    2.71     0.873
  -1  23  -1   93.76    1.83     0.873
   2 -23   1    2.21    1.17     1.302
  -2  23  -1    2.73    0.91     1.302
   3 -23   1   15.99    1.61     1.006
  -3  23  -1   13.68    1.21     1.006
   4 -23   1   15.59    1.48     0.987
  -4  23  -1   14.32    1.38     0.988
   5 -23   1    0.56    2.08     1.388
  -5  23  -1    0.83    2.22     1.389
   6 -23   1    1.75    2.25     1.252
  -6  23  -1    1.63    2.76     1.253
  -6 -24   1   -1.70    1.70     1.131
   6  24  -1    1.80    2.59     1.125
  -5 -24   1   13.57    2.06     0.983
   5  24  -1   13.28    2.16     0.984
  -4 -24   1   27.56    2.82     0.910
   4  24  -1   26.65    1.64     0.910
  -3 -24   1   97.92    3.57     0.870
   3  24  -1   89.85    2.53     0.871
  -2 -24   1    7.41    1.09     1.090
   2  24  -1    8.93    1.09     1.089
  -1 -24   1   78.68    2.71     0.873
   1  24  -1   78.16    1.83     0.873
   0 -24   1   -0.23    0.79     1.133
   0  24  -1   -0.11    0.78     1.113
   1 -24   1   53.26    2.11     0.878
  -1  24  -1   54.91    1.40     0.877
   2 -24   1   22.08    1.48     0.928
  -2  24  -1   24.32    1.21     0.928
   3 -24   1   35.35    2.17     0.904
  -3  24  -1   33.01    1.45     0.904
   4 -24   1   20.37    1.71     1.008
  -4  24  -1   14.43    1.71     1.009
   5 -24   1    4.27    2.56     1.220
  -5  24  -1    3.91    2.32     1.221
   6 -24   1   21.72    2.37     0.948
  -6  24  -1   29.91    3.13     0.949
  -6 -25   1    7.86    2.44     1.107
   6  25  -1    7.98    2.55     1.108
  -5 -25   1   22.27    2.51     0.928
   5  25  -1   23.79    2.23     0.929
  -4 -25   1    2.39    2.14     1.257
   4  25  -1    0.00    1.63     1.256
  -3 -25   1    0.56    1.53     1.391
   3  25  -1    1.94    1.39     1.389
  -2 -25   1  121.35    3.60     0.878
   2  25  -1  127.64    2.46     0.878
  -1 -25   1    1.25    1.25     1.247
   1  25  -1    1.12    0.87     1.248
   0 -25   1    2.31    0.92     1.155
   0  25  -1    3.47    0.81     1.156
   1 -25   1    6.12    1.09     1.092
  -1  25  -1    5.90    0.87     1.092
   2 -25   1    5.64    2.21     1.225
  -2  25  -1    2.57    0.98     1.223
   3 -25   1    0.71    0.53     0.376
  -3  25  -1   -0.11    0.36     0.359
   4 -25   1   -0.31    0.43     0.309
  -4  25  -1   -0.50    0.50     0.263
   5 -25   1    0.68    2.46     1.367
  -5  25  -1    3.01    2.46     1.368
   6 -25   1   -1.03    2.63     1.144
  -6  25  -1    2.98    3.55     1.144
  -6 -26   1    5.27    2.51     1.254
   6  26  -1    0.63    3.02     1.259
  -5 -26   1   11.50    1.82     1.009
   5  26  -1   14.92    2.62     1.008
  -4 -26   1    4.51    1.92     1.128
   4  26  -1    3.28    1.47     1.130
  -3 -26   1    8.37    1.43     1.020
   3  26  -1    9.39    1.12     1.021
  -2 -26   1   65.43    2.36     0.876
   2  26  -1   66.02    1.66     0.876
  -1 -26   1    6.03    1.11     1.004
   1  26  -1    8.54    0.90     1.004
   0 -26   1   34.52    1.61     0.894
   0  26  -1   34.97    1.25     0.894
   1 -26   1   10.21    1.42     1.011
  -1  26  -1   14.65    1.01     1.010
   2 -26   1   39.63    2.52     0.899
  -2  26  -1   39.20    1.35     0.899
   3 -26   1    2.41    1.77     1.267
  -3  26  -1    2.29    2.16     1.271
   4 -26   1    1.61    2.22     1.236
  -4  26  -1   -0.25    2.71     1.233
   5 -26   1    7.62    2.18     1.089
  -5  26  -1    6.75    2.83     1.088
  -6 -27   1    0.14    1.25     0.694
   6  27  -1    1.65    1.58     0.686
  -5 -27   1   14.01    2.30     1.095
   5  27  -1    4.82    1.97     1.094
  -4 -27   1    3.64    2.21     1.300
   4  27  -1    0.91    1.95     1.299
  -3 -27   1   36.34    2.16     0.902
   3  27  -1   33.25    1.62     0.901
  -2 -27   1   -0.01    0.12     0.133
   2  27  -1   -0.10    0.11     0.124
  -1 -27   1    0.79    1.19     1.317
   1  27  -1    1.45    1.05     1.318
   0 -27   1   68.11    2.19     0.874
   0  27  -1   67.89    1.66     0.875
   1 -27   1   -0.47    0.94     1.178
  -1  27  -1   -0.35    0.93     1.160
   2 -27   1    2.31    2.31     1.099
  -2  27  -1    7.35    1.32     1.098
   3 -27   1    1.23    2.21     1.229
  -3  27  -1   -1.72    1.97     1.231
   4 -27   1   29.56    2.75     0.918
  -4  27  -1   27.35    2.57     0.918
   5 -27   1    1.49    0.69     0.347
  -5  27  -1   -0.28    0.76     0.345
  -6 -28   1    0.48    0.72     0.343
   6  28  -1   -0.61    1.08     0.360
  -5 -28   1   -0.30    0.59     0.330
   5  28  -1    0.66    0.69     0.312
  -4 -28   1    0.47    2.34     1.168
   4  28  -1    1.29    1.41     1.174
  -3 -28   1    7.97    1.42     1.092
   3  28  -1    8.53    1.31     1.094
  -2 -28   1    2.52    1.51     1.259
   2  28  -1    2.27    1.01     1.258
  -1 -28   1   17.95    1.43     0.955
   1  28  -1   17.94    1.14     0.954
   0 -28   1  124.80    3.43     0.880
   0  28  -1  120.41    2.73     0.880
   1 -28   1    3.14    1.12     1.120
  -1  28  -1    4.27    1.12     1.124
   2 -28   1    0.65    1.30     1.086
  -2  28  -1    0.22    1.41     1.083
   3 -28   1   -1.74    2.21     1.161
  -3  28  -1    0.92    2.19     1.154
   4 -28   1   10.39    2.43     1.105
  -4  28  -1    8.63    2.32     1.106
   5 -28   1   -3.30    3.43     1.321
  -5  28  -1   -0.13    3.19     1.328
  -5 -29   1    5.82    2.09     1.098
   5  29  -1    7.03    2.42     1.099
  -4 -29   1    3.57    2.12     1.117
   4  29  -1    5.71    1.45     1.119
  -3 -29   1   36.70    2.60     0.897
   3  29  -1   37.17    1.62     0.898
  -2 -29   1   10.86    1.63     1.086
   2  29  -1    8.36    1.20     1.086
  -1 -29   1   12.39    1.27     0.976
   1  29  -1   15.02    1.37     0.975
   0 -29   1  201.43    5.03     0.898
   0  29  -1  194.51    4.22     0.898
   1 -29   1    0.63    1.26     1.259
  -1  29  -1    2.64    1.89     1.257
   2 -29   1   30.76    2.36     0.907
  -2  29  -1   30.39    2.18     0.907
   3 -29   1   -0.76    2.54     1.271
  -3  29  -1    1.52    2.79     1.270
   4 -29   1   15.01    2.40     1.001
  -4  29  -1   15.11    2.60     1.001
   5 -29   1    3.23    2.34     1.115
  -5  29  -1    2.23    2.56     1.115
  -5 -30   1   -0.62    2.35     1.235
   5  30  -1    2.10    2.96     1.234
  -4 -30   1   -0.12    2.33     1.225
   4  30  -1    1.96    1.47     1.225
  -3 -30   1    2.14    1.80     1.128
   3  30  -1    4.29    1.13     1.130
  -2 -30   1   18.93    1.75     0.971
   2  30  -1   18.44    1.84     0.971
  -1 -30   1   25.12    1.71     0.952
   1  30  -1   22.65    1.52     0.952
   0 -30   1    0.00    1.25     1.136
   0  30  -1    2.31    1.27     1.154
   1 -30   1   -0.10    0.57     0.516
  -1  30  -1   -0.10    0.62     0.517
   2 -30   1    4.94    2.12     1.411
  -2  30  -1    0.28    1.82     1.401
   3 -30   1    8.79    2.86     1.059
  -3  30  -1   10.07    2.97     1.060
   4 -30   1    5.20    2.37     1.130
  -4  30  -1    9.48    2.82     1.128
   5 -30   1    5.14    3.20     1.141
  -5  30  -1    5.83    3.31     1.143
  -5 -31   1    2.15    3.16     1.263
   5  31  -1    2.90    2.77     1.261
  -4 -31   1    3.63    2.31     1.099
   4  31  -1    8.01    2.30     1.098
  -3 -31   1    1.40    2.41     1.268
   3  31  -1    4.04    1.77     1.264
  -2 -31   1   19.95    1.83     0.964
   2  31  -1   14.37    1.45     0.965
  -1 -31   1    2.83    1.67     1.286
   1  31  -1    2.06    1.42     1.286
   0 -31   1    4.46    1.49     1.144
   0  31  -1    4.24    1.83     1.145
   1 -31   1    9.76    1.48     0.986
  -1  31  -1   12.03    1.68     0.986
   2 -31   1    0.09    0.21     0.130
  -2  31  -1   -0.07    0.21     0.121
   3 -31   1   10.04    3.11     1.035
  -3  31  -1   13.98    3.21     1.035
   4 -31   1    0.00    1.84     0.918
  -4  31  -1   -1.19    1.83     0.914
  -5 -32   1    7.14    2.86     1.298
   5  32  -1    5.32    3.24     1.298
  -4 -32   1    4.17    2.87     1.436
   4  32  -1    3.99    2.42     1.425
  -3 -32   1   18.63    2.39     0.956
   3  32  -1   19.51    1.82     0.956
  -2 -32   1   -0.58    2.16     1.441
   2  32  -1   -1.45    1.88     1.447
  -1 -32   1   82.77    3.05     0.870
   1  32  -1   82.49    3.13     0.870
   0 -32   1    4.16    1.42     1.093
   0  32  -1    4.37    1.53     1.092
   1 -32   1   21.22    1.82     0.960
  -1  32  -1   26.60    2.30     0.960
   2 -32   1    5.06    2.20     1.099
  -2  32  -1    4.06    2.52     1.097
   3 -32   1   14.51    3.57     1.083
  -3  32  -1    9.95    3.14     1.082
   4 -32   1    3.70    2.83     1.232
  -4  32  -1    4.44    2.71     1.233
  -4 -33   1    0.12    2.22     1.168
   4  33  -1    1.87    2.10     1.169
  -3 -33   1    4.06    2.98     1.355
   3  33  -1    0.00    1.91     1.362
  -2 -33   1    9.71    2.07     1.091
   2  33  -1    3.93    1.53     1.091
  -1 -33   1    5.37    1.72     1.074
   1  33  -1   10.74    1.72     1.074
   0 -33   1    0.09    1.19     0.912
   0  33  -1   -0.09    1.20     0.927
   1 -33   1    4.97    2.73     1.241
  -1  33  -1    1.86    1.86     1.241
   2 -33   1   15.17    2.09     0.998
  -2  33  -1   20.40    3.20     1.000
   3 -33   1    6.57    3.48     1.288
  -3  33  -1    3.35    2.96     1.288
   4 -33   1    7.32    3.28     1.092
  -4  33  -1   11.58    3.28     1.093
  -4 -34   1    0.12    0.33     0.145
   4  34  -1    0.26    0.26     0.131
  -3 -34   1   -0.70    1.08     0.635
   3  34  -1    0.00    0.82     0.633
  -2 -34   1   -1.40    1.91     1.270
   2  34  -1   -0.63    1.90     1.270
  -1 -34   1   19.01    2.02     0.960
   1  34  -1   21.03    1.92     0.960
   0 -34   1    3.67    1.84     1.312
   0  34  -1    2.89    2.50     1.315
   1 -34   1    0.56    2.11     1.110
  -1  34  -1   -0.44    1.75     1.093
   2 -34   1    1.31    1.90     1.191
  -2  34  -1   -0.84    2.51     1.194
   3 -34   1    4.64    3.17     1.132
  -3  34  -1    4.29    2.71     1.128
  -4 -35   1    4.28    3.24     1.156
   4  35  -1    6.02    2.55     1.157
  -3 -35   1   10.87    2.91     1.076
   3  35  -1   15.81    3.66     1.075
  -2 -35   1    1.04    1.27     0.746
   2  35  -1   -0.16    1.47     0.775
  -1 -35   1   43.25    2.69     0.895
   1  35  -1   46.41    2.69     0.896
   0 -35   1    2.53    2.03     1.267
   0  35  -1    2.92    2.15     1.267
   1 -35   1    3.59    2.55     1.158
  -1  35  -1    6.15    1.97     1.160
   2 -35   1   -0.57    2.86     1.430
  -2  35  -1    6.57    4.14     1.428
   3 -35   1    0.81    1.57     0.542
  -3  35  -1    0.63    1.56     0.576
  -3 -36   1    9.22    3.07     1.025
   3  36  -1   17.85    2.56     1.026
  -2 -36   1   -0.81    2.33     1.164
   2  36  -1   -0.94    2.35     1.173
  -1 -36   1   11.05    2.19     1.094
   1  36  -1   11.37    2.19     1.093
   0 -36   1   18.78    2.06     0.983
   0  36  -1   21.33    2.16     0.983
   1 -36   1   23.47    3.17     0.990
  -1  36  -1   21.89    3.67     0.990
   2 -36   1    7.09    2.29     1.091
  -2  36  -1    7.43    2.95     1.092
   3 -36   1    8.07    5.09     1.242
  -3  36  -1    8.33    4.35     1.243
  -3 -37   1    8.76    3.06     1.094
   3  37  -1    8.86    2.74     1.094
  -2 -37   1   17.05    2.58     1.034
   2  37  -1   13.54    2.27     1.034
  -1 -37   1    0.39    1.55     0.775
   1  37  -1   -1.13    1.43     0.754
   0 -37   1   -1.77    2.31     1.358
   0  37  -1    5.15    2.58     1.355
   1 -37   1    3.33    2.68     1.073
  -1  37  -1    1.47    2.62     1.047
   2 -37   1    0.10    0.98     0.490
  -2  37  -1    0.88    1.51     0.487
  -2 -38   1   23.39    2.75     0.983
   2  38  -1   21.92    2.46     0.983
  -1 -38   1    0.80    3.18     1.591
   1  38  -1   -0.97    3.38     1.609
   0 -38   1   -1.15    2.04     1.276
   0  38  -1   -0.26    2.68     1.277
   1 -38   1    0.14    4.14     1.382
  -1  38  -1   -2.33    4.53     1.371
  -1 -39   1   14.73    2.71     1.083
   1  39  -1    9.97    2.49     1.083
   0 -39   1   -1.35    1.74     0.968
   0  39  -1   -1.26    2.23     0.971
  -8   0   2   23.32    2.14     0.929
  -7   0   2    7.84    1.63     1.088
  -6   0   2    3.24    1.43     1.297
  -5   0   2    6.23    0.81     1.153
  -4   0   2   36.08    0.97     0.882
  -3   0   2  504.11    6.95     0.903
  -2   0   2   32.83    0.81     0.902
  -1   0   2  343.61    5.23     0.901
   0   0   2  369.70    6.31     0.902
   1   0   2  374.03    6.49     0.902
   2   0   2    3.49    0.52     1.294
   3   0   2  130.15    2.69     0.898
   4   0   2    0.20    0.60     1.005
   5   0   2  115.94    2.90     0.878
   6   0   2   20.17    2.10     0.956
   7   0   2   14.71    3.81     1.029
  -8  -1   2    2.75    2.47     1.373
   8   1  -2    1.91    2.32     1.365
  -7  -1   2    2.30    2.00     1.535
   7   1  -2    3.09    2.01     1.545
  -6  -1   2   12.16    1.41     1.005
   6   1  -2   13.27    1.31     1.005
  -5  -1   2   38.34    1.16     0.892
   5   1  -2   38.89    1.25     0.892
  -4  -1   2   51.94    1.23     0.877
   4   1  -2   53.51    1.23     0.877
  -3  -1   2    7.86    0.55     1.091
   3   1  -2    8.17    0.44     1.089
  -2  -1   2    1.71    0.39     1.318
   2   1  -2    1.19    0.40     1.322
  -1  -1   2    0.75    0.25     1.250
   1   1  -2    1.00    0.25     1.250
   0  -1   2   67.59    1.39     0.872
   0   1  -2   71.01    1.48     0.872
   1  -1   2   12.34    0.48     0.964
  -1   1  -2   12.05    0.48     0.964
   2  -1   2    4.91    0.44     1.091
  -2   1  -2    4.47    0.44     1.091
   3  -1   2    2.11    0.66     1.320
  -3   1  -2    0.93    0.66     1.323
   4  -1   2    3.30    0.89     1.271
  -4   1  -2    3.05    0.89     1.272
   5  -1   2   19.96    1.24     0.950
  -5   1  -2   18.44    1.24     0.951
   6  -1   2    3.87    2.06     1.289
  -6   1  -2    1.67    1.80     1.288
   7  -1   2   -2.63    3.69     1.316
  -7   1  -2    0.52    3.52     1.302
  -8  -2   2   24.86    2.19     0.914
   8   2  -2   26.24    2.19     0.914
  -7  -2   2    0.75    1.74     1.246
   7   2  -2    1.74    1.37     1.243
  -6  -2   2    7.62    1.27     1.059
   6   2  -2    7.19    1.16     1.057
  -5  -2   2   -0.06    0.50     0.621
   5   2  -2    0.19    0.37     0.623
  -4  -2   2   -0.24    0.48     1.197
   4   2  -2    0.12    0.36     1.189
  -3  -2   2   37.83    0.90     0.897
   3   2  -2   37.68    0.81     0.897
  -2  -2   2  142.12    2.43     0.899
   2   2  -2  138.52    2.16     0.899
  -1  -2   2   61.99    1.13     0.871
   1   2  -2   59.87    1.13     0.870
   0  -2   2    3.72    0.33     1.093
   0   2  -2    4.26    0.22     1.093
   1  -2   2    2.74    0.26     1.303
  -1   2  -2    2.22    0.39     1.305
   2  -2   2   11.13    0.55     1.091
  -2   2  -2   11.89    0.65     1.091
   3  -2   2    6.11    0.55     1.091
  -3   2  -2    5.46    0.76     1.092
   4  -2   2   55.54    1.40     0.877
  -4   2  -2   52.22    1.58     0.878
   5  -2   2    0.67    1.60     1.338
  -5   2  -2    1.34    1.07     1.341
   6  -2   2   39.19    2.71     0.903
  -6   2  -2   41.08    2.71     0.903
   7  -2   2   46.34    4.04     0.898
  -7   2  -2   44.90    4.40     0.898
  -8  -3   2    1.23    2.87     1.367
   8   3  -2    0.82    2.04     1.362
  -7  -3   2    4.42    1.77     1.264
   7   3  -2    3.16    1.51     1.262
  -6  -3   2   17.34    1.53     0.958
   6   3  -2   20.22    1.53     0.959
  -5  -3   2    0.41    0.95     1.363
   5   3  -2    1.77    0.82     1.359
  -4  -3   2    7.20    0.65     1.090
   4   3  -2    8.51    0.55     1.090
  -3  -3   2   27.87    0.82     0.914
   3   3  -2   29.61    0.73     0.914
  -2  -3   2    4.86    0.45     1.130
   2   3  -2    5.32    0.45     1.131
  -1  -3   2  133.14    1.98     0.899
   1   3  -2  131.34    1.89     0.899
   0  -3   2   32.56    0.82     0.907
   0   3  -2   34.55    0.63     0.907
   1  -3   2   52.64    0.96     0.876
  -1   3  -2   51.52    1.05     0.876
   2  -3   2   16.35    0.57     0.956
  -2   3  -2   15.00    0.76     0.955
   3  -3   2  238.62    4.06     0.901
  -3   3  -2  233.10    4.78     0.901
   4  -3   2    4.93    0.77     1.095
  -4   3  -2    3.50    0.88     1.095
   5  -3   2   22.04    1.53     0.954
  -5   3  -2   21.38    1.34     0.954
   6  -3   2   20.51    2.38     0.954
  -6   3  -2   24.06    2.39     0.955
   7  -3   2    2.24    2.61     0.931
  -7   3  -2    2.52    2.80     0.935
  -8  -4   2    3.79    2.49     1.083
   8   4  -2    4.44    2.38     1.083
  -7  -4   2    9.89    1.78     0.989
   7   4  -2   11.38    1.48     0.989
  -6  -4   2    7.85    1.05     1.046
   6   4  -2    6.80    1.26     1.046
  -5  -4   2   21.73    1.05     0.957
   5   4  -2   18.49    1.25     0.958
  -4  -4   2  189.18    3.69     0.900
   4   4  -2  199.91    2.97     0.900
  -3  -4   2    7.15    0.54     1.083
   3   4  -2    8.24    0.54     1.085
  -2  -4   2    7.16    0.43     1.085
   2   4  -2    7.04    0.43     1.084
  -1  -4   2  125.92    1.89     0.898
   1   4  -2  128.52    1.89     0.898
   0  -4   2   31.27    0.63     0.906
   0   4  -2   31.82    0.63     0.907
   1  -4   2  510.46    7.67     0.903
  -1   4  -2  497.66    7.31     0.903
   2  -4   2   39.86    0.90     0.898
  -2   4  -2   39.95    1.17     0.898
   3  -4   2   15.55    0.77     0.966
  -3   4  -2   15.55    0.97     0.966
   4  -4   2    2.34    0.78     1.300
  -4   4  -2    2.21    1.17     1.300
   5  -4   2   13.42    1.21     1.009
  -5   4  -2    8.68    1.21     1.009
   6  -4   2   17.97    2.90     0.936
  -6   4  -2   23.50    2.34     0.936
   7  -4   2   41.79    5.00     0.909
  -7   4  -2   47.07    3.00     0.909
  -8  -5   2   -0.25    2.10     1.234
   8   5  -2    0.98    1.97     1.229
  -7  -5   2   14.24    1.68     0.989
   7   5  -2   13.55    1.48     0.989
  -6  -5   2    0.45    0.91     1.133
   6   5  -2    1.35    1.13     1.129
  -5  -5   2   31.28    1.36     0.907
   5   5  -2   28.01    1.27     0.907
  -4  -5   2  328.68    6.04     0.901
   4   5  -2  341.51    5.23     0.901
  -3  -5   2  219.86    4.23     0.900
   3   5  -2  230.42    3.60     0.900
  -2  -5   2  263.25    3.79     0.901
   2   5  -2  259.30    4.51     0.901
  -1  -5   2   54.34    0.87     0.874
   1   5  -2   53.65    0.87     0.874
   0  -5   2   17.53    0.37     0.938
   0   5  -2   17.63    0.47     0.938
   1  -5   2  317.96    4.78     0.901
  -1   5  -2  319.44    4.96     0.901
   2  -5   2   33.51    0.80     0.894
  -2   5  -2   33.16    0.98     0.894
   3  -5   2  192.97    3.24     0.900
  -3   5  -2  189.72    3.69     0.900
   4  -5   2   14.37    0.76     0.952
  -4   5  -2   14.66    1.05     0.952
   5  -5   2    5.72    1.08     1.080
  -5   5  -2    6.91    1.08     1.079
   6  -5   2   16.66    2.35     1.068
  -6   5  -2   11.00    1.60     1.068
   7  -5   2    0.88    6.57     1.264
  -7   5  -2   -1.74    2.61     1.242
  -8  -6   2    8.01    2.71     1.083
   8   6  -2    9.53    2.06     1.083
  -7  -6   2    0.70    1.81     1.392
   7   6  -2    0.97    1.80     1.385
  -6  -6   2   77.20    2.35     0.871
   6   6  -2   78.26    2.44     0.872
  -5  -6   2    6.93    0.97     1.083
   5   6  -2    4.33    0.87     1.082
  -4  -6   2  627.22   11.02     0.903
   4   6  -2  649.31   11.01     0.903
  -3  -6   2    7.30    0.76     1.090
   3   6  -2    7.75    0.55     1.091
  -2  -6   2    8.86    0.43     1.081
   2   6  -2    7.13    0.54     1.080
  -1  -6   2   33.35    0.64     0.914
   1   6  -2   31.62    0.64     0.914
   0  -6   2   68.07    1.22     0.872
   0   6  -2   70.22    1.05     0.871
   1  -6   2   77.11    1.39     0.871
  -1   6  -2   76.99    1.57     0.872
   2  -6   2  287.08    4.78     0.901
  -2   6  -2  276.21    4.87     0.901
   3  -6   2    0.02    0.09     0.233
  -3   6  -2   -0.10    0.15     0.244
   4  -6   2   85.51    2.09     0.873
  -4   6  -2   80.14    2.10     0.873
   5  -6   2    7.30    1.31     1.089
  -5   6  -2    6.32    1.09     1.090
   6  -6   2    2.39    2.27     1.260
  -6   6  -2    6.55    1.89     1.260
   7  -6   2    4.08    3.20     1.103
  -7   6  -2   -1.96    2.95     1.092
  -8  -7   2   -0.46    0.65     0.385
   8   7  -2   -0.04    0.70     0.386
  -7  -7   2    3.61    1.69     1.127
   7   7  -2    4.96    1.58     1.128
  -6  -7   2   -0.35    0.35     0.506
   6   7  -2   -0.26    0.52     0.523
  -5  -7   2    6.66    0.85     1.057
   5   7  -2    7.82    0.95     1.057
  -4  -7   2  212.61    4.05     0.901
   4   7  -2  218.89    3.87     0.900
  -3  -7   2   15.54    0.75     0.942
   3   7  -2   17.70    0.57     0.942
  -2  -7   2   67.27    1.49     0.875
   2   7  -2   66.40    1.22     0.875
  -1  -7   2  136.56    1.98     0.898
   1   7  -2  136.11    1.89     0.898
   0  -7   2    1.77    0.38     1.261
   0   7  -2    2.40    0.25     1.265
   1  -7   2  174.95    3.15     0.900
  -1   7  -2  168.39    3.24     0.900
   2  -7   2    0.27    0.41     1.358
  -2   7  -2    0.14    0.68     1.367
   3  -7   2    9.36    0.53     1.064
  -3   7  -2    8.94    0.85     1.064
   4  -7   2   16.45    0.78     0.979
  -4   7  -2   14.99    1.18     0.980
   5  -7   2   -0.44    1.11     1.106
  -5   7  -2    1.11    1.22     1.109
   6  -7   2   -0.20    0.20     0.128
  -6   7  -2   -0.02    0.14     0.109
   7  -7   2    6.13    4.09     1.363
  -7   7  -2    1.80    3.45     1.381
  -8  -8   2    0.78    2.64     1.554
   8   8  -2    4.10    3.31     1.577
  -7  -8   2    3.14    2.22     1.307
   7   8  -2    1.18    1.84     1.311
  -6  -8   2    3.80    1.19     1.188
   6   8  -2    2.85    1.07     1.187
  -5  -8   2    2.36    0.75     1.242
   5   8  -2    1.37    0.87     1.243
  -4  -8   2  439.73    8.39     0.902
   4   8  -2  455.84    7.04     0.902
  -3  -8   2   92.05    1.75     0.875
   3   8  -2   97.95    1.66     0.875
  -2  -8   2   51.68    1.33     0.883
   2   8  -2   54.41    1.06     0.883
  -1  -8   2   19.40    0.46     0.920
   1   8  -2   17.94    0.46     0.920
   0  -8   2   70.87    1.48     0.871
   0   8  -2   72.00    1.13     0.871
   1  -8   2   13.83    0.49     0.988
  -1   8  -2   14.21    0.49     0.987
   2  -8   2   86.05    1.57     0.875
  -2   8  -2   83.02    1.84     0.875
   3  -8   2    4.66    0.54     1.084
  -3   8  -2    4.23    0.65     1.085
   4  -8   2    3.75    0.77     1.104
  -4   8  -2    1.77    0.99     1.104
   5  -8   2    0.29    0.66     0.734
  -5   8  -2   -0.54    0.69     0.765
   6  -8   2   -0.39    2.35     1.307
  -6   8  -2    2.09    1.83     1.306
   7  -8   2   -1.25    3.74     1.248
  -7   8  -2   -0.12    2.86     1.242
  -8  -9   2   -0.68    1.11     0.615
   8   9  -2   -0.98    1.11     0.654
  -7  -9   2    0.19    1.24     0.951
   7   9  -2    2.90    1.40     0.936
  -6  -9   2    0.10    0.13     0.141
   6   9  -2    0.11    0.15     0.133
  -5  -9   2   -0.05    0.17     0.246
   5   9  -2   -0.09    0.16     0.232
  -4  -9   2  154.69    2.96     0.898
   4   9  -2  157.12    3.32     0.898
  -3  -9   2   87.70    1.83     0.874
   3   9  -2   83.91    1.75     0.873
  -2  -9   2  105.68    2.38     0.881
   2   9  -2  107.89    1.85     0.881
  -1  -9   2   81.31    1.31     0.874
   1   9  -2   78.53    1.22     0.874
   0  -9   2    4.71    0.50     1.240
   0   9  -2    3.97    0.37     1.240
   1  -9   2  192.34    3.24     0.900
  -1   9  -2  181.52    2.88     0.900
   2  -9   2    0.02    0.03     0.108
  -2   9  -2    0.09    0.07     0.130
   3  -9   2    0.00    0.33     0.831
  -3   9  -2    0.41    0.49     0.814
   4  -9   2    0.26    0.78     1.293
  -4   9  -2    0.13    1.04     1.300
   5  -9   2    6.32    1.53     1.090
  -5   9  -2    8.28    1.31     1.089
   6  -9   2    1.17    2.20     1.296
  -6   9  -2    2.98    1.81     1.295
   7  -9   2   -3.41    4.70     0.922
  -7   9  -2    1.83    1.83     0.916
  -8 -10   2    7.32    2.29     1.092
   8  10  -2    7.96    2.40     1.091
  -7 -10   2    0.17    0.14     0.106
   7  10  -2    0.12    0.15     0.106
  -6 -10   2   12.28    1.18     0.982
   6  10  -2    9.62    1.28     0.982
  -5 -10   2    2.11    0.99     1.241
   5  10  -2    3.73    1.12     1.242
  -4 -10   2   31.05    1.18     0.908
   4  10  -2   33.61    1.09     0.908
  -3 -10   2   20.55    0.85     0.947
   3  10  -2   21.32    0.85     0.948
  -2 -10   2   81.09    1.91     0.870
   2  10  -2   87.21    1.31     0.870
  -1 -10   2   23.49    0.37     0.925
   1  10  -2   20.91    0.65     0.925
   0 -10   2   13.12    0.61     1.009
   0  10  -2   14.34    0.51     1.010
   1 -10   2   30.38    0.85     0.946
  -1  10  -2   28.48    0.76     0.946
   2 -10   2   20.09    0.65     0.926
  -2  10  -2   17.23    0.83     0.927
   3 -10   2   31.98    1.00     0.911
  -3  10  -2   28.87    1.09     0.911
   4 -10   2   61.89    1.67     0.879
  -4  10  -2   60.16    1.67     0.880
   5 -10   2    1.52    1.52     1.266
  -5  10  -2    2.40    1.26     1.262
   6 -10   2   48.58    2.96     0.898
  -6  10  -2   41.85    2.33     0.898
   7 -10   2    7.83    6.92     1.135
  -7  10  -2    3.69    2.88     1.152
  -8 -11   2    0.99    1.57     0.824
   8  11  -2    0.08    1.56     0.818
  -7 -11   2    0.48    1.27     0.795
   7  11  -2   -0.88    1.04     0.801
  -6 -11   2    0.27    0.31     0.385
   6  11  -2    0.19    0.43     0.390
  -5 -11   2   36.15    1.33     0.886
   5  11  -2   33.57    1.51     0.886
  -4 -11   2   49.53    1.50     0.883
   4  11  -2   49.10    1.33     0.883
  -3 -11   2    2.26    0.50     1.255
   3  11  -2    2.88    0.50     1.254
  -2 -11   2  175.89    3.78     0.900
   2  11  -2  172.99    2.97     0.900
  -1 -11   2  133.56    2.34     0.898
   1  11  -2  135.08    2.24     0.898
   0 -11   2    4.61    0.47     1.182
   0  11  -2    5.32    0.47     1.182
   1 -11   2    0.80    0.64     1.608
  -1  11  -2    0.64    0.48     1.593
   2 -11   2    5.09    0.54     1.083
  -2  11  -2    3.25    0.65     1.083
   3 -11   2   11.84    0.71     1.021
  -3  11  -2   10.84    0.92     1.022
   4 -11   2   30.51    1.20     0.924
  -4  11  -2   26.05    1.11     0.924
   5 -11   2    1.62    1.25     1.250
  -5  11  -2    2.01    1.38     1.255
   6 -11   2    7.04    2.35     1.236
  -6  11  -2    0.25    2.11     1.239
   7 -11   2   -1.73    3.72     1.329
  -7  11  -2   -0.27    2.65     1.324
  -8 -12   2    1.35    2.56     1.345
   8  12  -2    0.67    3.09     1.344
  -7 -12   2   15.93    1.57     0.983
   7  12  -2   14.84    1.87     0.983
  -6 -12   2   -0.45    0.45     0.499
   6  12  -2    0.30    0.55     0.499
  -5 -12   2   45.99    1.59     0.883
   5  12  -2   46.86    1.94     0.883
  -4 -12   2    2.72    0.62     1.237
   4  12  -2    1.86    0.62     1.237
  -3 -12   2    0.93    0.53     1.325
   3  12  -2    0.92    0.53     1.316
  -2 -12   2   67.78    1.66     0.872
   2  12  -2   66.21    1.40     0.872
  -1 -12   2   57.55    1.50     0.883
   1  12  -2   58.89    1.24     0.883
   0 -12   2    9.53    0.54     1.082
   0  12  -2    9.75    0.54     1.083
   1 -12   2  137.11    2.34     0.898
  -1  12  -2  130.81    2.25     0.898
   2 -12   2   12.23    0.71     1.019
  -2  12  -2    8.98    0.82     1.020
   3 -12   2  157.85    3.06     0.900
  -3  12  -2  146.16    3.06     0.900
   4 -12   2   -0.68    0.80     1.139
  -4  12  -2    0.35    0.81     1.154
   5 -12   2   64.03    2.54     0.877
  -5  12  -2   61.00    1.84     0.878
   6 -12   2    2.61    2.36     1.242
  -6  12  -2    3.35    1.49     1.242
   7 -12   2   17.43    4.47     1.089
  -7  12  -2   11.34    1.96     1.090
  -8 -13   2    3.42    3.04     1.267
   8  13  -2    0.89    2.28     1.266
  -7 -13   2    0.29    1.72     1.436
   7  13  -2    2.60    2.46     1.445
  -6 -13   2   49.66    2.04     0.888
   6  13  -2   43.90    2.22     0.889
  -5 -13   2   12.91    1.06     0.963
   5  13  -2   16.88    1.35     0.964
  -4 -13   2    8.33    1.08     1.082
   4  13  -2   10.17    0.87     1.082
  -3 -13   2    0.11    0.44     1.112
   3  13  -2    0.56    0.45     1.123
  -2 -13   2   41.79    1.24     0.884
   2  13  -2   40.55    1.06     0.884
  -1 -13   2   48.93    1.32     0.877
   1  13  -2   50.09    1.14     0.877
   0 -13   2  321.72    6.13     0.901
   0  13  -2  325.76    5.05     0.901
   1 -13   2    0.11    0.46     1.141
  -1  13  -2    0.46    0.46     1.150
   2 -13   2   10.59    0.71     1.018
  -2  13  -2    8.04    0.81     1.017
   3 -13   2   15.73    0.87     0.965
  -3  13  -2   15.15    1.06     0.965
   4 -13   2   -0.32    0.32     0.533
  -4  13  -2    0.00    0.37     0.523
   5 -13   2   11.10    1.62     1.077
  -5  13  -2    6.68    1.19     1.078
   6 -13   2   -0.72    2.59     1.442
  -6  13  -2    1.18    2.21     1.470
  -8 -14   2   -0.14    2.88     1.371
   8  14  -2   -3.54    3.54     1.363
  -7 -14   2    5.13    1.83     1.222
   7  14  -2    5.01    2.08     1.223
  -6 -14   2    0.38    1.26     1.257
   6  14  -2    1.50    1.50     1.250
  -5 -14   2   18.30    1.25     0.958
   5  14  -2   19.15    1.15     0.957
  -4 -14   2    0.31    1.07     1.531
   4  14  -2   -0.15    0.90     1.505
  -3 -14   2   -0.23    0.57     1.131
   3  14  -2   -0.23    0.34     1.133
  -2 -14   2   23.33    0.76     0.952
   2  14  -2   23.54    0.86     0.953
  -1 -14   2    7.73    0.32     1.059
   1  14  -2    7.41    0.53     1.059
   0 -14   2    0.08    0.23     0.761
   0  14  -2    0.07    0.30     0.744
   1 -14   2   11.53    0.73     1.049
  -1  14  -2    9.75    0.63     1.048
   2 -14   2    6.08    0.54     1.086
  -2  14  -2    5.21    0.76     1.086
   3 -14   2    8.56    0.76     1.083
  -3  14  -2    8.56    0.97     1.083
   4 -14   2    1.25    1.13     1.252
  -4  14  -2    2.00    1.00     1.249
   5 -14   2    1.61    1.73     1.238
  -5  14  -2    1.36    1.24     1.238
   6 -14   2    3.64    2.73     1.518
  -6  14  -2    1.37    2.28     1.518
  -8 -15   2   -2.42    3.84     1.424
   8  15  -2    1.57    3.28     1.426
  -7 -15   2    4.79    2.07     1.294
   7  15  -2    1.68    2.19     1.291
  -6 -15   2   58.29    2.30     0.883
   6  15  -2   54.11    2.65     0.883
  -5 -15   2   35.19    1.62     0.898
   5  15  -2   35.08    1.52     0.897
  -4 -15   2   19.77    1.25     0.960
   4  15  -2   21.01    1.06     0.959
  -3 -15   2    0.09    0.08     0.154
   3  15  -2    0.09    0.09     0.170
  -2 -15   2    3.24    0.33     1.118
   2  15  -2    2.91    0.56     1.118
  -1 -15   2   11.46    0.62     1.246
   1  15  -2    9.69    0.75     1.242
   0 -15   2  294.24    4.96     0.901
   0  15  -2  297.68    4.42     0.901
   1 -15   2   48.25    1.24     0.884
  -1  15  -2   46.54    1.06     0.883
   2 -15   2   13.03    0.69     0.980
  -2  15  -2   11.95    0.68     0.979
   3 -15   2    4.77    0.76     1.084
  -3  15  -2    4.99    0.87     1.084
   4 -15   2   18.92    1.45     0.965
  -4  15  -2   15.44    1.16     0.965
   5 -15   2    9.50    1.75     1.092
  -5  15  -2    8.08    1.42     1.093
   6 -15   2    2.11    3.11     1.243
  -6  15  -2   -0.74    1.49     1.240
  -7 -16   2    8.15    2.01     1.182
   7  16  -2    5.91    2.48     1.181
  -6 -16   2    4.13    1.42     1.290
   6  16  -2    1.68    1.42     1.290
  -5 -16   2    4.04    0.98     1.091
   5  16  -2    5.78    1.09     1.092
  -4 -16   2   13.90    1.11     1.008
   4  16  -2   15.82    1.11     1.008
  -3 -16   2    4.18    0.79     1.129
   3  16  -2    5.76    0.68     1.129
  -2 -16   2    4.31    0.84     1.197
   2  16  -2    4.19    0.60     1.197
  -1 -16   2   57.91    1.33     0.884
   1  16  -2   57.39    1.41     0.884
   0 -16   2   71.10    1.41     0.879
   0  16  -2   69.54    1.58     0.879
   1 -16   2    4.45    0.56     1.114
  -1  16  -2    4.12    0.56     1.114
   2 -16   2   18.51    0.77     0.969
  -2  16  -2   18.50    0.87     0.968
   3 -16   2  139.43    3.05     0.898
  -3  16  -2  133.14    3.05     0.898
   4 -16   2    1.77    1.52     1.264
  -4  16  -2    1.77    1.13     1.261
   5 -16   2   22.43    1.91     0.954
  -5  16  -2   16.68    1.33     0.953
   6 -16   2   -0.22    0.80     0.362
  -6  16  -2   -0.22    0.51     0.362
  -7 -17   2    5.01    1.85     1.090
   7  17  -2    5.23    2.18     1.091
  -6 -17   2   15.75    1.59     0.997
   6  17  -2   15.25    2.09     0.997
  -5 -17   2    7.45    1.19     1.079
   5  17  -2    8.84    1.19     1.079
  -4 -17   2   39.44    1.51     0.888
   4  17  -2   40.23    1.42     0.888
  -3 -17   2   10.57    0.96     1.067
   3  17  -2   12.48    0.96     1.066
  -2 -17   2  158.55    3.42     0.900
   2  17  -2  157.29    2.97     0.900
  -1 -17   2   75.46    1.57     0.871
   1  17  -2   73.25    1.57     0.871
   0 -17   2   26.76    0.82     0.907
   0  17  -2   24.41    0.82     0.907
   1 -17   2   20.51    0.86     0.959
  -1  17  -2   21.00    0.86     0.959
   2 -17   2    1.22    0.68     1.361
  -2  17  -2    0.00    0.68     1.356
   3 -17   2   52.73    1.68     0.883
  -3  17  -2   46.89    1.50     0.883
   4 -17   2    3.01    1.27     1.156
  -4  17  -2    1.85    1.16     1.157
   5 -17   2   -1.20    1.20     0.921
  -5  17  -2    0.28    0.93     0.925
   6 -17   2    0.02    0.23     0.109
  -6  17  -2   -0.16    0.16     0.109
  -7 -18   2    1.42    1.42     0.788
   7  18  -2    1.21    1.77     0.803
  -6 -18   2   41.21    2.12     0.884
   6  18  -2   40.17    2.74     0.885
  -5 -18   2    3.04    1.35     1.127
   5  18  -2    3.72    1.35     1.126
  -4 -18   2    0.30    1.37     1.518
   4  18  -2   -0.77    1.38     1.531
  -3 -18   2    0.00    0.52     0.873
   3  18  -2    0.60    0.60     0.853
  -2 -18   2    1.51    0.90     1.506
   2  18  -2    0.15    0.76     1.517
  -1 -18   2   62.63    1.75     0.872
   1  18  -2   66.99    1.48     0.872
   0 -18   2   38.96    1.15     0.884
   0  18  -2   35.09    1.06     0.884
   1 -18   2    0.00    0.63     1.263
  -1  18  -2   -0.25    0.63     1.259
   2 -18   2  106.61    2.28     0.878
  -2  18  -2  105.00    2.11     0.878
   3 -18   2    5.26    0.96     1.196
  -3  18  -2    3.58    0.95     1.194
   4 -18   2   70.91    2.79     0.873
  -4  18  -2   63.39    1.92     0.873
   5 -18   2    0.96    1.20     0.802
  -5  18  -2    0.63    0.95     0.792
   6 -18   2   28.50    2.68     0.957
  -6  18  -2   24.11    1.72     0.957
  -7 -19   2   -0.78    2.11     1.112
   7  19  -2   -1.99    2.57     1.169
  -6 -19   2   25.40    1.85     0.924
   6  19  -2   25.41    2.40     0.924
  -5 -19   2   56.78    2.12     0.883
   5  19  -2   56.44    2.21     0.883
  -4 -19   2    8.13    1.27     1.056
   4  19  -2    8.13    1.16     1.056
  -3 -19   2   61.62    2.37     0.878
   3  19  -2   58.72    1.49     0.878
  -2 -19   2   86.35    2.18     0.874
   2  19  -2   87.55    1.83     0.874
  -1 -19   2  137.42    2.78     0.898
   1  19  -2  137.97    2.52     0.898
   0 -19   2    1.05    0.79     1.312
   0  19  -2    0.52    0.65     1.307
   1 -19   2    8.71    0.75     1.075
  -1  19  -2    9.46    0.75     1.076
   2 -19   2   -0.69    0.69     1.372
  -2  19  -2    0.55    0.82     1.374
   3 -19   2    0.06    0.45     0.638
  -3  19  -2    0.20    0.59     0.659
   4 -19   2   33.78    2.25     0.901
  -4  19  -2   27.95    1.53     0.902
   5 -19   2    1.15    1.15     0.821
  -5  19  -2   -0.44    1.13     0.873
   6 -19   2    0.98    1.03     0.545
  -6  19  -2   -0.80    0.80     0.574
  -7 -20   2    1.61    2.72     1.237
   7  20  -2    6.34    2.98     1.242
  -6 -20   2   13.01    1.71     1.009
   6  20  -2   14.93    2.32     1.009
  -5 -20   2   28.81    1.75     0.923
   5  20  -2   27.89    1.76     0.924
  -4 -20   2   -0.70    1.28     1.164
   4  20  -2   -0.95    1.07     1.190
  -3 -20   2   -0.25    0.28     0.355
   3  20  -2    0.32    0.22     0.360
  -2 -20   2   -0.06    0.07     0.105
   2  20  -2   -0.01    0.07     0.110
  -1 -20   2    3.47    0.64     1.287
   1  20  -2    2.96    0.77     1.287
   0 -20   2    0.45    0.76     1.516
   0  20  -2   -0.15    0.76     1.519
   1 -20   2    1.37    0.75     1.242
  -1  20  -2   -0.62    0.74     1.231
   2 -20   2   20.20    1.01     0.918
  -2  20  -2   21.85    1.01     0.918
   3 -20   2    0.42    1.13     1.418
  -3  20  -2    2.25    1.13     1.408
   4 -20   2    7.16    1.63     1.086
  -4  20  -2    4.77    1.19     1.084
   5 -20   2    2.39    2.14     1.258
  -5  20  -2    0.66    1.58     1.321
   6 -20   2    4.27    2.02     1.124
  -6  20  -2    4.61    1.80     1.125
  -7 -21   2    7.83    2.24     1.118
   7  21  -2    9.05    3.02     1.117
  -6 -21   2   40.43    2.15     0.896
   6  21  -2   46.89    2.69     0.897
  -5 -21   2   71.28    2.62     0.875
   5  21  -2   74.96    2.62     0.875
  -4 -21   2    0.76    1.20     1.087
   4  21  -2    4.13    1.30     1.088
  -3 -21   2  203.92    5.49     0.900
   3  21  -2  201.86    4.14     0.900
  -2 -21   2    0.48    0.58     0.963
   2  21  -2    0.09    0.66     0.946
  -1 -21   2  205.79    4.23     0.900
   1  21  -2  208.66    3.51     0.900
   0 -21   2    1.38    0.83     1.376
   0  21  -2    1.10    0.83     1.375
   1 -21   2   33.63    1.34     0.895
  -1  21  -2   33.18    1.07     0.894
   2 -21   2    2.65    0.81     1.154
  -2  21  -2    3.69    1.04     1.153
   3 -21   2    0.05    0.11     0.121
  -3  21  -2   -0.04    0.11     0.126
   4 -21   2   34.35    2.15     0.895
  -4  21  -2   31.86    1.61     0.895
   5 -21   2    8.21    1.95     1.081
  -5  21  -2    9.73    1.51     1.081
   6 -21   2    3.37    2.97     1.349
  -6  21  -2    0.94    2.02     1.346
  -7 -22   2    0.08    1.41     0.831
   7  22  -2    1.99    2.08     0.831
  -6 -22   2    5.72    1.60     1.144
   6  22  -2    3.44    2.52     1.148
  -5 -22   2    7.07    1.39     1.071
   5  22  -2    7.28    1.61     1.070
  -4 -22   2    9.09    1.39     1.069
   4  22  -2    7.60    1.39     1.070
  -3 -22   2   10.89    1.19     0.990
   3  22  -2   10.19    1.09     0.989
  -2 -22   2   10.49    1.15     1.049
   2  22  -2   13.54    0.94     1.049
  -1 -22   2    0.87    1.16     1.447
   1  22  -2    1.16    0.87     1.448
   0 -22   2    7.55    0.84     1.049
   0  22  -2    6.50    0.73     1.049
   1 -22   2   11.75    1.00     1.004
  -1  22  -2   12.06    0.80     1.005
   2 -22   2   66.69    2.01     0.873
  -2  22  -2   64.09    1.83     0.873
   3 -22   2    7.98    1.42     1.093
  -3  22  -2    6.01    1.31     1.092
   4 -22   2   23.06    1.91     0.953
  -4  22  -2   20.59    1.43     0.953
   5 -22   2    4.05    1.80     1.126
  -5  22  -2    2.36    1.46     1.125
   6 -22   2   14.33    2.57     0.989
  -6  22  -2   11.07    2.67     0.988
  -7 -23   2    3.18    2.67     1.272
   7  23  -2    3.56    3.56     1.270
  -6 -23   2    2.28    1.78     1.268
   6  23  -2    5.20    2.54     1.268
  -5 -23   2   12.76    1.47     0.982
   5  23  -2   12.86    1.57     0.982
  -4 -23   2   14.88    1.92     0.960
   4  23  -2   20.92    1.73     0.960
  -3 -23   2   15.31    1.40     1.000
   3  23  -2   14.90    1.10     1.000
  -2 -23   2   33.48    1.54     0.907
   2  23  -2   31.31    1.18     0.908
  -1 -23   2    1.12    1.00     1.247
   1  23  -2    0.37    0.87     1.242
   0 -23   2   11.31    1.14     1.037
   0  23  -2   13.48    1.04     1.037
   1 -23   2   11.03    0.98     1.093
  -1  23  -2    8.41    0.98     1.093
   2 -23   2    1.24    1.12     1.240
  -2  23  -2    2.74    1.37     1.246
   3 -23   2    4.54    1.59     1.226
  -3  23  -2    1.59    1.10     1.226
   4 -23   2   17.13    2.09     0.952
  -4  23  -2   10.38    1.24     0.952
   5 -23   2    8.03    2.64     1.100
  -5  23  -2    3.52    1.54     1.101
  -6 -24   2    2.60    1.81     1.130
   6  24  -2   12.07    2.59     1.128
  -5 -24   2   19.53    1.72     0.957
   5  24  -2   15.90    1.92     0.958
  -4 -24   2    0.10    1.44     0.959
   4  24  -2    1.09    1.19     0.990
  -3 -24   2    0.00    1.13     1.259
   3  24  -2   -0.13    1.02     1.271
  -2 -24   2    0.39    0.97     0.970
   2  24  -2   -0.50    0.61     1.008
  -1 -24   2   -0.81    0.93     1.159
   1  24  -2   -0.11    0.80     1.144
   0 -24   2    9.36    1.20     1.088
   0  24  -2    9.80    0.98     1.089
   1 -24   2   12.74    1.20     1.003
  -1  24  -2   12.14    0.90     1.003
   2 -24   2    0.15    0.15     0.194
  -2  24  -2    0.33    0.17     0.172
   3 -24   2    8.84    1.42     1.091
  -3  24  -2    4.80    1.09     1.092
   4 -24   2   15.49    2.14     1.019
  -4  24  -2    7.95    1.32     1.019
   5 -24   2   -1.81    1.81     0.824
  -5  24  -2   -0.08    1.91     0.831
  -6 -25   2   -0.60    2.03     1.194
   6  25  -2    4.18    2.99     1.195
  -5 -25   2    0.11    0.46     0.354
   5  25  -2    0.17    0.56     0.347
  -4 -25   2    2.35    2.09     1.305
   4  25  -2    3.13    1.31     1.305
  -3 -25   2   -0.13    1.54     1.285
   3  25  -2    2.32    1.42     1.288
  -2 -25   2    5.26    1.12     1.119
   2  25  -2    4.37    0.90     1.120
  -1 -25   2   38.45    1.96     0.892
   1  25  -2   41.93    1.43     0.892
   0 -25   2    7.87    1.20     1.093
   0  25  -2    7.31    1.09     1.092
   1 -25   2    0.17    0.25     0.278
  -1  25  -2    0.12    0.20     0.289
   2 -25   2   21.14    1.63     0.957
  -2  25  -2   12.53    1.24     0.957
   3 -25   2    0.00    1.39     1.156
  -3  25  -2   -1.01    1.12     1.122
   4 -25   2   24.45    2.54     0.940
  -4  25  -2   18.63    1.60     0.941
   5 -25   2   19.58    3.23     0.979
  -5  25  -2   19.49    2.25     0.980
  -6 -26   2   -0.15    2.62     1.457
   6  26  -2    0.29    3.19     1.450
  -5 -26   2    0.13    2.05     1.279
   5  26  -2    2.56    1.92     1.278
  -4 -26   2    0.09    1.47     0.920
   4  26  -2   -0.09    1.02     0.922
  -3 -26   2    4.05    1.58     1.125
   3  26  -2    3.60    1.24     1.125
  -2 -26   2    0.62    1.11     1.235
   2  26  -2    2.98    0.99     1.243
  -1 -26   2   -0.41    1.22     1.352
   1  26  -2   -0.14    1.09     1.357
   0 -26   2    2.71    1.19     1.085
   0  26  -2    4.67    1.09     1.085
   1 -26   2    9.30    1.21     1.011
  -1  26  -2    8.39    1.01     1.011
   2 -26   2    0.34    1.37     1.142
  -2  26  -2   -0.11    1.13     1.125
   3 -26   2   13.27    1.79     1.053
  -3  26  -2    7.89    1.37     1.053
   4 -26   2    6.13    1.97     1.095
  -4  26  -2    9.19    2.30     1.094
   5 -26   2    0.12    2.62     1.192
  -5  26  -2    0.83    2.50     1.189
  -6 -27   2   14.78    2.17     1.034
   6  27  -2   16.44    2.90     1.034
  -5 -27   2    2.83    2.06     1.289
   5  27  -2    0.78    1.94     1.291
  -4 -27   2   18.30    2.30     0.958
   4  27  -2   23.38    1.82     0.958
  -3 -27   2   -0.14    0.14     0.136
   3  27  -2   -0.08    0.12     0.136
  -2 -27   2   23.84    1.79     0.942
   2  27  -2   26.01    1.32     0.942
  -1 -27   2    1.02    1.15     1.280
   1  27  -2    2.43    1.15     1.280
   0 -27   2   31.13    1.74     0.916
   0  27  -2   33.07    1.37     0.916
   1 -27   2   -0.98    1.23     1.228
  -1  27  -2    0.00    1.11     1.234
   2 -27   2   25.03    2.12     0.963
  -2  27  -2   17.81    1.44     0.963
   3 -27   2    1.56    1.21     0.866
  -3  27  -2    0.60    0.95     0.860
   4 -27   2    9.79    2.39     1.088
  -4  27  -2   10.23    2.83     1.088
   5 -27   2   10.25    2.70     1.079
  -5  27  -2    7.02    2.48     1.080
  -6 -28   2   -0.38    2.27     1.259
   6  28  -2    0.00    2.64     1.258
  -5 -28   2    6.93    2.09     1.100
   5  28  -2    4.85    1.65     1.101
  -4 -28   2    1.03    2.19     1.290
   4  28  -2    1.03    1.68     1.292
  -3 -28   2    8.80    1.61     1.074
   3  28  -2    9.55    1.29     1.073
  -2 -28   2    3.79    1.45     1.114
   2  28  -2    5.80    1.00     1.116
  -1 -28   2   -0.53    1.33     1.325
   1  28  -2    0.13    1.07     1.334
   0 -28   2   -0.79    1.32     1.318
   0  28  -2    0.40    1.07     1.342
   1 -28   2    2.55    1.42     1.415
  -1  28  -2   -0.14    1.41     1.411
   2 -28   2    0.41    1.77     1.359
  -2  28  -2    0.95    1.36     1.357
   3 -28   2   14.12    2.19     0.994
  -3  28  -2   13.73    2.69     0.995
   4 -28   2   -0.35    2.36     1.181
  -4  28  -2    1.56    2.75     1.198
  -5 -29   2    0.90    2.31     1.285
   5  29  -2    5.28    1.93     1.287
  -4 -29   2    4.39    2.26     1.255
   4  29  -2    1.51    1.38     1.256
  -3 -29   2   11.78    1.95     1.024
   3  29  -2   12.50    1.33     1.024
  -2 -29   2   44.97    2.33     0.896
   2  29  -2   46.21    1.52     0.896
  -1 -29   2   44.99    2.06     0.895
   1  29  -2   47.32    1.70     0.894
   0 -29   2   17.81    1.78     0.937
   0  29  -2   20.62    1.31     0.938
   1 -29   2    7.74    1.32     1.018
  -1  29  -2   10.39    1.32     1.018
   2 -29   2   21.39    2.30     0.959
  -2  29  -2   17.46    1.73     0.959
   3 -29   2   11.72    2.74     1.096
  -3  29  -2    7.23    2.63     1.096
   4 -29   2    5.60    2.97     1.144
  -4  29  -2    3.42    2.74     1.141
  -5 -30   2    1.00    2.50     1.250
   5  30  -2    0.13    1.77     1.266
  -4 -30   2   -0.10    2.03     1.013
   4  30  -2   -1.32    1.42     1.016
  -3 -30   2    1.85    2.22     1.232
   3  30  -2    1.97    1.23     1.229
  -2 -30   2   16.04    1.72     0.955
   2  30  -2   20.44    1.24     0.955
  -1 -30   2    0.51    1.39     1.265
   1  30  -2    0.25    1.14     1.263
   0 -30   2   -0.54    1.17     0.779
   0  30  -2    0.31    1.01     0.777
   1 -30   2    3.06    1.42     1.092
  -1  30  -2    1.53    1.31     1.093
   2 -30   2   -1.30    1.60     0.998
  -2  30  -2   -1.63    1.94     1.021
   3 -30   2    1.09    2.86     1.362
  -3  30  -2    0.14    3.25     1.354
   4 -30   2    6.33    3.55     1.111
  -4  30  -2    7.89    3.33     1.111
  -5 -31   2   -0.53    1.79     1.056
   5  31  -2   -0.32    1.79     1.054
  -4 -31   2   11.79    2.62     1.092
   4  31  -2   11.79    2.07     1.092
  -3 -31   2   -0.38    1.80     0.948
   3  31  -2    1.72    1.15     0.955
  -2 -31   2   36.98    2.33     0.897
   2  31  -2   41.54    1.70     0.897
  -1 -31   2    0.67    1.88     1.345
   1  31  -2    0.40    1.48     1.344
   0 -31   2   25.05    1.75     0.921
   0  31  -2   18.14    1.66     0.921
   1 -31   2   -1.37    1.79     1.375
  -1  31  -2   -2.08    2.08     1.384
   2 -31   2   29.67    2.55     0.945
  -2  31  -2   24.48    3.12     0.945
   3 -31   2   -1.55    1.78     0.775
  -3  31  -2    1.29    1.90     0.759
   4 -31   2   -1.75    3.50     1.250
  -4  31  -2    1.13    3.65     1.258
  -5 -32   2   11.13    2.70     1.080
   5  32  -2    6.49    1.95     1.082
  -4 -32   2    2.37    3.07     1.397
   4  32  -2    0.42    1.94     1.389
  -3 -32   2   20.61    2.77     0.954
   3  32  -2   24.35    1.72     0.955
  -2 -32   2   60.07    2.92     0.883
   2  32  -2   60.70    2.39     0.884
  -1 -32   2    0.06    0.14     0.129
   1  32  -2   -0.12    0.16     0.149
   0 -32   2   -0.08    1.26     0.837
   0  32  -2    1.70    1.53     0.847
   1 -32   2    9.68    1.47     0.978
  -1  32  -2    7.93    2.94     0.979
   2 -32   2    0.68    2.32     1.365
  -2  32  -2    1.11    3.47     1.387
   3 -32   2    6.48    3.82     1.157
  -3  32  -2    7.05    3.24     1.156
  -4 -33   2    4.90    3.44     1.324
   4  33  -2    0.40    2.00     1.330
  -3 -33   2    3.13    2.48     1.305
   3  33  -2    1.16    1.81     1.294
  -2 -33   2    3.83    2.03     1.125
   2  33  -2    1.69    1.46     1.125
  -1 -33   2   16.27    1.83     0.963
   1  33  -2   18.77    1.64     0.963
   0 -33   2    2.97    1.49     1.238
   0  33  -2   -0.62    2.60     1.240
   1 -33   2    6.72    2.20     1.102
  -1  33  -2    9.04    3.20     1.102
   2 -33   2    0.83    2.34     1.379
  -2  33  -2    1.10    3.02     1.372
   3 -33   2   14.92    2.94     1.015
  -3  33  -2   16.64    3.25     1.015
  -4 -34   2    9.41    2.70     1.001
   4  34  -2   16.03    2.00     1.002
  -3 -34   2   11.07    2.53     1.054
   3  34  -2    7.27    1.58     1.054
  -2 -34   2   19.79    2.33     0.970
   2  34  -2   19.88    1.65     0.970
  -1 -34   2    4.11    2.89     1.523
   1  34  -2    0.46    1.84     1.531
   0 -34   2    5.08    1.59     1.058
   0  34  -2   13.21    3.70     1.057
   1 -34   2    1.43    1.91     1.194
  -1  34  -2    2.63    3.23     1.195
   2 -34   2   14.22    2.82     1.008
  -2  34  -2    7.46    3.43     1.008
   3 -34   2    0.63    0.56     0.170
  -3  34  -2   -0.23    0.47     0.175
  -4 -35   2    5.11    3.49     1.246
   4  35  -2    1.87    2.61     1.243
  -3 -35   2   32.77    3.13     0.921
   3  35  -2   30.83    2.21     0.920
  -2 -35   2    5.91    2.08     1.095
   2  35  -2    8.33    1.75     1.097
  -1 -35   2    4.84    2.24     1.242
   1  35  -2    6.82    2.85     1.240
   0 -35   2   -1.02    1.26     0.788
   0  35  -2    1.82    2.61     0.791
   1 -35   2    4.60    2.86     1.244
  -1  35  -2    0.87    2.86     1.242
   2 -35   2    0.02    0.57     0.154
  -2  35  -2    0.39    0.53     0.171
  -3 -36   2   -3.70    3.70     1.322
   3  36  -2   -1.05    2.24     1.317
  -2 -36   2   -1.26    3.77     1.569
   2  36  -2   -1.11    3.17     1.585
  -1 -36   2   -0.78    2.96     1.560
   1  36  -2   -2.77    3.69     1.539
   0 -36   2   -0.58    1.97     1.161
   0  36  -2   -0.35    2.96     1.184
   1 -36   2    3.76    2.65     1.105
  -1  36  -2    5.64    3.10     1.106
   2 -36   2    3.16    4.75     1.318
  -2  36  -2    2.82    4.57     1.345
  -2 -37   2    0.10    1.04     0.474
   2  37  -2   -0.84    0.89     0.494
  -1 -37   2    9.20    2.56     1.165
   1  37  -2    8.50    3.61     1.165
   0 -37   2    0.00    2.27     1.510
   0  37  -2    0.15    4.42     1.522
   1 -37   2   14.06    3.07     1.057
  -1  37  -2    9.62    3.59     1.058
  -2 -38   2    1.88    2.47     0.989
   2  38  -2   -1.16    1.84     0.969
  -1 -38   2    8.20    3.23     1.242
   1  38  -2    3.97    3.72     1.242
   0 -38   2    8.24    2.17     1.084
   0  38  -2   10.97    3.26     1.087
  -8  -1   3   10.18    2.08     1.095
   8   1  -3    6.56    2.08     1.094
  -7  -1   3    2.63    1.75     1.252
   7   1  -3    1.88    1.75     1.251
  -6  -1   3   19.69    1.92     0.961
   6   1  -3   19.20    1.63     0.960
  -5  -1   3   -0.06    0.20     0.287
   5   1  -3    0.21    0.21     0.294
  -4  -1   3    1.43    0.65     1.299
   4   1  -3    2.35    0.52     1.306
  -3  -1   3   26.60    0.82     0.914
   3   1  -3   25.41    0.82     0.914
  -2  -1   3    1.84    0.52     1.312
   2   1  -3    2.10    0.39     1.312
  -1  -1   3   62.79    1.14     0.877
   1   1  -3   63.50    1.23     0.877
   0  -1   3    2.13    0.82     1.635
   0   1  -3    3.07    0.48     1.617
   1  -1   3  167.02    2.70     0.900
  -1   1  -3  165.20    2.70     0.900
   2  -1   3   61.52    1.22     0.873
  -2   1  -3   59.86    1.40     0.873
   3  -1   3    6.22    0.76     1.091
  -3   1  -3    6.00    0.76     1.090
   4  -1   3    0.66    1.19     1.317
  -4   1  -3    2.65    1.46     1.323
   5  -1   3   85.58    3.65     0.870
  -5   1  -3   79.65    5.39     0.870
   6  -1   3   -2.95    2.95     1.053
  -6   1  -3   -0.42    2.22     1.058
  -8  -2   3    5.71    2.78     1.543
   8   2  -3   -0.15    3.08     1.538
  -7  -2   3   10.39    1.92     1.129
   7   2  -3    4.51    1.69     1.128
  -6  -2   3    0.56    0.96     0.799
   6   2  -3    0.47    0.70     0.775
  -5  -2   3   17.49    1.16     0.967
   5   2  -3   19.90    1.26     0.966
  -4  -2   3   18.47    0.87     0.967
   4   2  -3   17.21    0.68     0.967
  -3  -2   3   30.43    0.90     0.900
   3   2  -3   29.18    0.90     0.901
  -2  -2   3    3.58    0.51     1.278
   2   2  -3    3.20    0.51     1.279
  -1  -2   3  225.55    3.51     0.900
   1   2  -3  224.42    3.60     0.900
   0  -2   3   21.69    0.81     0.900
   0   2  -3   22.69    0.63     0.901
   1  -2   3   24.44    0.65     0.922
  -1   2  -3   22.41    0.74     0.922
   2  -2   3   12.83    0.71     1.010
  -2   2  -3   10.42    0.71     1.011
   3  -2   3   62.29    1.83     0.870
  -3   2  -3   65.44    1.83     0.870
   4  -2   3    6.37    1.21     1.098
  -4   2  -3    4.06    1.21     1.098
   5  -2   3   -0.95    1.91     1.364
  -5   2  -3   -0.14    2.73     1.363
   6  -2   3    5.71    3.63     1.297
  -6   2  -3    0.13    3.10     1.292
  -8  -3   3    0.37    0.64     0.305
   8   3  -3   -0.06    0.43     0.289
  -7  -3   3    0.67    1.73     1.331
   7   3  -3    4.17    1.89     1.346
  -6  -3   3    2.64    1.51     1.260
   6   3  -3    1.01    1.14     1.264
  -5  -3   3    8.16    1.02     1.020
   5   3  -3    9.38    0.71     1.019
  -4  -3   3  128.22    2.51     0.898
   4   3  -3  129.84    2.60     0.898
  -3  -3   3    0.05    0.22     0.542
   3   3  -3   -0.22    0.22     0.551
  -2  -3   3  178.77    2.79     0.900
   2   3  -3  178.59    3.42     0.900
  -1  -3   3  218.17    3.42     0.900
   1   3  -3  215.10    3.24     0.900
   0  -3   3  577.20    8.94     0.903
   0   3  -3  597.52    9.03     0.903
   1  -3   3  190.83    2.88     0.900
  -1   3  -3  176.97    3.15     0.900
   2  -3   3    0.50    0.38     1.259
  -2   3  -3    0.00    0.50     1.260
   3  -3   3  158.85    3.69     0.899
  -3   3  -3  163.71    3.60     0.900
   4  -3   3   -1.34    1.34     1.213
  -4   3  -3    1.79    1.31     1.194
   5  -3   3    7.80    1.62     1.083
  -5   3  -3    7.48    1.52     1.083
   6  -3   3    3.05    3.81     1.271
  -6   3  -3    6.10    2.92     1.271
  -8  -4   3    3.46    2.12     1.116
   8   4  -3    8.59    2.12     1.116
  -7  -4   3    0.79    1.90     1.582
   7   4  -3   -1.27    1.91     1.588
  -6  -4   3   19.04    1.34     0.957
   6   4  -3   15.51    1.34     0.958
  -5  -4   3    4.42    0.99     1.104
   5   4  -3    3.86    0.77     1.103
  -4  -4   3    1.38    0.75     1.252
   4   4  -3    2.13    0.63     1.250
  -3  -4   3  112.84    2.15     0.898
   3   4  -3  113.29    1.88     0.898
  -2  -4   3    6.31    0.53     1.051
   2   4  -3    6.31    0.53     1.051
  -1  -4   3  134.08    1.89     0.899
   1   4  -3  132.62    2.16     0.899
   0  -4   3  135.49    2.24     0.898
   0   4  -3  138.45    2.33     0.898
   1  -4   3    9.31    0.44     1.095
  -1   4  -3    8.21    0.66     1.095
   2  -4   3    0.15    0.44     1.455
  -2   4  -3    1.02    0.73     1.462
   3  -4   3    1.75    1.02     1.457
  -3   4  -3    0.15    1.02     1.455
   4  -4   3   73.28    2.79     0.871
  -4   4  -3   77.58    2.35     0.872
   5  -4   3   38.52    2.24     0.896
  -5   4  -3   42.13    2.60     0.896
   6  -4   3   -1.59    2.95     1.136
  -6   4  -3    0.56    2.24     1.122
  -8  -5   3    1.97    2.36     1.311
   8   5  -3    1.58    2.23     1.313
  -7  -5   3    2.34    2.88     1.374
   7   5  -3    3.16    1.93     1.376
  -6  -5   3    0.99    0.76     0.764
   6   5  -3   -0.23    0.70     0.781
  -5  -5   3   61.34    2.00     0.870
   5   5  -3   59.59    1.74     0.871
  -4  -5   3   49.53    1.62     0.897
   4   5  -3   48.36    1.26     0.897
  -3  -5   3   16.08    0.77     0.963
   3   5  -3   14.93    0.77     0.963
  -2  -5   3    8.60    0.52     1.049
   2   5  -3    7.87    0.52     1.050
  -1  -5   3  228.04    3.42     0.901
   1   5  -3  226.32    3.42     0.901
   0  -5   3    0.31    0.62     1.562
   0   5  -3   -0.47    0.47     1.559
   1  -5   3   12.26    0.77     0.965
  -1   5  -3   11.01    0.68     0.965
   2  -5   3   54.78    1.31     0.874
  -2   5  -3   51.99    1.40     0.874
   3  -5   3   16.73    0.95     0.951
  -3   5  -3   15.79    0.95     0.951
   4  -5   3   62.74    2.01     0.874
  -4   5  -3   67.52    2.01     0.874
   5  -5   3    2.04    1.81     1.134
  -5   5  -3    1.14    1.59     1.135
   6  -5   3   20.84    3.38     0.965
  -6   5  -3   17.16    4.44     0.964
  -8  -6   3    1.82    3.34     1.519
   8   6  -3   -1.20    2.71     1.505
  -7  -6   3    0.17    0.46     0.287
   7   6  -3   -0.14    0.50     0.359
  -6  -6   3    4.42    1.39     1.264
   6   6  -3    0.88    1.26     1.261
  -5  -6   3    9.25    1.02     1.016
   5   6  -3   10.16    0.91     1.016
  -4  -6   3   24.71    1.13     0.940
   4   6  -3   24.71    0.85     0.939
  -3  -6   3    8.90    0.52     1.035
   3   6  -3    8.60    0.62     1.036
  -2  -6   3   11.98    0.62     1.033
   2   6  -3   11.78    0.62     1.034
  -1  -6   3   32.06    0.72     0.896
   1   6  -3   30.70    0.81     0.895
   0  -6   3    7.81    0.54     1.085
   0   6  -3    9.01    0.43     1.086
   1  -6   3  141.10    3.05     0.898
  -1   6  -3  137.87    2.52     0.898
   2  -6   3    2.16    0.63     1.268
  -2   6  -3    2.03    0.76     1.270
   3  -6   3   25.28    1.03     0.933
  -3   6  -3   23.90    1.12     0.934
   4  -6   3   14.38    1.19     0.992
  -4   6  -3   11.90    1.09     0.991
   5  -6   3   36.49    2.24     0.897
  -5   6  -3   35.95    2.51     0.896
   6  -6   3   -1.42    1.50     0.835
  -6   6  -3    3.26    2.76     0.835
  -8  -7   3   -0.06    0.21     0.107
   8   7  -3   -0.21    0.21     0.125
  -7  -7   3    0.13    2.11     1.321
   7   7  -3    0.13    2.09     1.309
  -6  -7   3   29.90    1.62     0.901
   6   7  -3   29.54    1.62     0.901
  -5  -7   3   34.05    1.36     0.908
   5   7  -3   33.77    1.27     0.908
  -4  -7   3    7.29    0.86     1.073
   4   7  -3    9.99    0.86     1.074
  -3  -7   3   72.08    1.75     0.875
   3   7  -3   76.34    1.49     0.874
  -2  -7   3   77.81    1.39     0.871
   2   7  -3   78.70    1.57     0.872
  -1  -7   3  177.52    2.70     0.900
   1   7  -3  178.88    2.61     0.900
   0  -7   3   35.14    0.88     0.883
   0   7  -3   36.21    0.88     0.883
   1  -7   3  121.16    2.61     0.898
  -1   7  -3  118.37    2.16     0.898
   2  -7   3   12.01    0.90     1.001
  -2   7  -3   10.82    0.80     1.002
   3  -7   3   12.32    1.20     1.002
  -3   7  -3   12.62    0.90     1.002
   4  -7   3  130.89    2.96     0.898
  -4   7  -3  128.19    2.69     0.898
   5  -7   3   15.53    1.74     0.965
  -5   7  -3   19.50    2.22     0.965
   6  -7   3    7.92    2.49     1.131
  -6   7  -3    8.15    2.94     1.133
  -8  -8   3    4.28    2.45     1.224
   8   8  -3    1.96    2.82     1.225
  -7  -8   3    2.73    2.14     1.189
   7   8  -3    4.99    1.90     1.188
  -6  -8   3   98.42    2.97     0.875
   6   8  -3   97.28    2.97     0.875
  -5  -8   3   43.07    1.50     0.884
   5   8  -3   45.37    1.50     0.884
  -4  -8   3   69.35    1.91     0.869
   4   8  -3   73.60    1.82     0.869
  -3  -8   3  148.20    2.87     0.898
   3   8  -3  147.48    2.78     0.898
  -2  -8   3    3.68    0.49     1.228
   2   8  -3    3.19    0.49     1.228
  -1  -8   3  200.69    3.06     0.900
   1   8  -3  198.72    2.97     0.900
   0  -8   3  150.79    2.61     0.900
   0   8  -3  148.61    2.52     0.900
   1  -8   3  226.67    4.50     0.901
  -1   8  -3  220.93    3.87     0.901
   2  -8   3   51.63    1.32     0.877
  -2   8  -3   52.64    1.49     0.877
   3  -8   3    0.00    0.45     0.642
  -3   8  -3    0.06    0.38     0.640
   4  -8   3    1.02    1.02     1.275
  -4   8  -3    1.53    1.14     1.272
   5  -8   3    0.58    0.91     0.824
  -5   8  -3    0.41    0.91     0.823
   6  -8   3    8.47    2.39     1.086
  -6   8  -3    7.28    3.04     1.087
  -8  -9   3    8.01    2.38     1.082
   8   9  -3    8.55    2.06     1.082
  -7  -9   3    2.15    2.03     1.266
   7   9  -3    0.51    1.78     1.269
  -6  -9   3   62.93    2.64     0.879
   6   9  -3   60.59    2.37     0.879
  -5  -9   3    0.39    1.04     1.297
   5   9  -3    4.28    1.17     1.298
  -4  -9   3   12.35    0.92     1.021
   4   9  -3   12.86    0.82     1.021
  -3  -9   3  143.22    3.06     0.900
   3   9  -3  151.25    2.61     0.900
  -2  -9   3    3.56    0.49     1.227
   2   9  -3    2.95    0.61     1.227
  -1  -9   3    3.75    0.48     1.211
   1   9  -3    4.85    0.48     1.212
   0  -9   3  157.10    2.52     0.900
   0   9  -3  163.68    2.25     0.900
   1  -9   3   86.83    2.02     0.878
  -1   9  -3   80.78    1.84     0.878
   2  -9   3  159.33    3.15     0.899
  -2   9  -3  159.52    3.24     0.899
   3  -9   3   17.65    1.06     0.959
  -3   9  -3   17.28    1.15     0.960
   4  -9   3    1.10    0.92     0.916
  -4   9  -3    0.18    0.64     0.909
   5  -9   3    1.35    1.60     1.229
  -5   9  -3    3.32    1.47     1.229
   6  -9   3   25.51    2.96     0.955
  -6   9  -3   23.97    2.20     0.955
  -8 -10   3    0.89    2.66     1.267
   8  10  -3   -0.38    2.90     1.262
  -7 -10   3    1.85    1.68     0.842
   7  10  -3    1.06    1.51     0.887
  -6 -10   3   62.89    2.46     0.877
   6  10  -3   64.02    2.46     0.877
  -5 -10   3    0.00    0.44     0.630
   5  10  -3   -0.13    0.39     0.644
  -4 -10   3    2.74    1.00     1.247
   4  10  -3    4.11    0.87     1.246
  -3 -10   3    2.96    0.62     1.231
   3  10  -3    2.21    0.62     1.230
  -2 -10   3  120.56    1.97     0.898
   2  10  -3  113.83    2.06     0.898
  -1 -10   3   78.07    1.39     0.870
   1  10  -3   76.60    1.39     0.871
   0 -10   3   49.33    1.23     0.876
   0  10  -3   53.35    0.96     0.876
   1 -10   3  116.33    2.38     0.881
  -1  10  -3  113.89    2.20     0.881
   2 -10   3   61.53    1.76     0.878
  -2  10  -3   58.21    1.58     0.878
   3 -10   3    0.25    0.88     1.252
  -3  10  -3    1.75    0.87     1.251
   4 -10   3   20.68    1.54     0.962
  -4  10  -3   16.55    1.25     0.962
   5 -10   3   -0.87    2.33     1.457
  -5  10  -3    1.31    1.45     1.454
   6 -10   3    5.39    2.75     1.197
  -6  10  -3    1.20    2.15     1.197
  -8 -11   3   11.94    2.71     1.003
   8  11  -3   11.74    2.71     1.003
  -7 -11   3    7.11    2.84     1.094
   7  11  -3    8.98    1.86     1.095
  -6 -11   3  117.03    3.85     0.876
   6  11  -3  112.99    3.50     0.876
  -5 -11   3    6.19    0.88     1.105
   5  11  -3    7.41    1.00     1.106
  -4 -11   3    3.08    0.99     1.232
   4  11  -3    2.46    0.86     1.228
  -3 -11   3   59.26    1.58     0.878
   3  11  -3   60.18    1.49     0.879
  -2 -11   3    1.59    0.40     1.326
   2  11  -3    0.80    0.53     1.325
  -1 -11   3   74.95    1.39     0.872
   1  11  -3   73.11    1.39     0.871
   0 -11   3    4.07    0.64     1.273
   0  11  -3    3.44    0.38     1.274
   1 -11   3    0.20    0.33     0.660
  -1  11  -3    0.06    0.32     0.632
   2 -11   3    3.45    0.86     1.231
  -2  11  -3    3.33    0.86     1.232
   3 -11   3   -1.04    1.04     1.492
  -3  11  -3    1.33    1.18     1.478
   4 -11   3    4.91    1.56     1.197
  -4  11  -3    1.67    1.08     1.196
   5 -11   3   -0.66    1.85     1.325
  -5  11  -3    1.45    1.58     1.319
   6 -11   3   11.64    2.37     1.078
  -6  11  -3    7.10    1.94     1.076
  -8 -12   3   15.91    2.93     1.047
   8  12  -3   11.62    3.35     1.047
  -7 -12   3   -0.06    0.16     0.112
   7  12  -3   -0.01    0.14     0.107
  -6 -12   3   47.24    2.22     0.890
   6  12  -3   46.67    2.14     0.891
  -5 -12   3   28.99    1.46     0.912
   5  12  -3   32.00    1.37     0.912
  -4 -12   3    0.55    0.82     1.373
   4  12  -3    0.14    0.96     1.368
  -3 -12   3    3.75    0.75     1.251
   3  12  -3    4.38    0.75     1.251
  -2 -12   3   14.12    0.79     0.988
   2  12  -3   14.52    0.89     0.988
  -1 -12   3   11.83    0.53     1.056
   1  12  -3   10.36    0.63     1.057
   0 -12   3   44.59    1.15     0.883
   0  12  -3   46.45    0.97     0.883
   1 -12   3    0.23    0.29     0.577
  -1  12  -3    0.17    0.29     0.583
   2 -12   3   25.42    1.09     0.911
  -2  12  -3   24.59    1.18     0.911
   3 -12   3   13.67    1.06     0.962
  -3  12  -3   10.88    1.06     0.963
   4 -12   3   24.25    1.50     0.936
  -4  12  -3   19.95    1.31     0.936
   5 -12   3    4.26    2.06     1.291
  -5  12  -3    3.22    1.29     1.289
   6 -12   3   15.69    2.66     0.987
  -6  12  -3   17.59    1.98     0.988
  -8 -13   3   14.95    3.69     1.053
   8  13  -3   10.64    2.95     1.053
  -7 -13   3   -1.38    1.61     1.153
   7  13  -3   -0.92    2.41     1.146
  -6 -13   3   30.67    1.83     0.913
   6  13  -3   34.21    2.01     0.912
  -5 -13   3    1.14    1.14     1.264
   5  13  -3    0.63    1.01     1.261
  -4 -13   3    3.62    0.90     1.131
   4  13  -3    5.88    1.24     1.131
  -3 -13   3    0.21    0.35     0.696
   3  13  -3    0.07    0.35     0.703
  -2 -13   3    9.68    0.59     0.987
   2  13  -3   11.06    0.69     0.987
  -1 -13   3    1.25    0.37     1.250
   1  13  -3    0.37    0.50     1.241
   0 -13   3   40.22    1.15     0.884
   0  13  -3   42.53    0.97     0.884
   1 -13   3   20.26    0.74     0.921
  -1  13  -3   19.89    1.01     0.921
   2 -13   3   71.93    1.83     0.871
  -2  13  -3   68.35    1.83     0.871
   3 -13   3   24.23    1.30     0.928
  -3  13  -3   22.09    1.21     0.928
   4 -13   3   23.73    1.50     0.938
  -4  13  -3   21.60    1.31     0.939
   5 -13   3   10.09    1.88     0.989
  -5  13  -3   10.68    1.38     0.989
   6 -13   3   -0.13    2.51     1.256
  -6  13  -3    3.05    2.16     1.270
  -8 -14   3    4.69    2.77     1.067
   8  14  -3    8.01    3.10     1.068
  -7 -14   3    4.91    1.85     1.090
   7  14  -3    1.31    2.40     1.090
  -6 -14   3   66.43    2.73     0.881
   6  14  -3   60.40    3.00     0.882
  -5 -14   3    1.35    1.10     1.226
   5  14  -3    1.96    0.98     1.226
  -4 -14   3   35.07    1.43     0.895
   4  14  -3   38.27    1.52     0.894
  -3 -14   3    2.46    0.91     1.297
   3  14  -3    3.50    0.78     1.295
  -2 -14   3    9.35    1.05     1.051
   2  14  -3    8.40    0.73     1.051
  -1 -14   3   29.07    0.74     0.923
   1  14  -3   25.49    0.74     0.924
   0 -14   3   21.02    0.94     0.938
   0  14  -3   23.36    0.75     0.938
   1 -14   3   82.52    1.57     0.871
  -1  14  -3   79.27    1.74     0.870
   2 -14   3    3.32    0.98     1.230
  -2  14  -3    4.68    0.99     1.232
   3 -14   3   69.05    2.00     0.870
  -3  14  -3   68.72    2.17     0.870
   4 -14   3   25.46    1.51     0.947
  -4  14  -3   19.98    1.33     0.947
   5 -14   3   43.31    2.42     0.895
  -5  14  -3   39.21    1.70     0.895
   6 -14   3    2.79    3.21     1.396
  -6  14  -3    4.36    2.67     1.407
  -8 -15   3    1.12    3.11     1.243
   8  15  -3    1.99    3.24     1.245
  -7 -15   3   20.56    2.42     0.970
   7  15  -3   15.52    2.23     0.970
  -6 -15   3    5.38    1.67     1.196
   6  15  -3    5.02    1.55     1.195
  -5 -15   3   -0.51    1.28     1.285
   5  15  -3    1.80    1.28     1.283
  -4 -15   3   53.38    1.93     0.878
   4  15  -3   55.65    1.84     0.878
  -3 -15   3    9.74    0.84     1.048
   3  15  -3   12.68    1.05     1.048
  -2 -15   3  126.77    2.96     0.898
   2  15  -3  129.37    2.51     0.898
  -1 -15   3   62.83    1.49     0.878
   1  15  -3   61.24    1.32     0.877
   0 -15   3   33.94    1.07     0.893
   0  15  -3   35.29    0.89     0.893
   1 -15   3   47.89    1.24     0.884
  -1  15  -3   44.16    1.41     0.883
   2 -15   3   -0.31    0.62     1.029
  -2  15  -3    0.43    0.75     1.073
   3 -15   3   53.50    1.67     0.881
  -3  15  -3   52.65    1.85     0.882
   4 -15   3    0.78    1.31     1.307
  -4  15  -3   -0.79    1.18     1.309
   5 -15   3    4.29    2.02     1.261
  -5  15  -3    0.63    1.39     1.259
   6 -15   3    0.38    0.70     0.271
  -6  15  -3    0.30    0.49     0.271
  -7 -16   3    2.13    2.01     1.182
   7  16  -3    0.95    2.02     1.186
  -6 -16   3    1.96    1.59     1.225
   6  16  -3    1.47    1.59     1.222
  -5 -16   3   14.86    1.45     0.965
   5  16  -3   16.68    1.45     0.964
  -4 -16   3    0.25    1.00     1.256
   4  16  -3    2.38    1.00     1.254
  -3 -16   3    3.73    0.90     1.131
   3  16  -3    3.96    1.02     1.131
  -2 -16   3   -0.04    0.22     0.371
   2  16  -3   -0.04    0.18     0.368
  -1 -16   3   27.94    1.00     0.907
   1  16  -3   26.12    0.82     0.907
   0 -16   3   43.02    1.33     0.883
   0  16  -3   42.31    1.06     0.883
   1 -16   3    2.88    0.75     1.250
  -1  16  -3    1.50    1.00     1.250
   2 -16   3   -0.04    0.14     0.196
  -2  16  -3   -0.07    0.14     0.180
   3 -16   3   22.11    1.34     0.957
  -3  16  -3   21.83    1.34     0.958
   4 -16   3   35.17    2.09     0.909
  -4  16  -3   29.90    1.54     0.909
   5 -16   3    4.67    2.09     1.228
  -5  16  -3    2.21    1.48     1.230
   6 -16   3    3.50    2.52     1.094
  -6  16  -3    7.21    2.08     1.093
  -7 -17   3   51.32    2.86     0.894
   7  17  -3   45.85    3.40     0.894
  -6 -17   3    8.99    1.84     1.083
   6  17  -3    8.12    1.73     1.082
  -5 -17   3   20.89    1.29     0.920
   5  17  -3   23.92    1.56     0.920
  -4 -17   3   29.61    1.62     0.900
   4  17  -3   35.10    1.44     0.900
  -3 -17   3    2.20    0.91     1.296
   3  17  -3    3.50    0.91     1.296
  -2 -17   3  101.13    2.46     0.878
   2  17  -3  105.99    2.02     0.878
  -1 -17   3   -0.08    0.50     0.838
   1  17  -3   -0.16    0.33     0.815
   0 -17   3    0.18    0.55     0.921
   0  17  -3    0.19    0.37     0.925
   1 -17   3   15.96    0.95     0.950
  -1  17  -3   15.28    1.23     0.949
   2 -17   3    1.36    0.87     1.239
  -2  17  -3    0.37    1.11     1.238
   3 -17   3   11.45    1.30     1.080
  -3  17  -3    6.70    1.08     1.080
   4 -17   3    1.83    1.72     1.144
  -4  17  -3    0.35    1.15     1.152
   5 -17   3    6.34    2.25     1.074
  -5  17  -3    7.20    1.61     1.075
   6 -17   3    5.23    4.08     1.275
  -6  17  -3    2.04    1.91     1.274
  -7 -18   3   10.88    2.43     1.057
   7  18  -3   12.25    2.43     1.056
  -6 -18   3   -0.04    0.60     0.425
   6  18  -3    0.09    0.61     0.436
  -5 -18   3   14.05    1.42     1.011
   5  18  -3   16.47    1.62     1.011
  -4 -18   3    2.70    1.28     1.284
   4  18  -3    4.23    1.28     1.282
  -3 -18   3    9.81    1.02     1.022
   3  18  -3   10.72    1.02     1.021
  -2 -18   3   33.86    1.26     0.901
   2  18  -3   34.58    1.17     0.900
  -1 -18   3    1.62    1.08     1.351
   1  18  -3    2.02    0.67     1.348
   0 -18   3    4.40    0.79     1.128
   0  18  -3    3.72    0.68     1.128
   1 -18   3   39.99    1.41     0.883
  -1  18  -3   41.88    1.41     0.883
   2 -18   3    1.20    0.96     1.196
  -2  18  -3    4.19    1.08     1.196
   3 -18   3    0.75    1.25     1.249
  -3  18  -3    0.50    1.12     1.247
   4 -18   3    0.58    0.38     0.252
  -4  18  -3   -0.30    0.30     0.297
   5 -18   3    8.82    2.04     1.076
  -5  18  -3    6.03    1.62     1.077
  -7 -19   3   59.23    3.00     0.883
   7  19  -3   52.89    3.80     0.883
  -6 -19   3    0.63    1.78     1.269
   6  19  -3    0.64    1.79     1.275
  -5 -19   3   19.13    1.63     0.956
   5  19  -3   19.91    1.63     0.957
  -4 -19   3   15.95    1.45     0.967
   4  19  -3   16.44    1.35     0.967
  -3 -19   3   65.57    2.27     0.873
   3  19  -3   62.17    1.92     0.873
  -2 -19   3    0.83    0.95     1.190
   2  19  -3    1.91    0.83     1.192
  -1 -19   3   40.84    1.59     0.884
   1  19  -3   43.92    1.33     0.884
   0 -19   3   31.06    1.18     0.906
   0  19  -3   31.52    1.27     0.906
   1 -19   3  102.46    2.36     0.876
  -1  19  -3   98.57    2.36     0.875
   2 -19   3   79.88    2.26     0.870
  -2  19  -3   73.58    2.00     0.870
   3 -19   3   32.47    1.68     0.933
  -3  19  -3   26.15    1.49     0.934
   4 -19   3    8.51    1.79     1.050
  -4  19  -3    7.25    1.26     1.050
   5 -19   3   -1.13    2.26     1.254
  -5  19  -3   -0.75    1.63     1.254
  -7 -20   3   -1.34    1.51     0.891
   7  20  -3    2.17    2.26     0.902
  -6 -20   3    4.53    1.96     1.225
   6  20  -3    2.45    1.59     1.225
  -5 -20   3    1.93    1.79     1.377
   5  20  -3   -0.27    1.50     1.365
  -4 -20   3    6.35    1.42     1.094
   4  20  -3    8.32    1.20     1.095
  -3 -20   3   -1.03    1.03     1.143
   3  20  -3   -0.57    0.91     1.134
  -2 -20   3   40.02    1.59     0.885
   2  20  -3   41.09    1.33     0.886
  -1 -20   3   15.45    1.45     0.965
   1  20  -3   19.41    0.87     0.966
   0 -20   3   18.00    1.10     0.918
   0  20  -3   20.94    0.92     0.918
   1 -20   3   20.70    1.11     0.928
  -1  20  -3   18.31    1.11     0.929
   2 -20   3  242.25    5.04     0.901
  -2  20  -3  238.01    4.77     0.901
   3 -20   3    7.85    1.40     1.075
  -3  20  -3    5.49    1.18     1.076
   4 -20   3    9.60    2.04     1.021
  -4  20  -3    9.70    1.53     1.021
   5 -20   3    1.06    2.12     1.175
  -5  20  -3   -1.30    1.54     1.183
  -7 -21   3   -0.87    2.38     1.250
   7  21  -3    3.00    3.13     1.251
  -6 -21   3   -0.06    0.97     0.647
   6  21  -3   -0.19    0.97     0.648
  -5 -21   3    0.88    1.38     1.252
   5  21  -3    2.00    1.25     1.253
  -4 -21   3    3.72    1.56     1.199
   4  21  -3    4.80    1.44     1.199
  -3 -21   3   40.07    2.14     0.892
   3  21  -3   42.22    1.52     0.893
  -2 -21   3    3.86    0.94     1.171
   2  21  -3    3.04    0.82     1.170
  -1 -21   3    0.99    1.11     1.238
   1  21  -3    0.87    0.87     1.238
   0 -21   3    3.83    1.01     1.127
   0  21  -3    6.99    0.79     1.127
   1 -21   3    0.03    0.09     0.113
  -1  21  -3    0.02    0.08     0.106
   2 -21   3    7.33    1.20     1.094
  -2  21  -3    7.65    1.31     1.093
   3 -21   3   14.23    1.60     1.002
  -3  21  -3   10.32    1.40     1.002
   4 -21   3    4.84    1.99     1.242
  -4  21  -3    0.37    1.61     1.242
   5 -21   3   -1.32    1.43     0.572
  -5  21  -3   -0.06    0.77     0.551
  -7 -22   3    0.38    2.76     1.254
   7  22  -3   -0.38    3.13     1.253
  -6 -22   3   -0.07    0.15     0.111
   6  22  -3    0.05    0.18     0.127
  -5 -22   3    0.04    0.47     0.361
   5  22  -3   -0.26    0.40     0.367
  -4 -22   3   -0.40    0.56     0.504
   4  22  -3   -0.21    0.47     0.521
  -3 -22   3    0.13    1.43     1.304
   3  22  -3    1.83    1.04     1.304
  -2 -22   3    3.69    1.27     1.272
   2  22  -3    3.94    1.02     1.271
  -1 -22   3    1.92    1.15     1.282
   1  22  -3    2.18    0.90     1.280
   0 -22   3   56.85    2.01     0.875
   0  22  -3   57.18    2.27     0.874
   1 -22   3   15.27    1.34     0.954
  -1  22  -3   14.23    1.15     0.955
   2 -22   3   74.60    2.09     0.870
  -2  22  -3   69.49    2.09     0.871
   3 -22   3   17.56    1.81     0.954
  -3  22  -3   12.88    1.43     0.954
   4 -22   3   14.20    3.34     1.076
  -4  22  -3    8.06    1.61     1.075
   5 -22   3   -1.95    2.87     1.147
  -5  22  -3    0.23    1.85     1.156
  -7 -23   3    7.39    2.51     1.253
   7  23  -3    9.26    3.00     1.251
  -6 -23   3   -0.60    1.69     1.204
   6  23  -3   -0.71    1.78     1.188
  -5 -23   3   22.05    1.70     0.942
   5  23  -3   21.68    1.51     0.943
  -4 -23   3    5.62    1.54     1.101
   4  23  -3    7.38    1.21     1.102
  -3 -23   3  104.25    3.15     0.875
   3  23  -3  106.14    2.62     0.875
  -2 -23   3    1.52    1.17     1.169
   2  23  -3    2.93    0.94     1.170
  -1 -23   3   15.84    1.24     0.954
   1  23  -3   18.43    0.96     0.955
   0 -23   3    2.82    1.02     1.129
   0  23  -3    5.65    1.24     1.129
   1 -23   3    2.21    1.17     1.298
  -1  23  -3    1.95    1.17     1.297
   2 -23   3   46.99    1.68     0.885
  -2  23  -3   45.47    1.77     0.885
   3 -23   3   16.08    1.71     1.005
  -3  23  -3   14.98    1.51     1.005
   4 -23   3    7.34    2.60     1.130
  -4  23  -3    4.75    1.81     1.130
   5 -23   3    0.00    1.91     0.797
  -5  23  -3   -1.17    1.17     0.782
  -6 -24   3    3.66    2.74     1.525
   6  24  -3    2.30    2.45     1.533
  -5 -24   3    1.28    1.80     1.285
   5  24  -3    3.96    1.79     1.279
  -4 -24   3   -1.08    1.55     1.196
   4  24  -3    0.12    1.31     1.187
  -3 -24   3    6.80    1.43     1.097
   3  24  -3    6.04    1.21     1.098
  -2 -24   3    0.03    0.29     0.325
   2  24  -3   -0.07    0.23     0.332
  -1 -24   3    0.17    0.75     0.836
   1  24  -3   -0.58    0.58     0.830
   0 -24   3   -0.12    1.23     1.229
   0  24  -3   -0.12    1.22     1.223
   1 -24   3    1.38    1.38     1.252
  -1  24  -3    0.87    1.37     1.249
   2 -24   3   -0.36    0.61     0.508
  -2  24  -3    0.66    0.56     0.505
   3 -24   3   16.33    2.10     1.002
  -3  24  -3    9.91    1.50     1.001
   4 -24   3   -0.14    2.64     1.390
  -4  24  -3    0.28    2.08     1.383
   5 -24   3    1.90    3.66     1.355
  -5  24  -3    0.27    2.32     1.367
  -6 -25   3    1.49    1.86     1.243
   6  25  -3    2.48    1.74     1.241
  -5 -25   3    0.74    1.84     1.227
   5  25  -3    2.95    1.60     1.228
  -4 -25   3   16.81    2.06     0.983
   4  25  -3   16.72    1.57     0.983
  -3 -25   3    3.79    1.62     1.354
   3  25  -3    0.54    1.08     1.356
  -2 -25   3   30.55    1.84     0.917
   2  25  -3   34.33    1.38     0.918
  -1 -25   3    2.36    1.31     1.309
   1  25  -3    3.91    1.04     1.305
   0 -25   3    6.84    1.16     1.052
   0  25  -3    8.84    1.16     1.052
   1 -25   3   31.18    1.71     0.899
  -1  25  -3   31.13    1.53     0.900
   2 -25   3    1.62    1.62     1.158
  -2  25  -3    0.46    1.27     1.152
   3 -25   3   29.72    2.83     0.912
  -3  25  -3   23.35    1.82     0.912
   4 -25   3   20.44    2.45     0.978
  -4  25  -3   15.55    1.86     0.978
  -6 -26   3    7.68    2.20     1.098
   6  26  -3    8.45    1.87     1.098
  -5 -26   3    6.59    2.31     1.156
   5  26  -3    4.04    1.50     1.156
  -4 -26   3    9.73    2.14     1.069
   4  26  -3   10.05    1.50     1.069
  -3 -26   3    0.10    0.68     0.520
   3  26  -3   -0.05    0.58     0.523
  -2 -26   3   18.42    1.75     0.921
   2  26  -3   20.91    1.20     0.921
  -1 -26   3   -0.13    1.38     1.255
   1  26  -3    1.13    1.13     1.254
   0 -26   3   24.00    1.69     0.941
   0  26  -3   20.14    1.60     0.941
   1 -26   3    0.13    1.40     1.276
  -1  26  -3    0.64    1.28     1.279
   2 -26   3   -0.16    0.21     0.162
  -2  26  -3   -0.08    0.19     0.158
   3 -26   3   35.27    2.72     0.907
  -3  26  -3   32.74    1.90     0.907
   4 -26   3    0.11    3.50     1.130
  -4  26  -3    0.68    2.04     1.136
  -6 -27   3    2.02    2.27     1.263
   6  27  -3    1.51    1.89     1.262
  -5 -27   3    0.13    2.02     1.261
   5  27  -3    4.05    1.90     1.267
  -4 -27   3   -0.55    0.78     0.458
   4  27  -3   -0.55    0.60     0.458
  -3 -27   3    2.95    1.47     1.134
   3  27  -3    5.21    1.25     1.133
  -2 -27   3    5.66    1.52     1.088
   2  27  -3    5.34    1.09     1.089
  -1 -27   3    3.78    1.30     1.081
   1  27  -3    5.41    1.19     1.081
   0 -27   3    4.38    1.42     1.183
   0  27  -3    1.30    1.30     1.183
   1 -27   3    5.28    1.43     1.100
  -1  27  -3    4.84    1.43     1.099
   2 -27   3   13.22    2.30     1.001
  -2  27  -3    8.31    1.30     1.001
   3 -27   3   -2.28    2.28     1.199
  -3  27  -3   -0.36    1.67     1.195
   4 -27   3    0.37    2.41     0.925
  -4  27  -3   -1.37    1.37     0.915
  -6 -28   3    1.88    2.75     1.250
   6  28  -3    1.12    2.25     1.248
  -5 -28   3   -0.04    0.62     0.363
   5  28  -3   -0.19    0.50     0.381
  -4 -28   3   -0.02    0.49     0.246
   4  28  -3    0.05    0.31     0.260
  -3 -28   3    0.90    2.03     1.128
   3  28  -3    0.12    1.15     1.151
  -2 -28   3    3.72    1.35     1.129
   2  28  -3    3.38    1.13     1.128
  -1 -28   3   -0.32    0.89     0.812
   1  28  -3   -1.28    1.28     0.851
   0 -28   3   -1.07    1.31     1.188
   0  28  -3    1.67    1.31     1.191
   1 -28   3   -1.28    1.66     1.276
  -1  28  -3    1.40    1.40     1.275
   2 -28   3    1.70    2.09     1.306
  -2  28  -3    1.17    1.56     1.304
   3 -28   3   15.46    3.01     1.073
  -3  28  -3   11.50    1.93     1.075
   4 -28   3    6.55    4.46     1.393
  -4  28  -3   -2.25    2.25     1.409
  -5 -29   3    0.04    0.27     0.136
   5  29  -3   -0.10    0.25     0.131
  -4 -29   3    4.26    2.71     1.292
   4  29  -3    1.68    1.55     1.292
  -3 -29   3    3.22    2.36     1.240
   3  29  -3    1.88    1.50     1.251
  -2 -29   3   13.36    1.98     0.990
   2  29  -3   15.85    1.39     0.990
  -1 -29   3   55.96    2.47     0.883
   1  29  -3   56.74    2.21     0.882
   0 -29   3   16.40    1.58     0.988
   0  29  -3   17.37    1.88     0.987
   1 -29   3    4.99    1.41     1.085
  -1  29  -3    6.08    1.63     1.086
   2 -29   3   23.94    2.64     0.943
  -2  29  -3   19.32    1.70     0.942
   3 -29   3   11.05    4.44     1.084
  -3  29  -3   11.60    2.06     1.084
  -5 -30   3   11.90    2.49     1.082
   5  30  -3   10.92    1.95     1.081
  -4 -30   3    7.60    2.20     1.101
   4  30  -3    7.38    1.87     1.101
  -3 -30   3    1.32    2.03     1.015
   3  30  -3   -1.11    1.32     1.012
  -2 -30   3   12.08    2.42     1.050
   2  30  -3   14.18    1.58     1.050
  -1 -30   3   -0.51    1.52     1.267
   1  30  -3   -0.89    1.65     1.267
   0 -30   3    3.89    1.49     1.144
   0  30  -3    3.78    1.72     1.145
   1 -30   3   -0.01    0.17     0.123
  -1  30  -3   -0.05    0.12     0.103
   2 -30   3   -1.24    2.61     1.373
  -2  30  -3    1.51    1.92     1.372
   3 -30   3    8.74    3.21     1.107
  -3  30  -3    4.86    2.21     1.105
  -5 -31   3    3.64    3.33     1.515
   5  31  -3    0.46    2.31     1.538
  -4 -31   3    7.58    2.49     1.083
   4  31  -3    5.63    1.63     1.083
  -3 -31   3    9.34    2.52     1.050
   3  31  -3   11.76    1.57     1.050
  -2 -31   3   11.54    2.39     0.995
   2  31  -3   12.95    1.39     0.996
  -1 -31   3    3.10    1.99     1.241
   1  31  -3    3.60    1.86     1.240
   0 -31   3   12.72    1.77     0.986
   0  31  -3   13.91    1.68     0.987
   1 -31   3    7.67    1.68     1.051
  -1  31  -3    9.46    1.68     1.051
   2 -31   3    6.35    2.51     1.197
  -2  31  -3    2.87    2.16     1.198
   3 -31   3    6.92    3.19     1.065
  -3  31  -3    9.59    3.41     1.066
  -4 -32   3    0.86    2.70     1.226
   4  32  -3    3.18    1.96     1.224
  -3 -32   3    9.45    2.71     1.086
   3  32  -3    7.17    1.74     1.086
  -2 -32   3   -0.26    1.81     1.289
   2  32  -3    3.02    2.10     1.312
  -1 -32   3   11.35    1.97     0.987
   1  32  -3   13.03    1.68     0.987
   0 -32   3   -0.42    0.42     0.299
   0  32  -3    0.39    0.42     0.282
   1 -32   3    3.64    2.99     1.299
  -1  32  -3    6.10    2.21     1.298
   2 -32   3   14.48    4.14     1.089
  -2  32  -3    5.45    1.96     1.089
   3 -32   3    3.77    3.77     1.298
  -3  32  -3   -0.91    4.02     1.297
  -4 -33   3   22.62    3.61     0.975
   4  33  -3   16.87    1.95     0.975
  -3 -33   3   -0.33    1.99     0.828
   3  33  -3   -0.33    1.16     0.828
  -2 -33   3    8.41    1.96     1.152
   2  33  -3    5.53    2.19     1.152
  -1 -33   3    1.17    2.07     1.295
   1  33  -3    2.60    2.21     1.297
   0 -33   3    2.21    2.10     1.104
   0  33  -3    3.42    1.98     1.103
   1 -33   3    1.27    2.92     1.271
  -1  33  -3    2.42    2.04     1.273
   2 -33   3    0.29    3.82     1.469
  -2  33  -3   -0.44    3.83     1.474
  -4 -34   3   13.03    3.43     1.010
   4  34  -3   19.41    2.02     1.011
  -3 -34   3    6.24    3.07     1.095
   3  34  -3   10.51    2.41     1.095
  -2 -34   3    2.63    2.25     1.253
   2  34  -3    0.75    2.75     1.250
  -1 -34   3   -0.92    2.37     1.316
   1  34  -3   -1.56    2.34     1.302
   0 -34   3    3.42    2.08     1.221
   0  34  -3   -1.22    2.45     1.223
   1 -34   3   -0.11    2.87     1.102
  -1  34  -3   -0.11    3.12     1.115
   2 -34   3    0.46    2.66     1.158
  -2  34  -3   -0.36    4.51     1.186
  -3 -35   3    0.76    3.40     1.261
   3  35  -3    7.30    2.77     1.259
  -2 -35   3   -2.26    2.26     1.189
   2  35  -3   -0.58    2.57     1.167
  -1 -35   3   25.32    2.40     0.959
   1  35  -3   24.57    2.40     0.960
   0 -35   3    5.79    2.34     1.232
   0  35  -3    1.97    2.34     1.234
   1 -35   3    6.79    3.79     1.114
  -1  35  -3    4.35    3.90     1.114
  -2 -36   3    0.14    2.57     1.354
   2  36  -3    1.09    2.72     1.359
  -1 -36   3    3.32    2.68     1.277
   1  36  -3    2.43    2.43     1.277
   0 -36   3    8.41    2.63     1.052
   0  36  -3    9.15    3.68     1.052
   1 -36   3    1.11    3.01     1.114
  -1  36  -3   11.14    3.34     1.114
  -1 -37   3    0.99    2.35     1.239
   1  37  -3   -1.74    2.86     1.244
  -8   0   4    0.11    1.07     0.535
  -7   0   4    3.31    2.31     1.103
  -6   0   4  106.94    4.38     0.875
  -5   0   4    9.40    1.06     1.056
  -4   0   4  152.82    2.61     0.900
  -3   0   4   20.96    0.92     0.915
  -2   0   4  498.09    7.58     0.903
  -1   0   4  220.16    3.79     0.901
   0   0   4   -0.06    0.28     0.568
   1   0   4   60.03    1.32     0.878
   2   0   4    8.67    0.84     1.045
   3   0   4    5.90    1.09     1.093
   4   0   4    4.69    1.74     1.090
   5   0   4    6.99    2.69     1.075
   6   0   4   -4.31    4.31     1.305
  -8  -1   4    0.08    0.31     0.131
   8   1  -4   -0.35    0.35     0.135
  -7  -1   4   10.39    3.18     1.222
   7   1  -4    4.15    2.81     1.222
  -6  -1   4    2.18    1.94     1.214
   6   1  -4    1.09    2.67     1.213
  -5  -1   4    3.38    0.76     1.091
   5   1  -4    4.14    0.98     1.091
  -4  -1   4   -0.07    0.12     0.239
   4   1  -4    0.03    0.15     0.251
  -3  -1   4   -0.25    0.62     1.242
   3   1  -4   -0.62    0.62     1.245
  -2  -1   4    0.68    0.55     1.369
   2   1  -4    0.82    0.55     1.368
  -1  -1   4   85.85    1.48     0.871
   1   1  -4   86.55    1.57     0.871
   0  -1   4    0.78    0.78     1.554
   0   1  -4    0.93    0.62     1.547
   1  -1   4    1.25    0.70     1.392
  -1   1  -4    0.42    0.56     1.401
   2  -1   4   17.67    1.15     0.955
  -2   1  -4   18.43    0.96     0.955
   3  -1   4   63.62    2.97     0.874
  -3   1  -4   63.01    2.10     0.874
   4  -1   4   -0.35    0.41     0.291
  -4   1  -4   -0.13    0.60     0.318
   5  -1   4    8.17    2.94     1.089
  -5   1  -4    9.92    2.62     1.090
   6  -1   4   -1.75    2.88     1.029
  -6   1  -4    0.85    2.86     1.058
  -8  -2   4    2.36    3.10     1.241
   8   2  -4    1.98    3.22     1.240
  -7  -2   4    0.51    2.81     1.276
   7   2  -4    1.43    2.47     1.300
  -6  -2   4   14.59    2.52     1.007
   6   2  -4   16.72    2.62     1.007
  -5  -2   4   44.63    1.68     0.886
   5   2  -4   41.42    1.77     0.885
  -4  -2   4    1.33    0.66     1.326
   4   2  -4    1.72    0.80     1.325
  -3  -2   4   68.39    1.31     0.870
   3   2  -4   67.51    1.57     0.870
  -2  -2   4   22.40    0.75     0.937
   2   2  -4   21.74    0.84     0.937
  -1  -2   4   44.56    1.08     0.902
   1   2  -4   47.53    1.17     0.902
   0  -2   4   13.44    0.77     0.967
   0   2  -4   15.19    0.68     0.967
   1  -2   4   -0.04    0.12     0.195
  -1   2  -4   -0.09    0.09     0.184
   2  -2   4   28.46    1.28     0.912
  -2   2  -4   27.62    1.19     0.912
   3  -2   4    0.05    0.27     0.265
  -3   2  -4   -0.11    0.21     0.266
   4  -2   4    3.36    2.24     1.243
  -4   2  -4    1.50    1.50     1.246
   5  -2   4    1.53    3.31     1.274
  -5   2  -4    1.89    2.40     1.261
   6  -2   4    1.26    2.87     1.149
  -6   2  -4   -0.34    2.65     1.150
  -8  -3   4    1.01    2.91     1.266
   8   3  -4    1.65    3.55     1.268
  -7  -3   4   -2.06    2.95     1.474
   7   3  -4   -2.49    2.79     1.468
  -6  -3   4    8.88    1.53     1.096
   6   3  -4    3.29    1.98     1.098
  -5  -3   4   -0.45    0.72     0.895
   5   3  -4    0.44    0.70     0.878
  -4  -3   4    0.82    0.45     0.909
   4   3  -4   -0.09    0.46     0.914
  -3  -3   4    6.52    0.64     1.068
   3   3  -4    6.09    0.64     1.068
  -2  -3   4   39.47    0.97     0.883
   2   3  -4   41.42    1.06     0.883
  -1  -3   4   10.26    0.72     1.026
   1   3  -4   10.37    0.62     1.026
   0  -3   4    0.04    0.08     0.199
   0   3  -4    0.00    0.06     0.203
   1  -3   4    2.62    0.75     1.246
  -1   3  -4    1.99    0.62     1.245
   2  -3   4   16.79    1.13     0.938
  -2   3  -4   17.26    0.94     0.938
   3  -3   4   39.70    1.85     0.882
  -3   3  -4   43.21    1.85     0.882
   4  -3   4    2.28    1.56     1.201
  -4   3  -4    4.32    1.80     1.200
   5  -3   4    8.67    2.54     1.156
  -5   3  -4    3.58    2.20     1.155
   6  -3   4    8.66    3.40     1.096
  -6   3  -4    5.48    3.62     1.096
  -8  -4   4    0.25    2.89     1.258
   8   4  -4    0.63    3.14     1.256
  -7  -4   4    3.09    2.63     1.144
   7   4  -4    1.86    2.55     1.161
  -6  -4   4    0.50    1.36     1.239
   6   4  -4    1.98    1.36     1.240
  -5  -4   4    0.39    0.58     0.642
   5   4  -4    0.19    0.44     0.633
  -4  -4   4   22.27    0.94     0.940
   4   4  -4   21.05    0.94     0.940
  -3  -4   4    3.68    0.69     1.150
   3   4  -4    3.80    0.69     1.152
  -2  -4   4   24.52    0.72     0.901
   2   4  -4   24.52    0.90     0.902
  -1  -4   4   83.71    1.57     0.871
   1   4  -4   82.54    1.65     0.871
   0  -4   4   52.34    1.23     0.875
   0   4  -4   54.00    1.23     0.875
   1  -4   4    7.64    0.77     1.107
  -1   4  -4    5.76    0.78     1.108
   2  -4   4   11.73    0.97     0.970
  -2   4  -4   13.67    0.87     0.970
   3  -4   4   17.55    1.39     0.923
  -3   4  -4   19.22    1.48     0.924
   4  -4   4    0.54    1.35     1.355
  -4   4  -4    2.32    2.32     1.363
   5  -4   4    2.90    2.53     1.263
  -5   4  -4   -1.27    2.02     1.265
   6  -4   4   -1.27    3.93     1.269
  -6   4  -4    4.58    3.18     1.271
  -8  -5   4   -0.41    4.54     1.374
   8   5  -4    8.10    7.55     1.373
  -7  -5   4    0.00    3.34     1.591
   7   5  -4    2.57    3.22     1.607
  -6  -5   4    2.16    1.53     1.274
   6   5  -4    2.17    1.40     1.277
  -5  -5   4    0.87    0.87     1.242
   5   5  -4    1.49    0.99     1.239
  -4  -5   4   20.45    0.93     0.925
   4   5  -4   21.54    0.92     0.924
  -3  -5   4    3.47    0.65     1.085
   3   5  -4    3.14    0.65     1.083
  -2  -5   4   51.03    1.15     0.883
   2   5  -4   52.45    1.24     0.883
  -1  -5   4   12.61    0.70     1.000
   1   5  -4   13.61    0.70     1.001
   0  -5   4    6.13    0.66     1.095
   0   5  -4    7.12    0.66     1.095
   1  -5   4   79.51    1.65     0.871
  -1   5  -4   77.45    1.57     0.871
   2  -5   4   44.60    1.59     0.883
  -2   5  -4   48.41    1.33     0.883
   3  -5   4    2.56    1.00     1.113
  -3   5  -4    2.01    1.00     1.115
   4  -5   4    4.66    1.43     1.195
  -4   5  -4    4.31    1.44     1.198
   5  -5   4   -0.51    2.04     1.273
  -5   5  -4    1.65    2.03     1.268
   6  -5   4    4.97    3.35     1.081
  -6   5  -4   11.24    3.67     1.081
  -8  -6   4    0.68    3.67     1.360
   8   6  -4   -1.09    2.45     1.360
  -7  -6   4    1.95    2.27     1.081
   7   6  -4    5.19    1.95     1.081
  -6  -6   4   23.06    1.59     0.938
   6   6  -4   19.58    1.59     0.937
  -5  -6   4   92.99    2.45     0.874
   5   6  -4   95.64    2.62     0.874
  -4  -6   4    5.87    0.64     1.068
   4   6  -4    5.77    0.64     1.068
  -3  -6   4  251.49    3.87     0.901
   3   6  -4  248.86    4.24     0.901
  -2  -6   4   12.20    0.70     1.000
   2   6  -4   12.61    0.80     1.001
  -1  -6   4  260.82    4.24     0.901
   1   6  -4  262.42    4.06     0.901
   0  -6   4    0.96    0.80     1.600
   0   6  -4    1.28    0.80     1.598
   1  -6   4  133.20    2.34     0.898
  -1   6  -4  136.26    2.52     0.898
   2  -6   4    2.18    0.90     1.280
  -2   6  -4    4.35    0.90     1.280
   3  -6   4   57.85    2.10     0.874
  -3   6  -4   60.72    2.01     0.874
   4  -6   4    7.70    1.46     1.040
  -4   6  -4    8.53    1.66     1.041
   5  -6   4   -0.32    2.39     1.590
  -5   6  -4   -0.95    2.22     1.587
   6  -6   4   -1.42    3.32     1.184
  -6   6  -4    2.37    3.32     1.185
  -8  -7   4    2.36    3.48     1.243
   8   7  -4    3.47    2.48     1.240
  -7  -7   4   -3.45    3.45     1.328
   7   7  -4    0.27    2.39     1.326
  -6  -7   4   -1.73    1.73     1.328
   6   7  -4   -0.79    1.72     1.323
  -5  -7   4   16.09    1.16     0.969
   5   7  -4   14.25    1.26     0.969
  -4  -7   4    7.61    0.75     1.071
   4   7  -4    9.44    0.75     1.072
  -3  -7   4    1.57    0.63     1.572
   3   7  -4    1.72    0.94     1.565
  -2  -7   4    0.82    0.47     1.165
   2   7  -4    0.59    0.59     1.180
  -1  -7   4   44.65    1.05     0.879
   1   7  -4   46.58    1.05     0.879
   0  -7   4   96.17    1.84     0.876
   0   7  -4  100.96    1.93     0.876
   1  -7   4    0.75    0.62     1.242
  -1   7  -4    1.36    0.74     1.239
   2  -7   4  144.63    3.59     0.898
  -2   7  -4  151.55    2.96     0.898
   3  -7   4   28.17    1.64     0.909
  -3   7  -4   31.91    1.64     0.909
   4  -7   4   30.53    1.80     0.898
  -4   7  -4   29.38    1.98     0.899
   5  -7   4   11.87    2.29     1.089
  -5   7  -4    4.14    2.83     1.089
  -8  -8   4    0.08    0.40     0.139
   8   8  -4   -0.05    0.23     0.126
  -7  -8   4    0.81    2.65     1.154
   7   8  -4   -0.81    1.85     1.155
  -6  -8   4   -0.23    1.64     1.169
   6   8  -4   -0.24    1.30     1.183
  -5  -8   4    3.92    1.23     1.226
   5   8  -4    2.70    1.10     1.227
  -4  -8   4   12.84    0.77     0.965
   4   8  -4   13.70    0.77     0.965
  -3  -8   4    0.65    0.43     1.081
   3   8  -4    0.33    0.66     1.101
  -2  -8   4    3.02    0.61     1.210
   2   8  -4    3.63    0.73     1.211
  -1  -8   4    4.82    0.55     1.095
   1   8  -4    5.69    0.55     1.095
   0  -8   4    4.87    0.54     1.083
   0   8  -4    4.33    0.65     1.083
   1  -8   4   40.60    1.24     0.883
  -1   8  -4   42.27    1.24     0.882
   2  -8   4   26.41    1.37     0.911
  -2   8  -4   27.34    1.18     0.912
   3  -8   4   39.32    1.79     0.896
  -3   8  -4   39.67    1.79     0.895
   4  -8   4   16.01    1.65     0.970
  -4   8  -4   13.09    1.94     0.970
   5  -8   4    3.10    1.86     1.241
  -5   8  -4    3.71    2.60     1.238
  -8  -9   4    2.19    5.03     1.290
   8   9  -4    2.45    2.32     1.291
  -7  -9   4    5.06    2.47     1.076
   7   9  -4    8.38    2.26     1.075
  -6  -9   4    0.04    0.15     0.129
   6   9  -4   -0.04    0.12     0.125
  -5  -9   4    7.20    1.20     1.091
   5   9  -4    8.40    1.20     1.091
  -4  -9   4    1.67    0.83     1.193
   4   9  -4    3.58    0.83     1.193
  -3  -9   4   46.05    1.14     0.881
   3   9  -4   47.46    1.32     0.881
  -2  -9   4    0.55    0.55     1.379
   2   9  -4    0.00    0.67     1.347
  -1  -9   4    2.18    0.51     1.283
   1   9  -4    1.03    0.51     1.285
   0  -9   4   20.40    0.85     0.944
   0   9  -4   18.23    0.85     0.944
   1  -9   4    0.69    0.82     1.370
  -1   9  -4    0.55    0.83     1.377
   2  -9   4  173.93    3.69     0.900
  -2   9  -4  174.38    3.42     0.900
   3  -9   4    4.47    1.20     1.090
  -3   9  -4    2.51    0.87     1.090
   4  -9   4   67.56    2.54     0.876
  -4   9  -4   61.89    3.16     0.877
   5  -9   4   -1.91    1.91     1.194
  -5   9  -4   -1.31    2.25     1.187
  -8 -10   4    6.63    3.15     1.086
   8  10  -4    3.26    2.83     1.087
  -7 -10   4   33.41    3.79     0.903
   7  10  -4   32.41    2.71     0.903
  -6 -10   4    1.83    1.69     1.407
   6  10  -4    0.70    1.97     1.409
  -5 -10   4   25.76    1.45     0.907
   5  10  -4   24.23    1.45     0.907
  -4 -10   4    6.74    0.86     1.070
   4  10  -4    7.70    0.86     1.069
  -3 -10   4  128.76    2.24     0.898
   3  10  -4  133.33    2.51     0.898
  -2 -10   4    6.34    0.55     1.093
   2  10  -4    6.34    0.76     1.093
  -1 -10   4  249.70    4.05     0.901
   1  10  -4  249.14    4.23     0.901
   0 -10   4   14.67    0.77     0.965
   0  10  -4   14.39    0.97     0.966
   1 -10   4   60.38    1.93     0.875
  -1  10  -4   60.39    1.58     0.875
   2 -10   4   16.48    1.32     0.942
  -2  10  -4   18.17    1.13     0.941
   3 -10   4   77.62    2.44     0.873
  -3  10  -4   74.30    2.18     0.873
   4 -10   4    2.14    1.85     1.425
  -4  10  -4   -0.29    1.86     1.428
   5 -10   4    3.06    2.69     1.223
  -5  10  -4    5.02    2.57     1.224
  -8 -11   4   23.92    3.60     0.924
   8  11  -4   24.47    2.77     0.924
  -7 -11   4    2.96    2.83     1.231
   7  11  -4    4.44    2.47     1.233
  -6 -11   4    9.94    1.62     1.081
   6  11  -4    8.12    1.52     1.082
  -5 -11   4    6.63    1.09     1.087
   5  11  -4    5.02    1.09     1.090
  -4 -11   4    0.13    1.04     1.296
   4  11  -4    1.93    0.90     1.283
  -3 -11   4    1.12    0.87     1.243
   3  11  -4    2.99    0.75     1.244
  -2 -11   4   16.42    0.80     0.995
   2  11  -4   16.23    0.80     0.996
  -1 -11   4   -0.14    0.19     0.471
   1  11  -4   -0.09    0.19     0.463
   0 -11   4  124.54    2.33     0.898
   0  11  -4  127.23    2.78     0.898
   1 -11   4   37.54    1.43     0.892
  -1  11  -4   38.09    1.52     0.892
   2 -11   4    5.24    1.05     1.048
  -2  11  -4    4.09    0.94     1.048
   3 -11   4   21.65    1.56     0.918
  -3  11  -4   22.57    1.38     0.918
   4 -11   4    4.83    1.61     1.150
  -4  11  -4    2.08    1.61     1.153
   5 -11   4    9.49    2.51     1.091
  -5  11  -4   15.82    3.27     1.091
  -8 -12   4    0.52    2.98     1.296
   8  12  -4    3.11    3.24     1.295
  -7 -12   4    7.54    2.22     1.236
   7  12  -4    2.09    2.22     1.232
  -6 -12   4   27.94    2.24     0.931
   6  12  -4   24.40    1.96     0.931
  -5 -12   4    0.00    1.30     1.297
   5  12  -4    0.00    1.17     1.300
  -4 -12   4   73.77    2.18     0.872
   4  12  -4   80.75    2.01     0.872
  -3 -12   4    1.01    0.88     1.261
   3  12  -4    2.78    0.89     1.266
  -2 -12   4  185.91    3.69     0.900
   2  12  -4  191.39    3.42     0.900
  -1 -12   4    6.63    0.55     1.105
   1  12  -4    7.07    0.77     1.105
   0 -12   4   57.26    1.32     0.882
   0  12  -4   51.35    1.77     0.882
   1 -12   4    6.38    0.97     1.081
  -1  12  -4    3.79    0.87     1.082
   2 -12   4    4.83    1.10     1.097
  -2  12  -4    5.26    0.99     1.096
   3 -12   4    1.11    0.99     1.232
  -3  12  -4    1.60    1.23     1.233
   4 -12   4    4.82    1.57     1.206
  -4  12  -4    2.41    1.69     1.206
   5 -12   4    4.69    1.85     1.091
  -5  12  -4    2.19    2.84     1.092
  -8 -13   4   32.43    3.73     0.911
   8  13  -4   31.79    3.28     0.911
  -7 -13   4    3.82    2.17     1.275
   7  13  -4    6.36    2.67     1.272
  -6 -13   4   13.81    1.69     0.993
   6  13  -4   12.62    1.59     0.994
  -5 -13   4    1.57    1.18     1.306
   5  13  -4    0.92    1.44     1.309
  -4 -13   4    0.99    1.11     1.239
   4  13  -4    1.73    0.87     1.239
  -3 -13   4    3.20    0.99     1.232
   3  13  -4    2.97    0.74     1.235
  -2 -13   4   11.84    1.07     0.970
   2  13  -4   14.08    0.87     0.971
  -1 -13   4   86.92    2.01     0.872
   1  13  -4   86.72    1.92     0.872
   0 -13   4   31.25    1.00     0.908
   0  13  -4   32.33    1.36     0.908
   1 -13   4    0.69    0.69     1.154
  -1  13  -4    1.97    0.93     1.160
   2 -13   4   14.69    1.14     0.954
  -2  13  -4   16.12    1.14     0.954
   3 -13   4    0.74    1.11     1.230
  -3  13  -4    2.09    1.23     1.232
   4 -13   4    2.62    1.96     1.637
  -4  13  -4    0.32    1.77     1.608
   5 -13   4   13.61    2.13     1.016
  -5  13  -4   11.28    2.54     1.017
  -7 -14   4    1.36    2.04     1.359
   7  14  -4   -2.86    3.14     1.364
  -6 -14   4    0.29    1.89     1.450
   6  14  -4    1.16    1.89     1.455
  -5 -14   4   -0.80    1.14     1.144
   5  14  -4   -0.81    0.92     1.152
  -4 -14   4   12.57    1.08     0.982
   4  14  -4   15.13    1.18     0.982
  -3 -14   4    0.05    0.38     0.542
   3  14  -4    0.00    0.39     0.555
  -2 -14   4   35.71    1.52     0.893
   2  14  -4   36.97    1.25     0.893
  -1 -14   4   14.26    0.78     0.970
   1  14  -4   13.87    0.87     0.970
   0 -14   4    4.55    0.70     1.167
   0  14  -4    2.34    0.93     1.168
   1 -14   4    3.98    1.12     1.245
  -1  14  -4    1.62    1.00     1.247
   2 -14   4    1.43    1.17     1.296
  -2  14  -4    1.81    1.04     1.295
   3 -14   4   24.31    1.48     0.924
  -3  14  -4   22.91    1.48     0.924
   4 -14   4    0.13    1.53     1.274
  -4  14  -4    0.76    1.39     1.267
   5 -14   4   -0.38    2.69     1.283
  -5  14  -4   -1.16    2.05     1.284
  -7 -15   4   15.49    2.02     1.061
   7  15  -4   12.33    2.76     1.063
  -6 -15   4   -0.77    0.77     0.589
   6  15  -4    1.06    0.82     0.588
  -5 -15   4    9.80    1.43     1.021
   5  15  -4   14.89    1.33     1.020
  -4 -15   4    0.24    1.09     1.210
   4  15  -4    1.07    0.95     1.188
  -3 -15   4    0.02    0.16     0.234
   3  15  -4   -0.17    0.17     0.250
  -2 -15   4    2.51    1.03     1.142
   2  15  -4    5.48    0.91     1.142
  -1 -15   4   17.16    1.23     0.948
   1  15  -4   20.40    1.04     0.949
   0 -15   4   17.35    0.96     0.958
   0  15  -4   13.80    1.25     0.958
   1 -15   4    3.31    1.03     1.141
  -1  15  -4    3.77    0.91     1.141
   2 -15   4   14.21    1.27     0.980
  -2  15  -4   13.13    1.18     0.980
   3 -15   4   13.38    1.39     0.991
  -3  15  -4   12.29    1.29     0.991
   4 -15   4    1.13    1.63     1.253
  -4  15  -4    1.25    1.50     1.252
   5 -15   4   23.71    2.21     0.960
  -5  15  -4   17.36    2.59     0.959
  -7 -16   4    0.39    2.37     1.317
   7  16  -4    3.69    2.77     1.318
  -6 -16   4   16.22    1.98     0.989
   6  16  -4   16.33    1.98     0.990
  -5 -16   4    5.47    1.42     1.093
   5  16  -4    8.31    1.31     1.094
  -4 -16   4   30.44    1.70     0.895
   4  16  -4   36.12    1.52     0.896
  -3 -16   4   -0.20    0.20     0.245
   3  16  -4   -0.17    0.17     0.240
  -2 -16   4   42.07    1.76     0.882
   2  16  -4   49.04    1.41     0.882
  -1 -16   4    8.54    1.16     1.054
   1  16  -4   11.18    0.95     1.055
   0 -16   4  217.96    3.96     0.900
   0  16  -4  231.47    5.40     0.900
   1 -16   4    2.59    1.04     1.295
  -1  16  -4   -0.13    1.04     1.299
   2 -16   4   37.17    1.79     0.896
  -2  16  -4   31.00    1.61     0.896
   3 -16   4   -0.47    1.13     0.943
  -3  16  -4   -0.47    0.93     0.935
   4 -16   4    1.50    1.87     1.247
  -4  16  -4    1.50    1.75     1.249
   5 -16   4    0.25    3.13     1.252
  -5  16  -4    0.76    2.27     1.261
  -7 -17   4    3.93    2.16     1.269
   7  17  -4    1.90    2.66     1.267
  -6 -17   4    0.46    1.22     0.764
   6  17  -4   -0.38    0.84     0.760
  -5 -17   4    0.00    1.36     1.239
   5  17  -4    1.85    1.24     1.235
  -4 -17   4   15.15    1.25     0.965
   4  17  -4   16.30    1.35     0.965
  -3 -17   4   28.18    1.47     0.921
   3  17  -4   26.24    1.38     0.921
  -2 -17   4   20.59    1.37     0.911
   2  17  -4   25.98    1.18     0.912
  -1 -17   4   14.85    1.39     0.990
   1  17  -4   17.51    1.09     0.989
   0 -17   4   55.22    2.01     0.875
   0  17  -4   59.27    2.10     0.875
   1 -17   4  151.41    3.95     0.898
  -1  17  -4  147.18    3.41     0.898
   2 -17   4    3.20    1.39     1.392
  -2  17  -4    1.95    1.39     1.391
   3 -17   4   21.08    1.88     0.990
  -3  17  -4   14.75    1.49     0.990
   4 -17   4    7.92    1.95     1.085
  -4  17  -4    5.20    1.41     1.084
   5 -17   4    0.00    2.53     1.267
  -5  17  -4    1.50    2.63     1.252
  -7 -18   4   10.85    2.28     1.085
   7  18  -4    7.49    2.50     1.085
  -6 -18   4   -0.51    1.02     0.732
   6  18  -4   -0.38    0.90     0.752
  -5 -18   4   18.83    1.74     0.966
   5  18  -4   17.87    1.35     0.966
  -4 -18   4   -0.50    1.25     1.251
   4  18  -4    0.37    0.99     1.242
  -3 -18   4   38.00    1.99     0.905
   3  18  -4   39.11    1.45     0.905
  -2 -18   4    7.11    1.00     1.002
   2  18  -4    9.43    1.00     1.003
  -1 -18   4   63.94    2.10     0.874
   1  18  -4   64.75    1.92     0.874
   0 -18   4   36.74    1.59     0.883
   0  18  -4   31.89    1.59     0.883
   1 -18   4    2.33    0.98     1.224
  -1  18  -4    1.59    1.10     1.224
   2 -18   4   16.27    1.57     0.980
  -2  18  -4   13.92    1.47     0.981
   3 -18   4    8.58    1.52     1.087
  -3  18  -4    7.60    1.52     1.086
   4 -18   4    0.00    2.22     1.232
  -4  18  -4    2.71    1.60     1.232
   5 -18   4    0.56    3.80     1.408
  -5  18  -4    0.69    2.63     1.382
  -7 -19   4   -0.33    1.00     0.553
   7  19  -4   -0.90    1.12     0.562
  -6 -19   4    2.86    1.87     1.243
   6  19  -4    3.36    1.87     1.244
  -5 -19   4    2.78    1.64     1.262
   5  19  -4    3.78    1.51     1.262
  -4 -19   4    3.21    1.49     1.145
   4  19  -4    4.01    1.15     1.146
  -3 -19   4    0.51    1.27     1.266
   3  19  -4    0.88    1.13     1.259
  -2 -19   4   -0.84    0.84     0.929
   2  19  -4    0.18    0.82     0.910
  -1 -19   4    1.87    1.29     1.439
   1  19  -4    1.00    1.29     1.431
   0 -19   4    1.23    1.36     1.365
   0  19  -4    0.95    1.23     1.362
   1 -19   4  140.80    3.59     0.898
  -1  19  -4  140.54    3.14     0.898
   2 -19   4   13.40    1.51     1.081
  -2  19  -4   11.12    1.30     1.080
   3 -19   4    4.89    1.59     1.223
  -3  19  -4    5.02    1.71     1.225
   4 -19   4    2.51    2.26     1.253
  -4  19  -4    1.00    1.76     1.254
  -7 -20   4    5.14    2.27     1.196
   7  20  -4   13.40    3.47     1.197
  -6 -20   4   -1.25    1.75     1.252
   6  20  -4    0.75    1.76     1.257
  -5 -20   4    7.64    1.75     1.091
   5  20  -4    9.49    1.53     1.090
  -4 -20   4   15.08    1.74     0.967
   4  20  -4   18.98    1.45     0.968
  -3 -20   4   19.56    1.56     0.918
   3  20  -4   21.14    1.29     0.919
  -2 -20   4   -0.88    0.88     1.097
   2  20  -4   -0.55    0.77     1.097
  -1 -20   4    0.89    1.27     1.269
   1  20  -4    4.96    1.15     1.272
   0 -20   4    4.04    1.27     1.156
   0  20  -4    3.58    1.04     1.156
   1 -20   4   -1.42    1.73     1.576
  -1  20  -4    0.32    1.76     1.601
   2 -20   4    3.73    1.24     1.129
  -2  20  -4    3.05    1.36     1.130
   3 -20   4    4.57    2.09     1.307
  -3  20  -4   -0.39    1.44     1.312
   4 -20   4    4.15    2.46     1.297
  -4  20  -4    3.12    1.69     1.300
  -7 -21   4    0.63    3.02     1.258
   7  21  -4    0.63    2.14     1.257
  -6 -21   4    0.46    2.28     1.520
   6  21  -4    0.30    1.97     1.513
  -5 -21   4    1.49    1.74     1.246
   5  21  -4    1.62    1.62     1.243
  -4 -21   4    1.99    1.49     1.242
   4  21  -4    2.24    1.37     1.244
  -3 -21   4    8.45    1.32     1.018
   3  21  -4   11.00    1.22     1.018
  -2 -21   4   14.47    1.51     1.005
   2  21  -4   17.40    1.21     1.006
  -1 -21   4    1.04    1.30     1.303
   1  21  -4    2.08    1.30     1.303
   0 -21   4   27.68    1.66     0.920
   0  21  -4   25.29    1.75     0.920
   1 -21   4   13.86    1.36     0.969
  -1  21  -4   14.15    1.45     0.969
   2 -21   4    7.16    1.76     1.101
  -2  21  -4    4.96    1.21     1.101
   3 -21   4    0.30    0.25     0.169
  -3  21  -4   -0.20    0.20     0.171
   4 -21   4   28.13    3.09     0.967
  -4  21  -4   19.64    1.74     0.968
  -6 -22   4    2.01    2.14     1.257
   6  22  -4    1.75    1.63     1.252
  -5 -22   4    1.91    1.79     1.193
   5  22  -4    5.25    1.67     1.192
  -4 -22   4    0.88    2.00     1.251
   4  22  -4    1.88    1.25     1.252
  -3 -22   4   17.47    1.78     0.987
   3  22  -4   15.69    1.28     0.987
  -2 -22   4   -0.21    0.95     1.060
   2  22  -4   -0.32    1.16     1.052
  -1 -22   4   65.07    2.19     0.877
   1  22  -4   64.91    2.46     0.877
   0 -22   4   -0.63    0.87     0.788
   0  22  -4    2.32    0.97     0.966
   1 -22   4   29.16    1.81     0.903
  -1  22  -4   31.24    1.72     0.903
   2 -22   4   -1.72    1.72     1.326
  -2  22  -4    1.46    1.33     1.328
   3 -22   4    0.65    2.72     1.295
  -3  22  -4    5.57    1.81     1.295
   4 -22   4    7.94    4.22     1.240
  -4  22  -4    3.10    1.74     1.241
  -6 -23   4   -0.13    2.11     1.316
   6  23  -4    1.97    1.97     1.310
  -5 -23   4    0.14    2.06     1.371
   5  23  -4   -0.69    1.92     1.373
  -4 -23   4    4.38    1.90     1.185
   4  23  -4    3.55    1.42     1.185
  -3 -23   4    0.28    0.57     0.406
   3  23  -4    0.16    0.45     0.407
  -2 -23   4    1.38    1.38     1.252
   2  23  -4    3.88    1.50     1.252
  -1 -23   4    4.05    1.31     1.095
   1  23  -4    3.28    1.42     1.094
   0 -23   4   13.72    1.51     1.009
   0  23  -4   10.69    1.31     1.009
   1 -23   4   46.66    2.12     0.882
  -1  23  -4   48.49    1.85     0.882
   2 -23   4   17.14    2.13     0.968
  -2  23  -4   18.76    1.64     0.967
   3 -23   4    5.54    2.77     1.458
  -3  23  -4    0.00    2.03     1.452
   4 -23   4    2.33    4.65     1.224
  -4  23  -4    2.08    2.08     1.223
  -6 -24   4   -0.16    0.33     0.163
   6  24  -4    0.13    0.22     0.139
  -5 -24   4    0.63    1.78     1.269
   5  24  -4    0.13    1.52     1.263
  -4 -24   4   29.96    2.45     0.908
   4  24  -4   36.67    1.82     0.908
  -3 -24   4    0.52    1.68     1.289
   3  24  -4    2.32    1.55     1.290
  -2 -24   4   18.57    1.52     0.952
   2  24  -4   23.15    1.62     0.953
  -1 -24   4    2.98    1.32     1.103
   1  24  -4    3.74    1.43     1.101
   0 -24   4   78.07    2.70     0.871
   0  24  -4   77.05    2.61     0.872
   1 -24   4   12.70    1.62     1.016
  -1  24  -4   15.94    1.52     1.015
   2 -24   4   -2.33    2.33     1.167
  -2  24  -4   -0.35    1.40     1.168
   3 -24   4    1.92    2.61     1.371
  -3  24  -4   -0.41    1.92     1.373
   4 -24   4   -0.31    4.31     1.538
  -4  24  -4    0.31    2.45     1.534
  -6 -25   4    2.21    1.98     1.166
   6  25  -4   -1.90    1.90     1.190
  -5 -25   4    5.32    2.22     1.109
   5  25  -4    4.55    1.55     1.110
  -4 -25   4   -0.37    0.42     0.234
   4  25  -4    0.00    0.30     0.251
  -3 -25   4   19.17    1.91     0.954
   3  25  -4   17.84    1.62     0.954
  -2 -25   4    6.37    1.40     1.080
   2  25  -4    5.83    1.51     1.080
  -1 -25   4    1.39    1.26     1.262
   1  25  -4    4.67    1.64     1.262
   0 -25   4   17.29    1.54     0.966
   0  25  -4   17.57    1.64     0.965
   1 -25   4    3.50    2.19     1.458
  -1  25  -4   -0.15    1.74     1.449
   2 -25   4   12.36    2.41     1.094
  -2  25  -4    6.35    1.64     1.094
   3 -25   4    4.27    2.51     1.255
  -3  25  -4    4.28    1.76     1.258
  -6 -26   4    0.50    1.05     0.551
   6  26  -4    0.06    1.00     0.558
  -5 -26   4   15.99    2.16     0.981
   5  26  -4   16.57    1.76     0.980
  -4 -26   4    0.89    2.69     1.279
   4  26  -4    1.67    2.05     1.282
  -3 -26   4   15.55    1.70     0.943
   3  26  -4   19.61    1.70     0.943
  -2 -26   4   17.25    1.76     0.980
   2  26  -4   19.62    1.86     0.981
  -1 -26   4    0.00    0.35     0.272
   1  26  -4   -0.25    0.30     0.252
   0 -26   4   52.02    2.21     0.883
   0  26  -4   55.05    2.39     0.884
   1 -26   4    1.43    1.67     1.192
  -1  26  -4    3.58    1.55     1.192
   2 -26   4    2.47    2.73     1.299
  -2  26  -4    5.43    1.81     1.293
   3 -26   4    0.47    4.20     1.556
  -3  26  -4    0.94    2.34     1.558
  -5 -27   4    8.55    2.43     1.155
   5  27  -4    7.17    1.96     1.156
  -4 -27   4    0.06    1.42     0.644
   4  27  -4   -0.34    1.03     0.683
  -3 -27   4   14.05    1.68     0.989
   3  27  -4   14.65    1.68     0.990
  -2 -27   4   -0.52    1.68     1.289
   2  27  -4    0.26    2.32     1.288
  -1 -27   4   15.22    1.64     0.963
   1  27  -4   17.24    1.83     0.963
   0 -27   4    2.39    1.67     1.193
   0  27  -4    4.18    1.43     1.194
   1 -27   4   13.68    1.74     1.021
  -1  27  -4   12.35    1.63     1.021
   2 -27   4    0.77    2.61     1.535
  -2  27  -4   -0.15    2.40     1.504
   3 -27   4   27.87    2.85     0.982
  -3  27  -4   22.49    2.06     0.982
  -5 -28   4    0.50    1.42     0.834
   5  28  -4    2.00    1.50     0.833
  -4 -28   4   21.29    2.86     0.955
   4  28  -4   23.10    2.10     0.954
  -3 -28   4   -0.77    1.73     0.964
   3  28  -4   -1.44    2.30     0.958
  -2 -28   4   29.64    2.29     0.918
   2  28  -4   30.48    2.11     0.918
  -1 -28   4   10.93    1.84     1.082
   1  28  -4   10.38    1.95     1.082
   0 -28   4    2.78    1.77     1.264
   0  28  -4    0.88    1.64     1.262
   1 -28   4    0.23    0.45     0.324
  -1  28  -4   -0.42    0.45     0.320
   2 -28   4    3.89    2.88     1.253
  -2  28  -4    3.37    1.87     1.248
   3 -28   4    0.00    3.40     1.133
  -3  28  -4    2.41    1.95     1.148
  -5 -29   4    0.59    1.25     0.656
   5  29  -4   -0.19    0.94     0.629
  -4 -29   4   -1.91    2.86     1.192
   4  29  -4   -0.47    1.78     1.188
  -3 -29   4   -0.20    0.69     0.408
   3  29  -4    0.36    0.81     0.403
  -2 -29   4    2.22    1.97     1.235
   2  29  -4    4.44    1.97     1.233
  -1 -29   4    0.59    1.90     1.464
   1  29  -4   -2.33    2.33     1.458
   0 -29   4   16.02    1.82     0.959
   0  29  -4   16.32    1.73     0.960
   1 -29   4    7.10    1.94     1.075
  -1  29  -4    8.82    1.61     1.076
   2 -29   4    0.89    2.55     1.110
  -2  29  -4   -0.11    1.69     1.129
  -5 -30   4   -2.61    2.87     1.306
   5  30  -4    0.00    2.22     1.307
  -4 -30   4    3.27    2.72     1.090
   4  30  -4    3.16    1.85     1.091
  -3 -30   4    1.95    2.49     1.084
   3  30  -4    4.01    2.06     1.084
  -2 -30   4   -1.74    2.69     1.580
   2  30  -4   -0.78    2.34     1.561
  -1 -30   4   -0.55    1.92     1.373
   1  30  -4    0.96    2.47     1.373
   0 -30   4    0.15    0.55     0.364
   0  30  -4   -0.66    0.66     0.390
   1 -30   4   -0.47    0.47     0.311
  -1  30  -4   -0.26    0.50     0.294
   2 -30   4    7.87    2.71     1.290
  -2  30  -4    1.03    2.32     1.289
  -4 -31   4   -1.29    2.06     0.761
   4  31  -4   -0.39    1.32     0.778
  -3 -31   4    0.09    2.20     0.881
   3  31  -4    1.11    1.80     0.858
  -2 -31   4    0.11    1.07     0.536
   2  31  -4   -0.05    0.83     0.520
  -1 -31   4   10.71    2.12     1.060
   1  31  -4   12.94    2.23     1.061
   0 -31   4    5.02    2.01     1.255
   0  31  -4    1.26    2.13     1.255
   1 -31   4   10.93    2.31     1.051
  -1  31  -4   11.15    1.79     1.052
   2 -31   4   -2.20    2.73     1.049
  -2  31  -4   -0.52    1.57     1.047
  -4 -32   4    4.50    3.29     1.096
   4  32  -4   10.88    3.63     1.099
  -3 -32   4   16.25    3.25     1.016
   3  32  -4   19.89    2.74     1.015
  -2 -32   4   21.54    2.23     0.970
   2  32  -4   24.92    2.13     0.970
  -1 -32   4    4.41    2.33     1.297
   1  32  -4    4.93    2.34     1.298
   0 -32   4    7.39    2.05     1.027
   0  32  -4   13.66    2.26     1.027
   1 -32   4    9.48    3.12     1.298
  -1  32  -4    2.08    2.21     1.299
  -3 -33   4    1.87    3.04     1.170
   3  33  -4    0.11    2.29     1.146
  -2 -33   4   11.50    2.16     1.027
   2  33  -4   10.59    2.06     1.028
  -1 -33   4    3.25    2.13     1.251
   1  33  -4   -0.77    2.55     1.275
   0 -33   4    2.00    2.26     1.253
   0  33  -4    4.88    2.25     1.251
   1 -33   4   -2.21    3.91     1.303
  -1  33  -4    1.30    2.73     1.302
  -3 -34   4    4.54    3.35     1.082
   3  34  -4   12.98    2.81     1.082
  -2 -34   4   -1.71    2.57     1.223
   2  34  -4   -2.19    2.43     1.215
  -1 -34   4    8.87    2.52     1.095
   1  34  -4    4.16    1.86     1.094
   0 -34   4    0.46    2.09     1.161
   0  34  -4   -0.11    2.17     1.143
  -1 -35   4   -0.79    2.25     1.125
   1  35  -4    1.31    2.08     1.092
  -8  -1   5    4.93    3.62     1.096
   8   1  -5    3.94    2.74     1.094
  -7  -1   5    0.27    0.94     0.393
   7   1  -5   -0.08    1.17     0.417
  -6  -1   5    3.39    1.45     1.212
   6   1  -5    2.79    1.33     1.212
  -5  -1   5    0.15    0.40     0.501
   5   1  -5   -0.54    0.54     0.538
  -4  -1   5   14.71    1.05     0.955
   4   1  -5   16.33    1.05     0.955
  -3  -1   5   46.06    1.33     0.884
   3   1  -5   47.54    1.33     0.884
  -2  -1   5   23.19    0.92     0.917
   2   1  -5   23.57    0.92     0.917
  -1  -1   5   16.46    0.87     0.963
   1   1  -5   19.64    1.06     0.963
   0  -1   5   35.35    1.59     0.884
   0   1  -5   35.88    1.50     0.884
   1  -1   5   17.22    1.26     0.967
  -1   1  -5   17.04    1.16     0.968
   2  -1   5    1.86    1.12     1.243
  -2   1  -5    0.99    1.24     1.239
   3  -1   5    2.39    1.51     1.259
  -3   1  -5    1.89    1.38     1.257
   4  -1   5   -0.35    2.00     1.175
  -4   1  -5    0.67    1.56     1.117
   5  -1   5   -0.87    2.12     1.250
  -5   1  -5    0.75    2.50     1.249
  -8  -2   5    2.53    3.41     1.263
   8   2  -5    1.89    6.19     1.263
  -7  -2   5    5.39    2.81     1.079
   7   2  -5    8.20    2.37     1.080
  -6  -2   5   12.86    1.77     0.981
   6   2  -5   14.43    1.67     0.982
  -5  -2   5    2.66    0.89     1.269
   5   2  -5    2.66    1.14     1.269
  -4  -2   5   51.51    1.59     0.882
   4   2  -5   51.07    1.59     0.882
  -3  -2   5    4.70    0.89     1.269
   3   2  -5    4.94    0.89     1.268
  -2  -2   5    2.04    0.64     1.275
   2   2  -5    1.15    0.77     1.278
  -1  -2   5    6.07    0.65     1.084
   1   2  -5    9.33    0.98     1.084
   0  -2   5    0.00    0.79     1.128
   0   2  -5   -0.90    0.90     1.122
   1  -2   5  110.69    2.72     0.879
  -1   2  -5  107.40    2.72     0.878
   2  -2   5    3.33    1.11     1.110
  -2   2  -5    1.55    1.00     1.110
   3  -2   5   12.04    1.57     1.047
  -3   2  -5   13.19    1.67     1.047
   4  -2   5    0.65    2.33     1.292
  -4   2  -5    0.39    1.93     1.289
   5  -2   5    2.45    2.01     1.115
  -5   2  -5    5.24    2.12     1.116
  -8  -3   5   12.89    3.59     0.969
   8   3  -5   14.93    2.91     0.969
  -7  -3   5    2.50    3.07     1.138
   7   3  -5    2.05    2.96     1.139
  -6  -3   5    2.69    1.66     1.281
   6   3  -5    1.16    1.54     1.285
  -5  -3   5    0.00    0.99     1.239
   5   3  -5    0.87    0.99     1.241
  -4  -3   5   22.24    1.22     0.939
   4   3  -5   21.67    1.22     0.938
  -3  -3   5  105.59    2.32     0.893
   3   3  -5  106.63    2.14     0.892
  -2  -3   5    0.03    0.21     0.343
   2   3  -5    0.11    0.19     0.370
  -1  -3   5    0.23    0.69     1.146
   1   3  -5    0.23    0.69     1.155
   0  -3   5    0.00    0.11     0.184
   0   3  -5    0.07    0.13     0.179
   1  -3   5    1.76    1.01     1.260
  -1   3  -5   -0.63    1.13     1.256
   2  -3   5    1.16    1.31     1.456
  -2   3  -5    1.02    1.31     1.456
   3  -3   5   -0.72    1.08     1.197
  -3   3  -5   -1.31    1.67     1.191
   4  -3   5    0.91    1.36     0.907
  -4   3  -5   -0.71    1.33     0.889
   5  -3   5    1.17    2.34     1.299
  -5   3  -5    2.20    2.33     1.294
  -8  -4   5   -0.85    3.52     1.214
   8   4  -5    1.59    3.91     1.223
  -7  -4   5   17.89    3.19     0.967
   7   4  -5   21.56    3.38     0.967
  -6  -4   5    1.17    1.43     1.298
   6   4  -5    2.20    1.69     1.296
  -5  -4   5   48.01    1.59     0.883
   5   4  -5   52.09    1.77     0.883
  -4  -4   5    5.38    0.77     1.099
   4   4  -5    4.28    0.77     1.099
  -3  -4   5    2.17    0.77     1.278
   3   4  -5    2.82    0.77     1.280
  -2  -4   5   20.54    0.83     0.921
   2   4  -5   20.99    1.01     0.921
  -1  -4   5    3.09    0.87     1.237
   1   4  -5    2.48    0.87     1.240
   0  -4   5   48.23    1.50     0.883
   0   4  -5   47.78    1.33     0.883
   1  -4   5    0.33    0.66     0.822
  -1   4  -5    0.08    0.82     0.818
   2  -4   5   82.60    2.18     0.873
  -2   4  -5   84.87    2.62     0.873
   3  -4   5    2.33    1.29     1.293
  -3   4  -5    2.72    1.68     1.293
   4  -4   5    3.57    1.91     1.274
  -4   4  -5    1.02    1.91     1.273
   5  -4   5   -1.16    3.76     1.447
  -5   4  -5    3.32    2.75     1.445
  -8  -5   5    2.77    3.93     1.456
   8   5  -5    0.00    3.05     1.451
  -7  -5   5    0.00    3.94     1.516
   7   5  -5    0.00    3.01     1.505
  -6  -5   5    1.63    1.38     1.255
   6   5  -5    1.13    1.51     1.255
  -5  -5   5    2.67    0.89     1.272
   5   5  -5    1.78    1.40     1.273
  -4  -5   5    9.17    0.85     1.067
   4   5  -5    8.64    1.07     1.067
  -3  -5   5   -0.14    0.95     1.352
   3   5  -5    0.41    0.81     1.352
  -2  -5   5    3.10    0.72     1.193
   2   5  -5    2.99    0.84     1.197
  -1  -5   5    0.16    0.31     0.518
   1   5  -5    0.36    0.36     0.515
   0  -5   5   10.08    0.89     0.989
   0   5  -5   13.55    0.89     0.989
   1  -5   5   24.49    1.18     0.907
  -1   5  -5   24.40    1.45     0.907
   2  -5   5   42.94    1.50     0.884
  -2   5  -5   43.21    1.86     0.884
   3  -5   5    1.58    0.88     0.875
  -3   5  -5   -0.52    1.12     0.864
   4  -5   5    9.38    1.44     1.031
  -4   5  -5   10.53    1.96     1.032
   5  -5   5    0.10    0.30     0.129
  -5   5  -5   -0.12    0.36     0.138
  -8  -6   5   -4.15    4.84     0.987
   8   6  -5   -2.83    3.64     1.010
  -7  -6   5   -0.26    3.23     1.294
   7   6  -5    0.13    3.24     1.296
  -6  -6   5   -0.49    0.62     0.616
   6   6  -5    0.00    0.66     0.598
  -5  -6   5   -0.55    1.23     1.365
   5   6  -5    1.80    1.39     1.386
  -4  -6   5    3.17    0.85     1.221
   4   6  -5    2.80    0.85     1.217
  -3  -6   5   10.01    0.95     1.054
   3   6  -5   11.90    0.95     1.053
  -2  -6   5    1.14    0.69     1.144
   2   6  -5    1.26    0.80     1.146
  -1  -6   5   17.64    0.96     0.959
   1   6  -5   15.91    1.05     0.959
   0  -6   5   19.29    0.95     0.950
   0   6  -5   20.72    1.14     0.951
   1  -6   5   -0.49    0.57     0.811
  -1   6  -5   -0.10    0.77     0.960
   2  -6   5   13.58    1.16     0.963
  -2   6  -5   12.61    1.25     0.963
   3  -6   5    1.39    1.14     1.267
  -3   6  -5    2.15    1.90     1.264
   4  -6   5    0.56    2.23     1.394
  -4   6  -5    0.14    2.47     1.371
   5  -6   5    1.51    2.78     1.158
  -5   6  -5    1.28    2.21     1.165
  -8  -7   5    4.22    6.98     1.624
   8   7  -5    1.14    4.25     1.634
  -7  -7   5    0.83    3.32     1.383
   7   7  -5    0.14    2.36     1.386
  -6  -7   5    0.46    1.14     1.143
   6   7  -5   -1.26    1.37     1.146
  -5  -7   5    7.08    1.09     1.089
   5   7  -5    6.53    1.52     1.089
  -4  -7   5    8.28    0.94     1.048
   4   7  -5    9.85    0.94     1.048
  -3  -7   5   -0.18    0.22     0.365
   3   7  -5    0.11    0.22     0.371
  -2  -7   5   11.65    0.78     0.979
   2   7  -5   12.05    0.98     0.980
  -1  -7   5    1.27    0.76     1.269
   1   7  -5    1.78    1.14     1.270
   0  -7   5   29.69    1.09     0.908
   0   7  -5   32.13    1.27     0.908
   1  -7   5   63.73    1.83     0.871
  -1   7  -5   65.82    2.18     0.871
   2  -7   5   13.90    1.16     0.965
  -2   7  -5   12.44    1.54     0.965
   3  -7   5    1.13    1.25     1.134
  -3   7  -5    2.26    1.70     1.130
   4  -7   5   11.73    1.99     1.047
  -4   7  -5   12.99    2.72     1.047
   5  -7   5    0.00    1.80     0.900
  -5   7  -5    0.09    2.02     0.918
  -8  -8   5   -2.01    3.48     1.339
   8   8  -5    0.27    4.27     1.335
  -7  -8   5    0.36    2.51     1.198
   7   8  -5    4.67    2.52     1.199
  -6  -8   5   -0.39    0.55     0.391
   6   8  -5    0.44    0.40     0.398
  -5  -8   5   13.76    1.15     0.956
   5   8  -5   14.35    1.24     0.956
  -4  -8   5    8.56    1.02     1.020
   4   8  -5   10.82    0.92     1.020
  -3  -8   5   83.72    2.27     0.872
   3   8  -5   84.86    2.18     0.872
  -2  -8   5   12.98    0.84     1.047
   2   8  -5   14.36    1.05     1.048
  -1  -8   5   61.07    1.59     0.881
   1   8  -5   56.02    1.76     0.881
   0  -8   5    5.33    0.89     1.111
   0   8  -5    3.22    0.89     1.112
   1  -8   5   -0.08    0.45     0.751
  -1   8  -5   -0.22    0.59     0.738
   2  -8   5    2.74    1.12     1.248
  -2   8  -5    5.11    1.87     1.247
   3  -8   5    3.69    1.30     1.085
  -3   8  -5    3.80    1.74     1.085
   4  -8   5   12.99    1.78     1.047
  -4   8  -5   17.39    2.72     1.047
   5  -8   5   -0.13    3.38     1.252
  -5   8  -5    1.88    2.38     1.253
  -8  -9   5    4.70    3.61     1.093
   8   9  -5   12.78    4.04     1.092
  -7  -9   5   -1.15    3.83     1.278
   7   9  -5    0.76    1.53     1.274
  -6  -9   5   11.67    1.69     0.997
   6   9  -5   11.07    1.50     0.997
  -5  -9   5    2.82    1.30     1.083
   5   9  -5    4.76    1.19     1.082
  -4  -9   5   10.91    1.30     1.001
   4   9  -5   13.01    1.10     1.000
  -3  -9   5   32.06    1.35     0.898
   3   9  -5   34.21    1.35     0.898
  -2  -9   5   23.39    0.96     0.955
   2   9  -5   20.81    1.15     0.955
  -1  -9   5    2.12    0.75     1.248
   1   9  -5    3.37    1.00     1.247
   0  -9   5   -0.36    0.55     0.913
   0   9  -5    0.36    0.73     0.911
   1  -9   5   73.92    1.83     0.871
  -1   9  -5   70.95    2.09     0.871
   2  -9   5    1.00    1.00     1.248
  -2   9  -5    1.87    1.37     1.245
   3  -9   5    3.22    1.82     1.401
  -3   9  -5    3.50    1.96     1.402
   4  -9   5   -0.61    2.30     1.213
  -4   9  -5    2.43    1.82     1.214
  -7 -10   5   -0.12    2.76     1.151
   7  10  -5    2.08    1.50     1.153
  -6 -10   5    6.57    1.84     1.153
   6  10  -5    4.96    1.38     1.153
  -5 -10   5    1.08    0.99     0.985
   5  10  -5   -0.30    0.90     0.996
  -4 -10   5    7.16    1.16     1.053
   4  10  -5    8.63    0.95     1.053
  -3 -10   5    7.87    1.14     1.036
   3  10  -5   12.43    1.14     1.036
  -2 -10   5    2.89    0.72     1.206
   2  10  -5    4.57    0.96     1.202
  -1 -10   5    3.92    0.86     1.225
   1  10  -5    2.20    0.98     1.224
   0 -10   5   49.75    1.49     0.877
   0  10  -5   47.98    1.75     0.877
   1 -10   5  149.03    3.05     0.898
  -1  10  -5  146.86    3.23     0.898
   2 -10   5    0.17    0.45     0.561
  -2  10  -5   -0.11    0.76     0.540
   3 -10   5   14.65    1.53     0.957
  -3  10  -5   15.41    1.82     0.957
   4 -10   5    0.00    1.97     1.316
  -4  10  -5    0.00    1.97     1.313
  -7 -11   5    2.47    3.11     1.073
   7  11  -5   -1.10    1.54     1.101
  -6 -11   5    0.12    1.61     1.152
   6  11  -5    1.77    1.53     1.179
  -5 -11   5    1.26    1.39     1.263
   5  11  -5    0.50    1.13     1.256
  -4 -11   5    1.30    1.30     1.444
   4  11  -5    1.88    1.16     1.444
  -3 -11   5    5.90    1.00     1.113
   3  11  -5    6.23    1.00     1.112
  -2 -11   5   60.42    2.27     0.874
   2  11  -5   66.08    1.92     0.874
  -1 -11   5    2.43    0.69     1.157
   1  11  -5    2.32    1.04     1.158
   0 -11   5   40.10    1.34     0.895
   0  11  -5   36.51    1.34     0.895
   1 -11   5    3.93    0.87     1.092
  -1  11  -5    4.69    1.09     1.092
   2 -11   5   -1.21    1.21     1.339
  -2  11  -5    0.00    1.20     1.336
   3 -11   5    2.94    1.59     1.225
  -3  11  -5    2.20    1.84     1.225
   4 -11   5   -0.46    0.46     0.353
  -4  11  -5    1.42    0.90     0.347
  -7 -12   5    0.86    2.44     1.433
   7  12  -5    4.03    2.30     1.438
  -6 -12   5    1.32    2.05     1.466
   6  12  -5    0.89    1.77     1.476
  -5 -12   5    6.31    1.26     1.052
   5  12  -5    6.84    1.26     1.053
  -4 -12   5    0.87    1.12     1.242
   4  12  -5    0.00    1.00     1.246
  -3 -12   5   25.73    1.46     0.912
   3  12  -5   29.41    1.37     0.913
  -2 -12   5    0.00    0.16     0.179
   2  12  -5    0.07    0.15     0.185
  -1 -12   5    4.16    1.42     1.094
   1  12  -5    6.90    0.99     1.095
   0 -12   5   47.44    1.41     0.883
   0  12  -5   43.64    1.68     0.883
   1 -12   5   34.27    1.35     0.897
  -1  12  -5   36.26    1.71     0.898
   2 -12   5    7.14    1.41     1.081
  -2  12  -5    5.30    1.51     1.082
   3 -12   5    9.17    1.63     1.019
  -3  12  -5   10.80    2.45     1.019
   4 -12   5    4.67    2.28     1.199
  -4  12  -5    4.43    2.40     1.198
  -7 -13   5    5.54    2.28     1.086
   7  13  -5    8.57    1.74     1.085
  -6 -13   5   14.70    1.94     0.967
   6  13  -5   16.93    1.64     0.967
  -5 -13   5   12.35    1.45     0.965
   5  13  -5   14.75    1.25     0.964
  -4 -13   5    5.45    1.31     1.091
   4  13  -5    5.78    0.98     1.091
  -3 -13   5   -0.64    1.43     1.594
   3  13  -5   -0.16    1.44     1.605
  -2 -13   5   56.70    2.28     0.875
   2  13  -5   57.24    2.19     0.875
  -1 -13   5   16.39    1.47     0.921
   1  13  -5   18.88    1.10     0.921
   0 -13   5   52.14    1.68     0.882
   0  13  -5   45.33    2.12     0.882
   1 -13   5    0.13    1.07     1.339
  -1  13  -5    1.48    1.21     1.344
   2 -13   5   -0.15    0.36     0.300
  -2  13  -5    0.20    0.29     0.289
   3 -13   5   23.93    1.62     0.953
  -3  13  -5   23.17    3.05     0.954
   4 -13   5    2.45    2.06     1.290
  -4  13  -5    1.94    2.71     1.291
  -7 -14   5   -0.12    2.13     1.185
   7  14  -5   -0.71    1.77     1.178
  -6 -14   5   10.10    2.29     1.042
   6  14  -5    9.90    1.67     1.042
  -5 -14   5    2.73    1.61     1.241
   5  14  -5    0.99    1.37     1.241
  -4 -14   5   47.97    2.03     0.883
   4  14  -5   51.28    1.85     0.883
  -3 -14   5    2.95    1.23     1.229
   3  14  -5    3.07    1.11     1.229
  -2 -14   5  160.17    4.05     0.899
   2  14  -5  163.20    5.76     0.899
  -1 -14   5  115.06    3.25     0.879
   1  14  -5  115.00    2.64     0.879
   0 -14   5    1.87    1.24     1.244
   0  14  -5    1.24    1.24     1.244
   1 -14   5   -0.62    0.62     0.780
  -1  14  -5    1.55    0.85     0.776
   2 -14   5    7.16    1.84     1.084
  -2  14  -5    5.96    1.62     1.083
   3 -14   5   24.57    1.82     0.960
  -3  14  -5   19.10    2.02     0.960
   4 -14   5   -0.52    0.52     0.345
  -4  14  -5    0.29    0.70     0.291
  -7 -15   5   -1.80    2.28     1.200
   7  15  -5   -1.07    1.78     1.186
  -6 -15   5    2.42    2.57     1.425
   6  15  -5    0.43    1.85     1.420
  -5 -15   5    0.70    1.75     1.167
   5  15  -5   -1.38    1.38     1.153
  -4 -15   5    1.51    1.51     1.373
   4  15  -5    0.55    1.24     1.377
  -3 -15   5    8.35    1.62     1.160
   3  15  -5    7.99    1.27     1.158
  -2 -15   5    1.51    1.23     1.371
   2  15  -5    1.10    2.62     1.376
  -1 -15   5   45.39    2.12     0.883
   1  15  -5   45.92    1.50     0.883
   0 -15   5    9.76    1.85     0.976
   0  15  -5   12.99    1.37     0.977
   1 -15   5    3.60    1.24     1.241
  -1  15  -5    4.11    1.37     1.245
   2 -15   5    0.63    1.51     1.260
  -2  15  -5   -1.00    1.63     1.252
   3 -15   5    0.55    1.78     1.371
  -3  15  -5   -1.92    1.92     1.368
   4 -15   5    0.59    0.52     0.235
  -4  15  -5   -0.17    0.48     0.282
  -7 -16   5   -0.65    2.34     1.302
   7  16  -5    0.65    2.21     1.303
  -6 -16   5    2.18    2.76     1.452
   6  16  -5    3.63    2.03     1.453
  -5 -16   5    5.56    1.53     1.090
   5  16  -5    8.50    1.42     1.090
  -4 -16   5   16.71    1.48     0.928
   4  16  -5   21.15    1.48     0.928
  -3 -16   5   11.52    1.49     1.067
   3  16  -5   12.71    1.39     1.068
  -2 -16   5    4.37    1.31     1.092
   2  16  -5    4.37    1.53     1.092
  -1 -16   5   27.83    1.80     0.898
   1  16  -5   35.65    1.71     0.898
   0 -16   5    2.91    2.02     1.264
   0  16  -5    2.79    1.39     1.266
   1 -16   5    0.21    1.27     1.056
  -1  16  -5   -0.85    1.07     1.066
   2 -16   5   -0.26    0.94     0.853
  -2  16  -5    0.49    0.90     0.821
   3 -16   5    1.13    2.00     1.250
  -3  16  -5    1.50    2.00     1.252
   4 -16   5   -0.24    0.69     0.302
  -4  16  -5   -0.30    0.58     0.304
  -7 -17   5    1.66    2.56     1.278
   7  17  -5    1.15    2.18     1.282
  -6 -17   5    6.11    2.00     1.111
   6  17  -5    4.12    1.67     1.113
  -5 -17   5    1.66    1.53     1.275
   5  17  -5    3.05    1.65     1.270
  -4 -17   5   16.01    1.55     0.970
   4  17  -5   16.40    1.65     0.971
  -3 -17   5   11.00    1.36     1.048
   3  17  -5   16.23    1.47     1.047
  -2 -17   5   20.30    1.52     0.949
   2  17  -5   25.31    1.99     0.948
  -1 -17   5   25.35    1.82     0.912
   1  17  -5   26.98    1.46     0.911
   0 -17   5    3.33    1.44     1.111
   0  17  -5    3.67    1.45     1.112
   1 -17   5   -2.00    2.14     1.428
  -1  17  -5   -1.14    1.71     1.429
   2 -17   5    2.09    1.53     1.392
  -2  17  -5    2.23    1.81     1.396
   3 -17   5    8.44    3.12     1.156
  -3  17  -5    0.35    2.08     1.154
   4 -17   5    1.22    4.56     1.520
  -4  17  -5    3.81    3.51     1.526
  -7 -18   5   -0.09    1.66     0.920
   7  18  -5   -0.09    1.48     0.927
  -6 -18   5    3.38    2.86     1.299
   6  18  -5    0.52    1.82     1.299
  -5 -18   5   -1.70    2.22     1.309
   5  18  -5    2.75    1.57     1.310
  -4 -18   5    0.28    0.42     0.349
   4  18  -5    0.18    0.39     0.358
  -3 -18   5    2.64    1.68     1.199
   3  18  -5    4.92    1.32     1.199
  -2 -18   5    6.93    1.63     1.083
   2  18  -5    3.79    1.62     1.083
  -1 -18   5    2.48    1.47     1.129
   1  18  -5    2.14    1.35     1.129
   0 -18   5   11.66    1.41     1.005
   0  18  -5   14.89    1.41     1.006
   1 -18   5   -1.73    1.73     1.333
  -1  18  -5    2.78    1.46     1.326
   2 -18   5   -1.03    1.03     0.794
  -2  18  -5    0.15    1.00     0.766
   3 -18   5    7.61    2.21     1.102
  -3  18  -5    5.73    1.65     1.102
   4 -18   5    3.82    2.68     1.274
  -4  18  -5    0.13    4.08     1.276
  -6 -19   5    0.15    0.26     0.125
   6  19  -5   -0.11    0.20     0.132
  -5 -19   5   -1.38    1.61     1.152
   5  19  -5    1.62    1.50     1.157
  -4 -19   5    0.52    1.82     1.301
   4  19  -5    1.95    1.56     1.303
  -3 -19   5    1.67    1.83     1.521
   3  19  -5    1.22    2.29     1.530
  -2 -19   5    1.51    1.51     1.257
   2  19  -5   -0.88    1.63     1.256
  -1 -19   5   24.99    1.62     0.899
   1  19  -5   28.13    1.44     0.899
   0 -19   5    7.56    1.35     1.035
   0  19  -5    8.71    1.35     1.037
   1 -19   5    2.00    1.63     1.253
  -1  19  -5    2.64    1.51     1.257
   2 -19   5    3.81    1.98     1.413
  -2  19  -5    2.67    2.25     1.406
   3 -19   5    0.16    0.36     0.158
  -3  19  -5    0.08    0.23     0.156
  -6 -20   5   -1.23    1.91     1.362
   6  20  -5   -1.77    2.04     1.358
  -5 -20   5    4.77    1.86     1.163
   5  20  -5    3.72    1.51     1.163
  -4 -20   5   -2.16    2.16     1.271
   4  20  -5   -0.13    1.53     1.279
  -3 -20   5    7.17    1.66     1.039
   3  20  -5    7.38    1.98     1.040
  -2 -20   5    0.67    0.89     0.740
   2  20  -5    0.74    0.88     0.736
  -1 -20   5   82.01    2.70     0.871
   1  20  -5   86.73    2.53     0.871
   0 -20   5    0.28    1.52     1.382
   0  20  -5    0.69    1.64     1.371
   1 -20   5    2.18    1.67     1.285
  -1  20  -5    1.03    1.80     1.282
   2 -20   5    6.38    2.33     1.226
  -2  20  -5    1.23    1.35     1.226
   3 -20   5    0.90    1.25     0.501
  -3  20  -5   -0.40    0.64     0.495
  -6 -21   5    0.98    1.97     1.229
   6  21  -5    5.66    2.09     1.231
  -5 -21   5   21.19    1.69     0.938
   5  21  -5   24.47    2.06     0.938
  -4 -21   5   -0.62    1.64     0.781
   4  21  -5   -0.54    0.84     0.765
  -3 -21   5    2.35    1.73     1.238
   3  21  -5    0.25    1.99     1.241
  -2 -21   5   -0.07    0.12     0.108
   2  21  -5    0.09    0.18     0.112
  -1 -21   5    2.16    1.66     1.274
   1  21  -5    4.08    1.53     1.275
   0 -21   5   19.83    1.80     0.949
   0  21  -5   22.21    1.61     0.949
   1 -21   5    2.93    2.04     1.274
  -1  21  -5    5.62    1.66     1.276
   2 -21   5    1.97    2.10     1.234
  -2  21  -5    3.58    1.73     1.235
   3 -21   5   -0.05    0.49     0.233
  -3  21  -5    0.00    0.51     0.298
  -6 -22   5   -0.16    1.11     0.528
   6  22  -5    0.88    0.77     0.516
  -5 -22   5    1.02    2.17     1.278
   5  22  -5    1.91    2.04     1.276
  -4 -22   5   -0.13    2.20     1.293
   4  22  -5   -0.39    1.81     1.295
  -3 -22   5    2.47    1.95     1.298
   3  22  -5   -0.65    2.08     1.300
  -2 -22   5    5.15    1.37     1.051
   2  22  -5   10.20    1.68     1.052
  -1 -22   5    2.91    1.40     1.165
   1  22  -5    3.73    1.52     1.167
   0 -22   5    1.55    1.81     1.296
   0  22  -5    2.20    1.68     1.296
   1 -22   5    0.10    0.39     0.246
  -1  22  -5   -0.32    0.32     0.250
   2 -22   5    3.83    2.27     1.196
  -2  22  -5    3.95    2.15     1.196
   3 -22   5    6.48    3.99     1.245
  -3  22  -5    2.50    2.00     1.249
  -6 -23   5    1.83    2.35     1.307
   6  23  -5    5.76    2.36     1.309
  -5 -23   5   22.48    2.15     0.937
   5  23  -5   28.30    2.16     0.937
  -4 -23   5   -0.25    2.40     1.263
   4  23  -5    2.26    2.76     1.255
  -3 -23   5    2.71    1.85     1.230
   3  23  -5    4.55    2.58     1.230
  -2 -23   5    3.07    1.67     1.394
   2  23  -5    1.39    1.81     1.390
  -1 -23   5   22.53    1.79     0.943
   1  23  -5   23.79    1.70     0.944
   0 -23   5    5.26    1.54     1.096
   0  23  -5    5.93    1.43     1.098
   1 -23   5    8.59    1.89     1.048
  -1  23  -5    9.65    1.78     1.049
   2 -23   5    1.40    2.03     1.269
  -2  23  -5    4.69    2.16     1.268
   3 -23   5    0.51    3.32     1.276
  -3  23  -5    3.19    2.30     1.277
  -6 -24   5    2.27    2.39     1.260
   6  24  -5    1.64    2.40     1.261
  -5 -24   5    4.87    1.95     1.082
   5  24  -5    9.97    1.95     1.084
  -4 -24   5    2.98    2.98     1.355
   4  24  -5    2.70    2.29     1.349
  -3 -24   5   10.18    2.14     1.072
   3  24  -5    7.62    2.15     1.073
  -2 -24   5   -0.25    1.64     1.259
   2  24  -5    1.13    1.76     1.257
  -1 -24   5    1.10    2.06     1.372
   1  24  -5    0.69    1.92     1.370
   0 -24   5    8.55    1.51     1.006
   0  24  -5   13.58    1.61     1.006
   1 -24   5    0.47    1.53     1.177
  -1  24  -5    2.39    1.91     1.195
   2 -24   5   19.04    2.81     1.002
  -2  24  -5   13.63    2.00     1.002
  -5 -25   5   -1.07    1.53     0.765
   5  25  -5   -0.08    1.38     0.764
  -4 -25   5    5.67    3.22     1.289
   4  25  -5    1.68    3.35     1.289
  -3 -25   5    2.02    2.02     1.265
   3  25  -5    5.93    3.28     1.262
  -2 -25   5   -0.12    1.99     1.242
   2  25  -5   -1.24    1.62     1.242
  -1 -25   5    0.14    1.91     1.366
   1  25  -5    1.09    2.05     1.366
   0 -25   5    2.70    1.96     1.227
   0  25  -5   -0.37    1.72     1.230
   1 -25   5    4.36    2.12     1.247
  -1  25  -5   -1.88    1.88     1.250
   2 -25   5    0.63    1.38     0.628
  -2  25  -5    0.99    0.93     0.622
  -5 -26   5    2.01    2.39     1.257
   5  26  -5    3.64    2.63     1.255
  -4 -26   5   10.17    2.49     1.082
   4  26  -5   10.92    2.59     1.081
  -3 -26   5    0.61    1.47     0.868
   3  26  -5   -0.27    1.59     0.885
  -2 -26   5   23.56    2.14     0.931
   2  26  -5   23.78    2.05     0.933
  -1 -26   5    9.94    1.72     1.014
   1  26  -5   11.98    1.73     1.015
   0 -26   5    8.15    1.98     1.102
   0  26  -5    6.63    1.66     1.105
   1 -26   5    5.55    2.33     1.110
  -1  26  -5    3.89    1.56     1.111
   2 -26   5    0.97    1.77     0.806
  -2  26  -5   -1.55    1.55     0.816
  -5 -27   5   -0.77    1.63     0.859
   5  27  -5    0.77    2.13     0.854
  -4 -27   5    0.63    2.53     1.265
   4  27  -5   -1.64    3.42     1.265
  -3 -27   5   13.62    3.51     1.002
   3  27  -5   18.94    2.91     1.002
  -2 -27   5    7.79    2.06     1.083
   2  27  -5    9.86    2.38     1.083
  -1 -27   5   -0.77    2.04     1.276
   1  27  -5    1.66    1.91     1.276
   0 -27   5    1.88    1.63     1.255
   0  27  -5    1.50    1.88     1.251
   1 -27   5    1.43    1.79     1.195
  -1  27  -5    3.82    1.91     1.195
   2 -27   5    0.73    0.45     0.150
  -2  27  -5   -0.21    0.34     0.153
  -4 -28   5   -2.48    2.48     1.126
   4  28  -5    2.14    2.48     1.127
  -3 -28   5    7.29    4.35     1.552
   3  28  -5    2.61    3.38     1.538
  -2 -28   5   11.60    2.20     1.000
   2  28  -5   11.60    1.90     1.000
  -1 -28   5    0.29    2.04     1.459
   1  28  -5    1.61    2.20     1.465
   0 -28   5   -1.00    2.21     1.106
   0  28  -5    1.98    1.65     1.098
   1 -28   5   -0.85    1.36     0.850
  -1  28  -5   -0.25    1.25     0.831
  -4 -29   5   20.91    2.89     0.963
   4  29  -5   17.45    3.57     0.964
  -3 -29   5    1.23    2.84     1.233
   3  29  -5    4.08    2.35     1.235
  -2 -29   5   29.84    2.57     0.953
   2  29  -5   30.41    2.48     0.953
  -1 -29   5    3.51    2.21     1.300
   1  29  -5    5.46    2.21     1.300
   0 -29   5    7.26    1.95     1.083
   0  29  -5    4.66    1.84     1.083
   1 -29   5   -1.94    2.77     1.385
  -1  29  -5   -1.66    2.49     1.384
  -4 -30   5    1.40    3.13     1.080
   4  30  -5    6.38    3.14     1.082
  -3 -30   5    6.52    2.75     1.144
   3  30  -5    5.37    2.40     1.143
  -2 -30   5    0.17    0.45     0.189
   2  30  -5   -0.31    0.31     0.171
  -1 -30   5    2.35    2.22     1.304
   1  30  -5    1.30    2.21     1.301
   0 -30   5    6.71    2.38     1.082
   0  30  -5    6.39    2.06     1.083
  -3 -31   5    0.26    4.26     1.291
   3  31  -5    1.93    3.86     1.288
  -2 -31   5   12.43    2.32     1.053
   2  31  -5   10.21    2.53     1.053
  -1 -31   5    1.66    1.58     0.790
   1  31  -5    0.54    1.54     0.769
   0 -31   5    5.35    2.14     1.190
   0  31  -5    5.46    2.73     1.187
  -2 -32   5    5.71    2.86     1.298
   2  32  -5    5.06    2.99     1.299
  -1 -32   5    4.52    1.98     1.102
   1  32  -5    4.64    2.43     1.104
  -7   0   6    3.25    1.63     1.084
  -6   0   6   -0.75    1.62     1.247
  -5   0   6    4.75    1.27     1.157
  -4   0   6   -0.73    0.98     1.224
  -3   0   6   13.63    1.12     1.017
  -2   0   6    0.27    1.09     1.362
  -1   0   6   81.97    2.35     0.869
   0   0   6   46.56    1.67     0.878
   1   0   6   27.06    1.58     0.930
   2   0   6   -0.26    0.78     0.650
   3   0   6   17.11    1.92     0.961
   4   0   6   -0.77    1.31     0.769
  -7  -1   6   -0.16    1.15     0.548
   7   1  -6   -0.54    1.03     0.544
  -6  -1   6    3.18    1.93     1.136
   6   1  -6    2.73    1.59     1.136
  -5  -1   6    2.18    1.54     1.281
   5   1  -6    2.81    1.41     1.279
  -4  -1   6    5.85    0.97     1.082
   4   1  -6    6.83    1.19     1.084
  -3  -1   6    0.23    0.54     0.769
   3   1  -6   -0.30    0.61     0.757
  -2  -1   6   12.52    1.10     1.002
   2   1  -6   12.83    1.10     1.002
  -1  -1   6    3.02    1.24     1.372
   1   1  -6    0.82    1.09     1.364
   0  -1   6    4.97    1.02     1.129
   0   1  -6    3.95    1.24     1.130
   1  -1   6   -0.10    0.37     0.338
  -1   1  -6    0.10    0.36     0.331
   2  -1   6   -0.55    1.64     1.366
  -2   1  -6    0.14    1.80     1.387
   3  -1   6   -1.27    1.27     0.906
  -3   1  -6    0.09    1.54     0.905
   4  -1   6    3.80    2.15     1.266
  -4   1  -6    2.90    2.53     1.262
  -7  -2   6    1.37    1.73     0.910
   7   2  -6    0.73    2.29     0.916
  -6  -2   6   -0.18    1.25     0.895
   6   2  -6    1.86    1.24     0.886
  -5  -2   6    7.35    1.68     1.049
   5   2  -6    6.82    1.36     1.050
  -4  -2   6    0.00    0.73     0.913
   4   2  -6    0.63    0.72     0.896
  -3  -2   6    0.65    0.86     1.075
   3   2  -6   -0.43    0.96     1.068
  -2  -2   6   13.67    1.08     0.983
   2   2  -6   13.79    1.08     0.985
  -1  -2   6   12.22    1.26     0.970
   1   2  -6   13.67    1.16     0.970
   0  -2   6   43.19    1.59     0.881
   0   2  -6   42.85    1.85     0.882
   1  -2   6    0.33    1.11     1.115
  -1   2  -6   -1.35    1.35     1.126
   2  -2   6    7.31    1.42     1.091
  -2   2  -6    5.03    1.53     1.093
   3  -2   6    0.00    1.36     1.045
  -3   2  -6    1.88    1.57     1.045
   4  -2   6    0.00    0.60     0.318
  -4   2  -6   -0.03    0.61     0.322
  -7  -3   6    1.01    3.04     1.447
   7   3  -6    0.00    2.75     1.450
  -6  -3   6    7.49    1.63     1.086
   6   3  -6    4.88    1.41     1.085
  -5  -3   6   11.41    1.70     1.001
   5   3  -6   12.70    1.30     1.000
  -4  -3   6    3.26    1.00     1.254
   4   3  -6    2.26    1.13     1.254
  -3  -3   6   14.81    1.09     0.994
   3   3  -6   16.00    1.29     0.994
  -2  -3   6   31.45    1.27     0.906
   2   3  -6   31.36    1.45     0.906
  -1  -3   6   16.57    1.26     0.969
   1   3  -6   14.25    1.26     0.969
   0  -3   6   17.94    1.32     0.940
   0   3  -6   15.79    1.41     0.940
   1  -3   6    0.50    1.38     1.250
  -1   3  -6   -1.04    1.30     1.303
   2  -3   6   -0.99    0.99     0.899
  -2   3  -6   -0.72    1.17     0.903
   3  -3   6   -0.32    0.32     0.248
  -3   3  -6   -0.40    0.40     0.237
   4  -3   6    2.85    2.23     1.241
  -4   3  -6    3.48    2.24     1.243
  -7  -4   6    0.14    3.41     1.420
   7   4  -6   -1.84    2.26     1.416
  -6  -4   6   -0.86    0.86     0.535
   6   4  -6    0.54    0.60     0.543
  -5  -4   6    7.65    1.60     1.142
   5   4  -6    6.17    1.37     1.142
  -4  -4   6    1.75    0.98     1.094
   4   4  -6    2.96    0.99     1.096
  -3  -4   6    1.49    0.87     1.243
   3   4  -6    2.36    1.12     1.242
  -2  -4   6    0.55    0.32     0.395
   2   4  -6   -0.35    0.35     0.394
  -1  -4   6    3.47    1.29     1.287
   1   4  -6    1.67    1.28     1.284
   0  -4   6    8.20    1.19     1.079
   0   4  -6    4.76    1.30     1.081
   1  -4   6   12.26    1.10     0.997
  -1   4  -6    8.67    1.29     0.996
   2  -4   6    0.24    0.57     0.473
  -2   4  -6   -0.19    0.56     0.468
   3  -4   6    4.92    1.60     1.143
  -3   4  -6    8.94    2.52     1.146
   4  -4   6    0.79    1.13     0.872
  -4   4  -6   -0.61    1.74     0.870
  -7  -5   6    2.02    3.51     1.349
   7   5  -6    0.13    2.56     1.347
  -6  -5   6    0.82    1.28     0.914
   6   5  -6   -1.30    1.30     0.926
  -5  -5   6   14.12    1.58     0.988
   5   5  -6   17.68    1.48     0.988
  -4  -5   6   -0.56    1.13     1.127
   4   5  -6    3.84    1.13     1.129
  -3  -5   6   22.79    1.21     0.934
   3   5  -6   25.88    1.40     0.934
  -2  -5   6   12.37    1.18     0.982
   2   5  -6   13.05    1.37     0.981
  -1  -5   6   22.70    1.31     0.938
   1   5  -6   22.70    1.50     0.938
   0  -5   6    6.57    1.20     1.195
   0   5  -6    4.67    1.32     1.197
   1  -5   6    0.24    1.09     1.212
  -1   5  -6    1.20    1.44     1.201
   2  -5   6    1.63    1.38     1.254
  -2   5  -6    1.38    1.63     1.254
   3  -5   6   -0.68    1.48     1.137
  -3   5  -6   -1.83    1.83     1.142
   4  -5   6    0.40    1.20     0.802
  -4   5  -6   -0.95    1.67     0.795
  -7  -6   6    2.29    3.78     1.349
   7   6  -6    1.22    2.44     1.356
  -6  -6   6    3.18    1.91     1.271
   6   6  -6    2.66    1.65     1.269
  -5  -6   6    4.56    1.33     1.113
   5   6  -6    3.45    1.33     1.112
  -4  -6   6   28.66    1.64     0.910
   4   6  -6   34.58    1.73     0.910
  -3  -6   6    2.38    1.25     1.253
   3   6  -6    2.88    1.50     1.254
  -2  -6   6   10.87    1.09     1.087
   2   6  -6   11.53    1.41     1.088
  -1  -6   6    2.63    1.25     1.252
   1   6  -6    5.12    1.50     1.248
   0  -6   6   38.65    1.70     0.895
   0   6  -6   39.54    1.88     0.895
   1  -6   6   -0.76    1.26     1.259
  -1   6  -6    0.13    1.63     1.256
   2  -6   6    7.60    1.43     1.101
  -2   6  -6    5.52    1.55     1.104
   3  -6   6    0.96    1.28     1.065
  -3   6  -6    0.11    2.06     1.083
  -7  -7   6    4.18    2.67     1.162
   7   7  -6    4.42    1.86     1.163
  -6  -7   6    5.98    1.99     1.247
   6   7  -6    2.49    1.75     1.247
  -5  -7   6    0.06    0.67     0.561
   5   7  -6   -0.74    0.79     0.566
  -4  -7   6    1.66    1.41     1.278
   4   7  -6    0.51    1.15     1.278
  -3  -7   6   -0.27    1.47     1.339
   3   7  -6   -0.54    1.21     1.344
  -2  -7   6    3.76    1.04     1.297
   2   7  -6    2.73    1.30     1.300
  -1  -7   6    0.00    0.22     0.246
   1   7  -6    0.41    0.25     0.253
   0  -7   6    0.00    1.15     1.274
   0   7  -6    1.03    1.41     1.285
   1  -7   6    0.23    1.24     1.125
  -1   7  -6   -1.36    1.36     1.133
   2  -7   6   -0.44    0.44     0.369
  -2   7  -6   -0.63    0.63     0.368
   3  -7   6    0.60    1.30     0.999
  -3   7  -6   -0.10    2.03     1.014
  -7  -8   6    2.17    3.45     1.278
   7   8  -6   -1.15    2.05     1.283
  -6  -8   6    4.96    2.11     1.241
   6   8  -6    2.49    1.74     1.243
  -5  -8   6   18.39    1.56     0.920
   5   8  -6   21.98    1.56     0.920
  -4  -8   6    6.60    1.52     1.082
   4   8  -6    8.22    1.30     1.082
  -3  -8   6    0.67    1.74     1.335
   3   8  -6    0.80    1.20     1.333
  -2  -8   6    1.91    1.32     1.469
   2   8  -6    1.32    1.46     1.463
  -1  -8   6    1.81    1.36     1.508
   1   8  -6   -0.75    1.35     1.498
   0  -8   6    0.02    0.11     0.106
   0   8  -6    0.15    0.13     0.104
   1  -8   6   15.43    1.33     0.947
  -1   8  -6   16.76    2.08     0.947
   2  -8   6    3.71    1.20     1.091
  -2   8  -6    2.84    1.97     1.093
   3  -8   6   -0.35    1.54     1.184
  -3   8  -6   -1.91    2.02     1.191
  -7  -9   6    1.04    3.37     1.298
   7   9  -6    6.21    2.33     1.294
  -6  -9   6    7.00    1.83     1.077
   6   9  -6    6.03    1.62     1.077
  -5  -9   6    3.07    1.66     1.280
   5   9  -6    2.96    1.67     1.287
  -4  -9   6   13.70    1.34     0.958
   4   9  -6   20.98    1.72     0.958
  -3  -9   6    7.56    1.23     1.022
   3   9  -6    8.58    1.53     1.021
  -2  -9   6   -0.12    1.84     1.223
   2   9  -6   -0.61    1.23     1.225
  -1  -9   6   18.04    2.16     0.940
   1   9  -6   15.78    1.32     0.939
   0  -9   6   -0.09    0.83     0.921
   0   9  -6   -0.93    1.12     0.930
   1  -9   6    4.16    1.24     1.124
  -1   9  -6    4.16    1.80     1.123
   2  -9   6    2.09    1.44     1.309
  -2   9  -6    1.84    2.10     1.314
   3  -9   6    0.10    0.15     0.107
  -3   9  -6   -0.03    0.19     0.105
  -7 -10   6   -0.36    2.09     0.908
   7  10  -6   -1.55    1.82     0.910
  -6 -10   6   -2.17    2.29     1.206
   6  10  -6    1.47    1.84     1.226
  -5 -10   6    8.71    1.47     1.050
   5  10  -6   13.75    1.89     1.050
  -4 -10   6    7.98    1.47     1.051
   4  10  -6    9.24    1.37     1.051
  -3 -10   6    0.00    1.37     1.369
   3  10  -6    1.78    1.64     1.367
  -2 -10   6   10.80    1.85     1.091
   2  10  -6    8.73    1.53     1.091
  -1 -10   6   -0.55    1.80     1.381
   1  10  -6    0.14    1.51     1.375
   0 -10   6    8.52    1.20     1.092
   0  10  -6    6.67    1.53     1.093
   1 -10   6    0.00    0.36     0.362
  -1  10  -6   -0.51    0.51     0.337
   2 -10   6   26.77    1.56     0.920
  -2  10  -6   24.11    2.58     0.920
   3 -10   6    0.20    0.48     0.400
  -3  10  -6    0.04    0.63     0.369
  -7 -11   6    3.09    4.07     1.405
   7  11  -6    0.28    2.79     1.393
  -6 -11   6   26.30    2.23     0.929
   6  11  -6   23.69    2.04     0.929
  -5 -11   6    7.44    1.80     1.127
   5  11  -6    9.80    2.25     1.126
  -4 -11   6    9.69    1.43     1.020
   4  11  -6   11.73    1.63     1.020
  -3 -11   6   58.91    2.28     0.875
   3  11  -6   66.11    2.54     0.876
  -2 -11   6    2.35    1.73     1.235
   2  11  -6    1.61    1.36     1.237
  -1 -11   6   18.48    1.79     0.943
   1  11  -6   20.65    1.41     0.943
   0 -11   6   -0.45    1.34     1.114
   0  11  -6    0.56    1.24     1.124
   1 -11   6    5.53    1.33     1.106
  -1  11  -6    7.19    1.99     1.106
   2 -11   6   -0.07    0.13     0.110
  -2  11  -6   -0.20    0.21     0.112
   3 -11   6    8.26    1.63     1.087
  -3  11  -6    5.76    2.18     1.088
  -7 -12   6    1.44    2.73     1.436
   7  12  -6    1.98    2.41     1.417
  -6 -12   6    0.23    2.04     1.135
   6  12  -6    0.58    1.73     1.153
  -5 -12   6    0.83    1.55     1.193
   5  12  -6    1.20    1.68     1.198
  -4 -12   6   13.47    1.55     0.969
   4  12  -6   16.29    1.65     0.970
  -3 -12   6   40.71    1.94     0.883
   3  12  -6   47.06    2.38     0.883
  -2 -12   6    7.46    1.73     1.081
   2  12  -6    8.65    1.41     1.082
  -1 -12   6   68.22    2.97     0.874
   1  12  -6   65.59    2.18     0.873
   0 -12   6   -0.12    1.73     1.153
   0  12  -6    2.76    1.38     1.152
   1 -12   6   45.28    1.89     0.898
  -1  12  -6   45.44    3.23     0.898
   2 -12   6   -0.53    1.15     0.881
  -2  12  -6   -0.27    1.27     0.907
   3 -12   6   17.94    1.76     0.975
  -3  12  -6   18.34    2.34     0.975
  -7 -13   6   -1.43    1.57     0.750
   7  13  -6    0.37    1.42     0.749
  -6 -13   6    0.68    1.93     1.136
   6  13  -6    0.57    1.71     1.138
  -5 -13   6    0.51    2.16     1.270
   5  13  -6    1.91    2.42     1.271
  -4 -13   6    8.17    1.53     1.089
   4  13  -6   10.89    1.63     1.089
  -3 -13   6   30.30    2.02     0.918
   3  13  -6   36.25    2.11     0.918
  -2 -13   6    3.67    2.11     1.112
   2  13  -6    6.00    1.56     1.112
  -1 -13   6   19.58    2.20     0.955
   1  13  -6   22.05    1.24     0.955
   0 -13   6    0.16    1.14     0.818
   0  13  -6    1.16    0.91     0.830
   1 -13   6    0.32    2.36     1.575
  -1  13  -6    1.89    3.94     1.575
   2 -13   6   -0.44    1.05     0.874
  -2  13  -6   -1.03    1.21     0.861
   3 -13   6    8.41    2.07     1.152
  -3  13  -6    4.15    2.19     1.153
  -6 -14   6    0.38    0.50     0.293
   6  14  -6    0.00    0.51     0.301
  -5 -14   6    0.09    1.41     0.884
   5  14  -6   -0.80    1.33     0.888
  -4 -14   6    0.25    1.35     1.230
   4  14  -6   -0.74    2.10     1.235
  -3 -14   6    7.86    1.80     0.946
   3  14  -6   18.55    1.89     0.946
  -2 -14   6   29.15    1.91     0.908
   2  14  -6   24.53    1.64     0.909
  -1 -14   6   53.83    2.73     0.880
   1  14  -6   61.69    2.20     0.880
   0 -14   6   -0.56    1.40     0.935
   0  14  -6    0.64    1.01     0.917
   1 -14   6    1.11    2.35     1.235
  -1  14  -6    3.82    1.97     1.232
   2 -14   6   -1.00    2.13     1.251
  -2  14  -6    0.50    2.00     1.249
   3 -14   6   -0.26    1.67     1.284
  -3  14  -6    0.77    2.44     1.286
  -6 -15   6    2.64    2.51     1.320
   6  15  -6    5.94    2.11     1.319
  -5 -15   6   -1.12    1.62     1.244
   5  15  -6    2.23    1.86     1.239
  -4 -15   6   16.70    1.74     0.965
   4  15  -6   15.44    2.80     0.965
  -3 -15   6   23.91    2.00     0.909
   3  15  -6   24.46    2.09     0.909
  -2 -15   6   19.28    1.81     0.954
   2  15  -6   20.24    2.01     0.955
  -1 -15   6    9.50    1.94     0.970
   1  15  -6   13.19    1.36     0.970
   0 -15   6    0.58    0.40     0.224
   0  15  -6   -0.33    0.33     0.250
   1 -15   6    0.14    2.51     1.396
  -1  15  -6   -1.26    2.10     1.397
   2 -15   6    1.52    2.28     1.267
  -2  15  -6   -0.13    2.78     1.263
   3 -15   6    1.07    1.22     0.487
  -3  15  -6   -0.28    0.98     0.467
  -6 -16   6    2.13    2.01     1.255
   6  16  -6    5.63    2.38     1.251
  -5 -16   6    3.71    2.18     1.281
   5  16  -6    0.26    2.06     1.286
  -4 -16   6   -1.08    1.62     1.351
   4  16  -6    1.61    2.42     1.346
  -3 -16   6    2.68    1.66     1.278
   3  16  -6    0.64    1.92     1.278
  -2 -16   6    9.73    1.69     0.993
   2  16  -6    9.04    1.79     0.994
  -1 -16   6    0.28    0.75     0.470
   1  16  -6    0.22    0.58     0.446
   0 -16   6   -0.05    0.24     0.121
   0  16  -6    0.04    0.16     0.135
   1 -16   6   16.83    2.49     0.996
  -1  16  -6   14.93    1.99     0.996
   2 -16   6    0.27    0.34     0.211
  -2  16  -6   -0.45    0.52     0.236
   3 -16   6    8.45    2.64     1.057
  -3  16  -6   12.99    2.75     1.056
  -6 -17   6    2.46    2.46     1.296
   6  17  -6    5.45    2.21     1.298
  -5 -17   6    0.00    0.63     0.350
   5  17  -6   -0.17    0.45     0.348
  -4 -17   6   -0.54    0.58     0.362
   4  17  -6    0.92    0.64     0.355
  -3 -17   6    9.45    1.82     1.074
   3  17  -6    9.55    2.47     1.073
  -2 -17   6    1.44    1.96     1.309
   2  17  -6    1.71    2.11     1.316
  -1 -17   6    0.40    2.55     1.344
   1  17  -6    0.00    1.88     1.341
   0 -17   6    0.71    1.51     0.887
   0  17  -6    0.54    1.16     0.893
   1 -17   6   -2.17    2.17     1.144
  -1  17  -6   -1.83    2.18     1.145
   2 -17   6   -2.52    2.52     1.402
  -2  17  -6   -0.56    3.22     1.399
  -6 -18   6    4.28    2.52     1.258
   6  18  -6    3.77    2.51     1.256
  -5 -18   6    2.38    2.13     1.253
   5  18  -6    1.00    2.63     1.254
  -4 -18   6    2.83    1.81     1.132
   4  18  -6    1.81    2.95     1.134
  -3 -18   6    0.35    1.89     1.179
   3  18  -6    0.00    2.24     1.178
  -2 -18   6   36.11    2.15     0.896
   2  18  -6   36.10    2.51     0.896
  -1 -18   6   -0.38    0.80     0.380
   1  18  -6    0.08    0.46     0.379
   0 -18   6    0.41    2.33     1.370
   0  18  -6    4.24    1.78     1.369
   1 -18   6    2.97    2.40     1.142
  -1  18  -6    2.85    2.05     1.139
   2 -18   6    5.70    2.08     1.095
  -2  18  -6   13.05    3.29     1.096
  -6 -19   6    2.66    2.66     1.268
   6  19  -6    0.76    2.28     1.265
  -5 -19   6    7.32    2.14     1.126
   5  19  -6    4.28    2.48     1.126
  -4 -19   6    3.98    2.11     1.244
   4  19  -6    5.36    2.37     1.246
  -3 -19   6   -1.21    1.81     1.510
   3  19  -6    5.34    3.20     1.526
  -2 -19   6    4.21    2.11     1.239
   2  19  -6   11.01    3.22     1.237
  -1 -19   6    3.55    1.84     1.225
   1  19  -6    5.88    1.72     1.225
   0 -19   6   -0.40    0.65     0.363
   0  19  -6    0.03    0.45     0.347
   1 -19   6   -0.77    0.87     0.515
  -1  19  -6    0.30    0.74     0.492
   2 -19   6    0.03    0.58     0.343
  -2  19  -6   -0.43    0.61     0.357
  -6 -20   6   -0.51    2.78     1.264
   6  20  -6    1.52    2.41     1.267
  -5 -20   6    2.33    2.22     1.109
   5  20  -6    2.54    2.65     1.104
  -4 -20   6    0.56    2.10     1.399
   4  20  -6    2.38    2.66     1.400
  -3 -20   6    0.00    1.80     1.287
   3  20  -6    0.52    2.19     1.289
  -2 -20   6    4.94    2.28     1.267
   2  20  -6    3.05    2.03     1.269
  -1 -20   6   -1.11    1.48     0.926
   1  20  -6   -0.09    1.20     0.924
   0 -20   6   -1.26    1.77     0.842
   0  20  -6   -1.16    1.16     0.827
   1 -20   6   -0.09    0.27     0.158
  -1  20  -6   -0.09    0.24     0.171
   2 -20   6   -1.26    2.65     1.397
  -2  20  -6    2.38    2.66     1.398
  -5 -21   6    6.29    2.65     1.103
   5  21  -6    4.41    2.98     1.102
  -4 -21   6   -0.38    2.56     1.278
   4  21  -6    1.40    3.44     1.274
  -3 -21   6    2.66    2.03     1.267
   3  21  -6    2.92    3.42     1.268
  -2 -21   6    3.15    1.85     1.086
   2  21  -6    6.63    1.85     1.087
  -1 -21   6   -2.02    2.02     1.124
   1  21  -6    0.11    1.79     1.118
   0 -21   6    0.80    1.43     0.893
   0  21  -6    0.35    1.33     0.884
   1 -21   6   -1.60    3.20     1.457
  -1  21  -6    1.46    2.04     1.460
   2 -21   6    0.96    2.64     1.198
  -2  21  -6   -0.12    2.37     1.184
  -5 -22   6    0.83    2.09     1.043
   5  22  -6    0.10    1.97     1.034
  -4 -22   6    0.45    3.64     1.516
   4  22  -6    0.45    3.18     1.516
  -3 -22   6   -0.19    1.59     0.934
   3  22  -6    1.35    1.58     0.792
  -2 -22   6   -0.90    0.90     0.561
   2  22  -6   -0.28    1.25     0.569
  -1 -22   6    2.64    1.89     1.258
   1  22  -6    5.05    2.02     1.264
   0 -22   6    5.36    1.79     1.051
   0  22  -6    9.78    1.79     1.051
   1 -22   6    1.04    1.56     0.869
  -1  22  -6   -0.51    1.35     0.846
  -5 -23   6    1.90    2.26     1.190
   5  23  -6    5.59    2.85     1.189
  -4 -23   6   -1.85    3.08     1.231
   4  23  -6    2.34    3.69     1.230
  -3 -23   6    2.67    2.29     1.270
   3  23  -6    0.76    2.79     1.270
  -2 -23   6    3.59    2.03     1.196
   2  23  -6    3.71    2.27     1.196
  -1 -23   6    3.94    1.75     1.093
   1  23  -6    4.26    1.53     1.091
   0 -23   6    0.35    0.52     0.291
   0  23  -6    0.37    0.53     0.310
   1 -23   6   -0.40    0.40     0.236
  -1  23  -6    0.81    0.38     0.237
  -4 -24   6   -1.50    2.72     1.359
   4  24  -6    3.28    3.00     1.366
  -3 -24   6    0.87    1.87     1.250
   3  24  -6   -1.12    3.62     1.248
  -2 -24   6    0.12    2.12     1.245
   2  24  -6    1.75    2.49     1.247
  -1 -24   6   -1.79    1.79     1.276
   1  24  -6    1.14    1.77     1.265
   0 -24   6    0.80    2.88     1.602
   0  24  -6    2.85    2.37     1.582
   1 -24   6    4.11    2.38     1.082
  -1  24  -6    6.28    1.84     1.083
  -4 -25   6    2.15    2.53     1.267
   4  25  -6   -2.78    3.29     1.265
  -3 -25   6    8.69    2.30     1.047
   3  25  -6   11.09    2.30     1.046
  -2 -25   6   11.35    2.18     1.091
   2  25  -6    8.95    1.96     1.091
  -1 -25   6    0.81    2.29     1.350
   1  25  -6    2.02    2.16     1.349
   0 -25   6    4.50    2.62     1.250
   0  25  -6    3.49    2.37     1.246
  -4 -26   6    0.93    2.13     0.927
   4  26  -6    1.65    2.02     0.917
  -3 -26   6   -1.03    1.03     0.543
   3  26  -6   -0.96    1.23     0.533
  -2 -26   6    3.44    2.52     1.146
   2  26  -6    0.45    2.03     1.129
  -1 -26   6   -0.98    2.65     1.396
   1  26  -6    5.03    2.93     1.397
   0 -26   6    3.01    2.32     1.158
   0  26  -6    3.48    2.20     1.159
  -3 -27   6    1.52    3.17     1.267
   3  27  -6    2.55    2.68     1.276
  -2 -27   6   11.17    2.68     1.074
   2  27  -6    9.99    2.26     1.074
  -1 -27   6   -0.23    1.84     1.150
   1  27  -6   -0.34    2.29     1.146
  -2 -28   6   -1.49    2.35     1.239
   2  28  -6    2.84    2.22     1.235
  -1 -28   6   24.75    2.52     0.934
   1  28  -6   24.45    2.80     0.933
  -6  -1   7    1.01    2.46     1.120
   6   1  -7   -1.71    2.05     1.141
  -5  -1   7    3.03    1.89     1.261
   5   1  -7    1.51    2.27     1.259
  -4  -1   7   19.50    1.99     0.947
   4   1  -7   22.43    1.61     0.946
  -3  -1   7    6.90    1.55     1.189
   3   1  -7    6.19    1.43     1.190
  -2  -1   7   32.61    1.73     0.908
   2   1  -7   31.16    1.64     0.908
  -1  -1   7    6.05    1.51     1.081
   1   1  -7    6.06    1.30     1.082
   0  -1   7   -0.88    1.26     1.265
   0   1  -7    2.91    1.52     1.267
   1  -1   7    1.63    1.50     1.253
  -1   1  -7    2.99    1.74     1.245
   2  -1   7    2.24    1.74     1.243
  -2   1  -7    3.86    2.24     1.244
  -6  -2   7    5.82    3.09     1.187
   6   2  -7    1.42    2.02     1.187
  -5  -2   7   -1.93    2.18     1.284
   5   2  -7    1.68    1.81     1.293
  -4  -2   7   -1.17    1.56     1.304
   4   2  -7    0.26    1.43     1.300
  -3  -2   7   11.65    1.39     0.996
   3   2  -7   17.04    1.69     0.996
  -2  -2   7    7.74    1.22     1.019
   2   2  -7    8.05    1.22     1.019
  -1  -2   7   12.49    1.47     1.050
   1   2  -7    9.76    1.47     1.049
   0  -2   7    0.00    0.78     0.653
   0   2  -7   -0.19    0.94     0.629
   1  -2   7   14.84    1.70     1.002
  -1   2  -7   14.83    1.80     1.002
   2  -2   7    0.86    1.96     1.223
  -2   2  -7    0.61    2.33     1.224
  -6  -3   7    3.04    2.17     1.085
   6   3  -7    7.05    3.15     1.085
  -5  -3   7    4.65    1.91     1.194
   5   3  -7    5.62    2.27     1.196
  -4  -3   7    0.19    0.83     0.487
   4   3  -7   -0.55    0.55     0.458
  -3  -3   7   18.34    1.89     0.945
   3   3  -7   21.47    1.70     0.946
  -2  -3   7    1.19    1.59     1.327
   2   3  -7    0.27    1.73     1.328
  -1  -3   7    0.10    1.24     1.035
   1   3  -7    1.54    1.43     1.024
   0  -3   7    0.00    1.07     0.888
   0   3  -7    1.32    1.14     0.880
   1  -3   7    2.06    1.58     1.212
  -1   3  -7    3.39    1.82     1.212
   2  -3   7    5.81    1.90     1.117
  -2   3  -7    2.91    1.79     1.118
  -6  -4   7    4.34    2.39     1.085
   6   4  -7    5.96    2.27     1.083
  -5  -4   7    3.29    2.04     1.135
   5   4  -7    1.23    1.67     1.116
  -4  -4   7    0.96    2.19     1.368
   4   4  -7    3.53    1.77     1.358
  -3  -4   7    3.72    1.80     1.126
   3   4  -7    2.47    1.46     1.125
  -2  -4   7   22.90    1.53     0.958
   2   4  -7   22.33    1.63     0.958
  -1  -4   7    2.18    1.20     1.088
   1   4  -7    2.72    1.42     1.089
   0  -4   7    4.89    1.54     1.286
   0   4  -7    6.69    1.93     1.286
   1  -4   7   -0.12    0.18     0.138
  -1   4  -7   -0.16    0.23     0.163
   2  -4   7    4.48    1.53     1.093
  -2   4  -7    3.72    1.75     1.095
  -6  -5   7    3.46    3.13     1.081
   6   5  -7   14.18    3.03     1.083
  -5  -5   7    0.54    2.44     1.357
   5   5  -7    1.09    2.44     1.358
  -4  -5   7   -0.11    0.84     0.527
   4   5  -7   -0.72    0.72     0.511
  -3  -5   7   -0.66    1.97     1.312
   3   5  -7    1.19    1.71     1.318
  -2  -5   7    2.60    1.52     1.085
   2   5  -7    8.02    1.73     1.084
  -1  -5   7    1.25    1.56     1.562
   1   5  -7    0.00    2.04     1.572
   0  -5   7    4.87    1.79     1.280
   0   5  -7    5.64    2.05     1.282
   1  -5   7   -0.60    1.31     1.008
  -1   5  -7    0.80    1.49     0.996
   2  -5   7    2.02    1.89     1.349
  -2   5  -7    1.36    2.71     1.357
  -6  -6   7    0.25    2.15     1.265
   6   6  -7   -1.01    2.78     1.265
  -5  -6   7    6.67    2.08     1.093
   5   6  -7   10.49    2.40     1.093
  -4  -6   7    1.12    2.52     1.399
   4   6  -7    1.81    1.53     1.393
  -3  -6   7    2.60    2.19     1.369
   3   6  -7    0.27    1.50     1.367
  -2  -6   7   -1.57    1.57     0.827
   2   6  -7    0.17    1.08     0.833
  -1  -6   7    3.05    2.29     1.272
   1   6  -7   -0.13    1.77     1.267
   0  -6   7   -0.12    1.38     1.153
   0   6  -7    0.47    1.63     1.166
   1  -6   7   -0.09    0.36     0.297
  -1   6  -7    0.48    0.39     0.299
   2  -6   7    1.24    1.69     1.127
  -2   6  -7   -0.45    2.37     1.127
  -6  -7   7    8.19    2.66     1.106
   6   7  -7    4.98    2.32     1.106
  -5  -7   7   -0.42    1.96     1.396
   5   7  -7    1.82    2.24     1.403
  -4  -7   7   -0.47    0.66     0.389
   4   7  -7    0.22    0.41     0.371
  -3  -7   7    8.87    2.60     1.082
   3   7  -7   11.80    1.95     1.083
  -2  -7   7    4.47    3.48     1.242
   2   7  -7    1.86    1.61     1.240
  -1  -7   7    1.91    2.39     1.196
   1   7  -7    3.71    1.80     1.196
   0  -7   7    4.88    1.30     1.085
   0   7  -7    4.12    1.74     1.085
   1  -7   7   -0.81    1.90     1.354
  -1   7  -7   -0.95    2.03     1.355
   2  -7   7    2.46    1.97     1.230
  -2   7  -7    2.46    2.22     1.232
  -6  -8   7   -2.22    2.22     0.853
   6   8  -7    0.58    1.65     0.826
  -5  -8   7   27.24    2.23     0.930
   5   8  -7   28.42    2.60     0.929
  -4  -8   7    2.06    1.74     1.085
   4   8  -7    4.99    1.84     1.085
  -3  -8   7   -0.13    2.86     1.299
   3   8  -7    4.80    2.59     1.297
  -2  -8   7    5.08    1.94     1.080
   2   8  -7    7.67    1.62     1.081
  -1  -8   7    0.48    0.65     0.342
   1   8  -7    0.10    0.43     0.332
   0  -8   7   12.85    2.77     0.989
   0   8  -7   14.74    1.68     0.989
   1  -8   7    4.71    2.08     1.385
  -1   8  -7    2.76    2.07     1.378
   2  -8   7    2.98    2.33     1.295
  -2   8  -7    0.91    2.33     1.294
  -6  -9   7    7.69    2.56     1.115
   6   9  -7    6.58    2.12     1.116
  -5  -9   7   17.39    2.13     0.966
   5   9  -7   17.20    3.67     0.966
  -4  -9   7   10.43    2.12     0.965
   4   9  -7   14.38    1.83     0.965
  -3  -9   7    0.59    2.02     1.187
   3   9  -7   -1.30    1.66     1.183
  -2  -9   7    3.51    2.85     1.097
   2   9  -7    7.01    1.64     1.096
  -1  -9   7    2.02    3.51     1.349
   1   9  -7    0.94    1.89     1.347
   0  -9   7    0.75    2.37     1.248
   0   9  -7    6.23    2.12     1.246
   1  -9   7   -0.38    0.38     0.158
  -1   9  -7    0.05    0.28     0.156
   2  -9   7   -1.49    2.14     1.068
  -2   9  -7    2.66    2.23     1.064
  -6 -10   7   -1.33    1.33     0.663
   6  10  -7    0.64    1.28     0.638
  -5 -10   7   25.01    2.01     0.913
   5  10  -7   22.99    3.01     0.912
  -4 -10   7   -0.18    0.35     0.253
   4  10  -7    0.11    0.54     0.286
  -3 -10   7    3.77    2.69     1.078
   3  10  -7    8.08    2.05     1.077
  -2 -10   7   -2.91    2.91     1.264
   2  10  -7   -2.03    2.03     1.269
  -1 -10   7    5.52    2.38     1.082
   1  10  -7    2.81    1.73     1.081
   0 -10   7   -3.01    3.26     1.252
   0  10  -7    1.75    2.13     1.252
   1 -10   7    3.79    3.29     1.264
  -1  10  -7    2.66    2.41     1.266
   2 -10   7    3.93    4.44     1.267
  -2  10  -7   -1.14    2.28     1.267
  -6 -11   7    0.26    0.75     0.324
   6  11  -7   -0.16    0.64     0.320
  -5 -11   7    3.21    2.17     1.036
   5  11  -7    4.87    3.11     1.036
  -4 -11   7    0.67    2.02     1.344
   4  11  -7    1.89    2.29     1.350
  -3 -11   7   -0.10    0.28     0.115
   3  11  -7   -0.04    0.22     0.111
  -2 -11   7    3.42    2.54     1.103
   2  11  -7    3.42    1.66     1.103
  -1 -11   7    0.81    1.54     0.809
   1  11  -7    0.24    1.19     0.794
   0 -11   7    5.38    3.88     1.252
   0  11  -7    3.15    2.01     1.260
   1 -11   7    0.37    2.73     1.241
  -1  11  -7    5.20    2.35     1.238
   2 -11   7    9.57    6.11     1.154
  -2  11  -7    4.84    2.19     1.152
  -6 -12   7   -1.83    1.83     0.915
   6  12  -7    1.64    2.01     0.914
  -5 -12   7    9.50    1.84     1.021
   5  12  -7    8.58    2.55     1.022
  -4 -12   7    2.52    1.76     1.258
   4  12  -7    2.27    2.39     1.260
  -3 -12   7   -0.97    1.70     0.811
   3  12  -7    0.65    1.31     0.819
  -2 -12   7    5.70    3.76     1.295
   2  12  -7    2.08    2.21     1.298
  -1 -12   7    3.34    3.34     1.393
   1  12  -7    2.12    2.12     1.413
   0 -12   7   17.34    3.31     1.003
   0  12  -7   15.14    2.11     1.003
   1 -12   7    2.93    2.09     0.836
  -1  12  -7    0.34    1.52     0.847
  -6 -13   7    1.61    2.48     1.239
   6  13  -7    5.70    3.10     1.239
  -5 -13   7    0.92    0.65     0.382
   5  13  -7    1.05    0.97     0.387
  -4 -13   7   -0.05    0.21     0.131
   4  13  -7   -0.15    0.22     0.127
  -3 -13   7   -0.66    2.95     1.641
   3  13  -7    1.64    2.62     1.640
  -2 -13   7   -0.15    3.36     1.528
   2  13  -7    1.36    2.12     1.511
  -1 -13   7    0.50    2.49     1.245
   1  13  -7    3.00    2.25     1.251
   0 -13   7   -0.58    2.31     1.155
   0  13  -7   -1.73    1.84     1.150
   1 -13   7   -2.45    2.86     1.360
  -1  13  -7    0.00    2.57     1.351
  -5 -14   7    3.28    2.46     1.368
   5  14  -7    2.75    3.57     1.373
  -4 -14   7    1.55    2.19     1.289
   4  14  -7   -0.77    2.19     1.289
  -3 -14   7   17.46    2.22     0.924
   3  14  -7   26.73    2.50     0.925
  -2 -14   7    1.07    3.69     1.536
   2  14  -7   -0.62    2.47     1.545
  -1 -14   7   27.60    2.39     0.955
   1  14  -7   31.23    2.58     0.955
   0 -14   7    2.28    2.53     1.266
   0  14  -7    0.25    2.54     1.270
   1 -14   7   21.29    2.75     0.981
  -1  14  -7   20.23    2.36     0.982
  -5 -15   7   -0.34    1.43     0.844
   5  15  -7    0.00    2.61     0.841
  -4 -15   7    3.51    1.59     1.133
   4  15  -7    5.22    3.63     1.134
  -3 -15   7   12.01    2.13     0.968
   3  15  -7   22.19    2.33     0.969
  -2 -15   7    3.04    3.92     1.265
   2  15  -7   -0.38    2.15     1.265
  -1 -15   7    4.74    2.31     1.101
   1  15  -7    5.29    1.87     1.102
   0 -15   7   -1.05    2.09     1.046
   0  15  -7    0.53    2.11     1.053
   1 -15   7    1.73    2.97     1.236
  -1  15  -7    2.59    2.35     1.234
  -5 -16   7    0.00    2.44     1.160
   5  16  -7    2.80    2.92     1.168
  -4 -16   7   -1.88    2.01     1.254
   4  16  -7    4.37    3.50     1.249
  -3 -16   7   16.72    2.43     0.934
   3  16  -7   21.18    2.89     0.933
  -2 -16   7    1.56    1.89     1.114
   2  16  -7    1.70    1.82     1.136
  -1 -16   7    4.23    2.17     1.084
   1  16  -7    6.50    2.28     1.084
   0 -16   7    1.22    2.84     1.350
   0  16  -7    0.14    2.45     1.360
   1 -16   7   10.57    3.71     1.090
  -1  16  -7    6.75    1.96     1.090
  -5 -17   7   -0.08    0.62     0.386
   5  17  -7   -0.64    0.83     0.375
  -4 -17   7    5.64    2.03     1.128
   4  17  -7    4.96    2.48     1.128
  -3 -17   7    7.89    2.46     1.025
   3  17  -7   12.30    2.56     1.025
  -2 -17   7   -0.25    0.34     0.176
   2  17  -7   -0.32    0.41     0.179
  -1 -17   7    2.86    2.36     1.243
   1  17  -7    0.12    2.36     1.243
   0 -17   7    0.74    2.70     1.225
   0  17  -7    0.73    2.30     1.210
   1 -17   7   -0.98    3.37     1.405
  -1  17  -7   -1.81    3.35     1.395
  -5 -18   7    1.74    1.84     0.967
   5  18  -7    0.37    2.42     0.929
  -4 -18   7   10.10    2.10     1.052
   4  18  -7    8.62    2.63     1.051
  -3 -18   7    9.33    2.82     1.085
   3  18  -7    6.30    3.26     1.086
  -2 -18   7   -1.93    1.93     1.017
   2  18  -7   -1.22    1.82     1.014
  -1 -18   7    5.95    2.53     1.266
   1  18  -7    3.16    2.15     1.264
   0 -18   7    0.23    1.19     0.566
   0  18  -7    0.66    1.10     0.550
  -4 -19   7    0.16    3.13     1.565
   4  19  -7    2.98    4.71     1.569
  -3 -19   7   -0.87    2.24     1.245
   3  19  -7   -1.00    2.49     1.246
  -2 -19   7    3.58    2.31     1.154
   2  19  -7    0.69    2.42     1.154
  -1 -19   7    2.87    2.63     1.196
   1  19  -7    0.96    2.03     1.197
   0 -19   7    7.19    2.51     1.090
   0  19  -7    7.73    2.29     1.089
  -4 -20   7   13.95    2.37     0.989
   4  20  -7   11.57    2.77     0.989
  -3 -20   7    2.41    2.06     1.147
   3  20  -7    0.82    2.92     1.166
  -2 -20   7    4.51    2.63     1.253
   2  20  -7    5.74    2.37     1.248
  -1 -20   7    4.00    2.62     1.249
   1  20  -7    0.00    2.12     1.249
   0 -20   7    4.75    2.49     1.131
   0  20  -7    3.73    2.71     1.130
  -4 -21   7    3.98    2.44     1.285
   4  21  -7    3.86    3.73     1.285
  -3 -21   7    0.89    2.16     1.271
   3  21  -7    2.55    2.80     1.273
  -2 -21   7   -2.14    2.14     0.974
   2  21  -7   -1.49    1.78     0.992
  -1 -21   7   -0.63    1.99     1.045
   1  21  -7   -1.93    1.93     1.072
  -3 -22   7    0.76    0.67     0.303
   3  22  -7    0.33    0.74     0.296
  -2 -22   7    0.02    0.32     0.167
   2  22  -7    0.09    0.41     0.152
  -1 -22   7    5.15    2.89     1.257
   1  22  -7    1.63    2.14     1.257
  -5   0   8   -0.63    0.84     0.349
  -4   0   8    0.25    2.73     1.242
  -3   0   8    3.95    2.26     1.128
  -2   0   8    0.00    0.15     0.114
  -1   0   8    0.27    0.51     0.390
   0   0   8    0.91    1.83     1.305
  -5  -1   8    0.27    0.64     0.222
   5   1  -8   -0.10    0.61     0.244
  -4  -1   8    2.29    2.83     1.347
   4   1  -8   -2.16    2.16     1.351
  -3  -1   8    3.72    2.23     1.239
   3   1  -8   -1.61    2.72     1.237
  -2  -1   8   -2.52    2.52     1.327
   2   1  -8   -1.32    1.98     1.317
  -1  -1   8    4.91    1.89     1.259
   1   1  -8    5.18    1.77     1.262
   0  -1   8    0.24    1.27     0.797
   0   1  -8   -0.16    1.10     0.786
  -5  -2   8    1.92    4.86     1.279
   5   2  -8    1.40    2.68     1.276
  -4  -2   8    1.47    2.58     1.229
   4   2  -8   -2.46    2.46     1.228
  -3  -2   8    5.51    2.65     1.103
   3   2  -8   -0.22    1.98     1.101
  -2  -2   8    0.99    2.71     1.234
   2   2  -8    1.73    1.61     1.238
  -1  -2   8    2.31    2.45     1.361
   1   2  -8    0.95    2.31     1.358
   0  -2   8   -0.91    2.17     1.140
   0   2  -8    1.49    1.83     1.143
  -5  -3   8    5.86    4.66     1.504
   5   3  -8   -0.75    3.61     1.505
  -4  -3   8    1.49    3.38     1.351
   4   3  -8    4.04    2.83     1.347
  -3  -3   8    1.45    3.19     1.450
   3   3  -8   -2.46    2.46     1.447
  -2  -3   8   -0.39    2.61     1.304
   2   3  -8    0.78    2.07     1.297
  -1  -3   8   -0.78    2.99     1.300
   1   3  -8    0.52    1.82     1.301
   0  -3   8    2.63    2.08     1.384
   0   3  -8    2.64    2.22     1.390
  -5  -4   8   -0.83    3.22     1.038
   5   4  -8   -4.58    4.58     1.040
  -4  -4   8    7.78    2.45     1.065
   4   4  -8    7.35    1.92     1.066
  -3  -4   8   -1.88    2.76     1.255
   3   4  -8    1.89    2.14     1.258
  -2  -4   8    3.07    4.05     1.228
   2   4  -8    2.83    1.60     1.230
  -1  -4   8    0.09    1.73     0.913
   1   4  -8   -0.27    1.35     0.901
   0  -4   8    0.96    1.84     0.801
   0   4  -8    0.75    1.25     0.835
  -5  -5   8    3.77    3.08     1.142
   5   5  -8   12.45    6.05     1.142
  -4  -5   8   -2.42    3.22     1.151
   4   5  -8    0.68    1.81     1.134
  -3  -5   8    1.75    3.12     1.249
   3   5  -8    0.00    1.95     1.218
  -2  -5   8    3.88    4.50     1.251
   2   5  -8    0.88    1.75     1.252
  -1  -5   8    2.25    5.17     1.124
   1   5  -8    4.04    1.80     1.123
   0  -5   8    6.93    2.92     1.083
   0   5  -8    7.80    2.06     1.083
  -5  -6   8   15.05    4.36     1.091
   5   6  -8   11.23    2.83     1.090
  -4  -6   8    2.65    2.77     1.153
   4   6  -8    7.74    2.31     1.155
  -3  -6   8   -3.38    3.38     1.253
   3   6  -8    1.12    2.00     1.249
  -2  -6   8   -0.44    1.44     0.553
   2   6  -8    0.17    0.83     0.551
  -1  -6   8    2.77    3.14     1.258
   1   6  -8    2.14    2.14     1.259
   0  -6   8   -3.52    3.52     1.302
   0   6  -8    0.52    2.36     1.309
  -5  -7   8    3.62    4.30     1.132
   5   7  -8    3.09    2.52     1.146
  -4  -7   8    6.63    3.63     1.037
   4   7  -8   11.00    2.18     1.038
  -3  -7   8    0.00    2.87     0.897
   3   7  -8   -1.33    1.42     0.888
  -2  -7   8    5.02    2.84     1.092
   2   7  -8    8.51    1.85     1.091
  -1  -7   8    2.20    3.84     1.373
   1   7  -8   -0.55    2.33     1.370
   0  -7   8   -0.50    5.98     1.246
   0   7  -8    5.98    2.24     1.247
  -4  -8   8    0.81    3.10     1.346
   4   8  -8   -0.94    2.42     1.346
  -3  -8   8    1.50    3.13     1.253
   3   8  -8   -2.01    2.01     1.256
  -2  -8   8    2.63    3.13     1.252
   2   8  -8    0.25    2.03     1.270
  -1  -8   8   -0.03    0.81     0.339
   1   8  -8    0.03    0.55     0.323
   0  -8   8   -1.99    5.40     1.421
   0   8  -8   -0.43    2.86     1.432
  -4  -9   8    3.37    2.92     1.122
   4   9  -8    6.40    2.47     1.123
  -3  -9   8   -0.94    3.31     1.181
   3   9  -8    2.10    2.22     1.166
  -2  -9   8    4.45    3.04     1.086
   2   9  -8   13.89    2.17     1.085
  -1  -9   8    2.01    3.89     1.340
   1   9  -8    2.40    2.40     1.331
  -4 -10   8    3.18    2.53     0.816
   4  10  -8    0.67    1.60     0.840
  -3 -10   8    2.62    3.37     1.249
   3  10  -8    2.87    2.37     1.249
  -2 -10   8   -2.31    4.62     1.360
   2  10  -8   -0.41    2.59     1.365
  -1 -10   8    7.12    5.50     1.618
   1  10  -8    0.64    2.72     1.598
  -4 -11   8    4.77    4.20     1.447
   4  11  -8    2.31    3.32     1.444
  -3 -11   8    5.94    3.92     1.264
   3  11  -8    5.81    2.53     1.264
  -2 -11   8   -1.68    2.77     0.988
   2  11  -8    1.59    1.89     0.994
  -1 -11   8    5.67    4.84     1.181
   1  11  -8    1.41    2.36     1.179
  -4 -12   8    5.56    4.75     1.356
   4  12  -8   -1.09    3.68     1.362
  -3 -12   8    3.89    3.60     1.440
   3  12  -8    1.87    3.17     1.439
  -2 -12   8   -1.07    4.67     1.333
   2  12  -8    2.00    2.40     1.333
  -1 -12   8    4.51    4.01     1.253
   1  12  -8    0.62    2.24     1.243
  -3 -13   8    3.24    3.86     1.246
   3  13  -8    2.36    2.49     1.245
  -2 -13   8   -1.06    1.06     0.379
   2  13  -8    0.76    0.69     0.347
  -2 -14   8   -1.08    5.01     1.355
   2  14  -8    0.81    2.30     1.351

;
_shelx_hkl_checksum   99711

