data_k15056 
 
_audit_creation_method            'SHELXL-2014/7 and CIFFIX' 
# CIF edited on-the-fly by script CIFFIX (S. Parkin, 2000-2014). 
# CIFFIX: http://xray.uky.edu/people/parkin/programs/ciffix 
_audit_update_record              ? 
 
_shelx_SHELXL_version_number      '2014/7' 
 
_publ_section_exptl_refinement 
; 
H atoms were found in difference Fourier maps, but subsequently included 
in the refinement using riding models, with constrained distances set to 
0.95 %A (C~sp2~H), 0.98 %A (RCH~3~) and 0.99 %A (R~2~CH~2~).  U~iso~(H) 
parameters were set to values of either 1.2U~eq~ or 1.5U~eq~ (RCH~3~ only) 
of the attached atom. 
 
To ensure satisfactory refinement for disordered groups in the structure, 
a combination of constraints and restraints were employed. The constraints 
(SHELXL commands EXYZ and EADP) were used to fix overlapping fragments. 
Restraints were used to ensure the integrity of ill-defined or disordered 
groups (SHELXL command SAME). 
; 
 
_publ_section_references 
; 
Hope, H. (1994). 
  <i>Prog. Inorg. Chem.</i> <b>41</b>, 1--19. 
 
Krause, L., Herbst-Irmer, R., Sheldrick, G.M. & Stalke, D. (2015). 
  <i>J. Appl. Cryst.</i> <b>48</b>, 3--10. 
 
Nonius (1998). 
  <i>Collect</i> Nonius BV, Delft, The Netherlands. 
 
Otwinowski, Z. & Minor, W. (2006). 
  <i>International Tables for Crystallography</i>, Vol. F, ch. 11.4, 226--235. 
 
Parkin, S. & Hope, H. (1998). 
  <i>J. Appl. Cryst.</i> <b>31</b>, 945--953. 
 
Parkin, S. (2000). 
  <i>Acta Cryst.</i> A<b>56</b>, 157--162. 
 
Parkin, S. (2013). 
  <i>CIFFIX</i>, http://xray.uky.edu/people/parkin/programs/ciffix 
 
Sheldrick, G.M. (2008). 
  <i>Acta Cryst.</i> A<b>64</b>, 112--122. 
 
Sheldrick, G.M. (2015a). 
  <i>Acta Cryst.</i> A<b>71</b>, 3--8. 
 
Sheldrick, G.M. (2015b). 
  <i>Acta Cryst.</i> C<b>71</b>, 3--8. 
 
Spek, A.L. (2009). 
  <i>Acta Cryst.</i> D<b>65</b>, 148--155. 
; 
 
_publ_section_acknowledgements 
; 
The kappaCCD diffractometer was funded by the University of Kentucky. 
; 
 
_chemical_name_systematic         ? 
_chemical_name_common             ? 
_chemical_melting_point           ? 
_chemical_formula_moiety          'C34 H38 S2 Si2' 
_chemical_formula_sum             'C34 H38 S2 Si2' 
_chemical_formula_weight          566.94 
 
loop_ 
 _atom_type_symbol 
 _atom_type_description 
 _atom_type_scat_dispersion_real 
 _atom_type_scat_dispersion_imag 
 _atom_type_scat_source 
 'C'  'C'   0.0033   0.0016 
 'International Tables Vol C Tables 4.2.6.8 and 6.1.1.4' 
 'H'  'H'   0.0000   0.0000 
 'International Tables Vol C Tables 4.2.6.8 and 6.1.1.4' 
 'Si'  'Si'   0.0817   0.0704 
 'International Tables Vol C Tables 4.2.6.8 and 6.1.1.4' 
 'S'  'S'   0.1246   0.1234 
 'International Tables Vol C Tables 4.2.6.8 and 6.1.1.4' 
 
_space_group_crystal_system       triclinic 
_space_group_IT_number            2 
_space_group_name_H-M_alt         'P -1' 
_space_group_name_Hall            '-P 1' 
 
_shelx_space_group_comment 
; 
The symmetry employed for this shelxl refinement is uniquely defined 
by the following loop, which should always be used as a source of 
symmetry information in preference to the above space-group names. 
They are only intended as comments. 
; 
 
loop_ 
 _space_group_symop_operation_xyz 
 'x, y, z' 
 '-x, -y, -z' 
 
_cell_length_a                    6.6825(2) 
_cell_length_b                    7.2546(2) 
_cell_length_c                    16.6845(5) 
_cell_angle_alpha                 97.8261(18) 
_cell_angle_beta                  94.7607(16) 
_cell_angle_gamma                 103.7577(16) 
_cell_volume                      772.71(4) 
_cell_formula_units_Z             1 
_cell_measurement_temperature     90.0(2) 
_cell_measurement_reflns_used     3528 
_cell_measurement_theta_min       1.00 
_cell_measurement_theta_max       27.48 
 
_exptl_crystal_description        'rhombus-shaped slab' 
_exptl_crystal_colour             red 
_exptl_crystal_density_meas       ? 
_exptl_crystal_density_method     ? 
_exptl_crystal_density_diffrn     1.218 
_exptl_crystal_F_000              302 
_exptl_transmission_factor_min    ? 
_exptl_transmission_factor_max    ? 
_exptl_crystal_size_max           0.400 
_exptl_crystal_size_mid           0.350 
_exptl_crystal_size_min           0.080 
_exptl_absorpt_coefficient_mu     0.272 
_shelx_estimated_absorpt_T_min    0.899 
_shelx_estimated_absorpt_T_max    0.979 
_exptl_absorpt_correction_type    multi-scan 
_exptl_absorpt_correction_T_min   0.778 
_exptl_absorpt_correction_T_max   0.942 
_exptl_absorpt_process_details    '<i>SADABS</i> (Krause et al., 2015)' 
_exptl_absorpt_special_details 
; 
In addition to absorption, multi-scan techniques also correct other slowly 
varying changes in scale factor over reciprocal space, such as those caused 
by x-ray beam inhomogeneity, goniometer imperfection, crystal decomposition, 
crystal longer than the x-ray beam cross section, absorption by the crystal 
mount etc.  These account, by and large, for much of the difference between 
estimated values of Tmin and Tmax and the _exptl_absorpt_correction_ values. 
; 
 
_exptl_special_details 
; 
The crystal was mounted using polyisobutene oil on the tip of a fine glass 
fibre, which was fastened in a copper mounting pin with electrical solder. 
It was placed directly into the cold gas stream of a liquid-nitrogen based 
cryostat (Hope, 1994; Parkin & Hope, 1998). 
 
Diffraction data were collected with the crystal at 90K, which is standard 
practice in this laboratory for the majority of flash-cooled crystals. 
; 
 
_diffrn_ambient_temperature       90.0(2) 
_diffrn_radiation_wavelength      0.71073 
_diffrn_radiation_type            MoK\a 
_diffrn_source                    'fine-focus sealed-tube' 
_diffrn_measurement_device_type   'Nonius KappaCCD diffractometer' 
_diffrn_measurement_method        '\f and \w scans at fixed \c = 55\%' 
_diffrn_detector_area_resol_mean  9.1 
_diffrn_reflns_number             21198 
_diffrn_reflns_av_unetI/netI      0.0343 
_diffrn_reflns_av_R_equivalents   0.0417 
_diffrn_reflns_limit_h_min        -8 
_diffrn_reflns_limit_h_max        8 
_diffrn_reflns_limit_k_min        -9 
_diffrn_reflns_limit_k_max        9 
_diffrn_reflns_limit_l_min        -21 
_diffrn_reflns_limit_l_max        21 
_diffrn_reflns_theta_min          2.482 
_diffrn_reflns_theta_max          27.509 
_diffrn_reflns_theta_full         25.242 
_diffrn_measured_fraction_theta_max                0.997 
_diffrn_measured_fraction_theta_full               1.000 
_diffrn_reflns_Laue_measured_fraction_max          0.997 
_diffrn_reflns_Laue_measured_fraction_full         1.000 
_diffrn_reflns_point_group_measured_fraction_max   0.997 
_diffrn_reflns_point_group_measured_fraction_full  1.000 
 
_reflns_number_total              3560 
_reflns_number_gt                 2735 
_reflns_threshold_expression      'I > 2\s(I)' 
_reflns_Friedel_coverage          0.000 
_reflns_Friedel_fraction_max      . 
_reflns_Friedel_fraction_full     . 
_reflns_special_details 
; 
Reflections were merged by SHELXL according to the crystal 
class for the calculation of statistics and refinement. 
 
_reflns_Friedel_fraction is defined as the number of unique 
Friedel pairs measured divided by the number that would be 
possible theoretically, ignoring centric projections and 
systematic absences. 
; 
 
_computing_data_collection        '<i>COLLECT</i> (Nonius, 1998)' 
_computing_cell_refinement        '<i>SCALEPACK</i> (Otwinowski & Minor, 2006)' 
_computing_data_reduction         '<i>DENZO-SMN</i> (Otwinowski & Minor, 2006)' 
_computing_structure_solution     '<i>SHELXT</i> (Sheldrick, 2015a)' 
_computing_structure_refinement   '<i>SHELXL-2014/7</i> (Sheldrick, 2015b)' 
_computing_molecular_graphics     '<i>XP in SHELXTL</i> (Sheldrick, 2008)' 
_computing_publication_material 
'<i>SHELX</i> (Sheldrick, 2008) and <i>CIFFIX</i> (Parkin, 2013)' 
 
_refine_special_details 
; 
Refinement progress was checked using <i>Platon</i> (Spek, 2009) and by 
an <i>R</i>-tensor (Parkin, 2000). The final model was further checked 
with the IUCr utility <i>checkCIF</i>. 
; 
_refine_ls_structure_factor_coef  Fsqd 
_refine_ls_matrix_type            full 
_refine_ls_weighting_scheme       calc 
_refine_ls_weighting_details 
'w=1/[\s^2^(Fo^2^)+(0.0653P)^2^+0.0388P] where P=(Fo^2^+2Fc^2^)/3' 
_atom_sites_solution_primary      direct 
_atom_sites_solution_secondary    difmap 
_atom_sites_solution_hydrogens    difmap 
_refine_ls_hydrogen_treatment     constr 
_refine_ls_extinction_method      none 
_refine_ls_extinction_coef        . 
_refine_ls_number_reflns          3560 
_refine_ls_number_parameters      185 
_refine_ls_number_restraints      10 
_refine_ls_R_factor_all           0.0558 
_refine_ls_R_factor_gt            0.0407 
_refine_ls_wR_factor_ref          0.1151 
_refine_ls_wR_factor_gt           0.1095 
_refine_ls_goodness_of_fit_ref    1.149 
_refine_ls_restrained_S_all       1.151 
_refine_ls_shift/su_max           0.000 
_refine_ls_shift/su_mean          0.000 
 
loop_ 
 _atom_site_label 
 _atom_site_type_symbol 
 _atom_site_fract_x 
 _atom_site_fract_y 
 _atom_site_fract_z 
 _atom_site_U_iso_or_equiv 
 _atom_site_adp_type 
 _atom_site_occupancy 
 _atom_site_site_symmetry_order 
 _atom_site_calc_flag 
 _atom_site_refinement_flags_posn 
 _atom_site_refinement_flags_adp 
 _atom_site_refinement_flags_occupancy 
 _atom_site_disorder_assembly 
 _atom_site_disorder_group 
Si1 Si 0.78888(8) 0.37921(7) 0.17776(3) 0.02408(15) Uani 1 1 d . . . . . 
C1 C 0.5738(2) 0.4591(2) 0.42391(9) 0.0185(3) Uani 1 1 d . . . . . 
C2 C 0.3687(3) 0.3656(2) 0.43521(9) 0.0191(3) Uani 1 1 d . . . . . 
C3 C 0.2369(3) 0.2268(2) 0.37264(9) 0.0204(3) Uani 1 1 d . . . . . 
H3 H 0.2859 0.1935 0.3222 0.024 Uiso 1 1 calc R U . A 1 
C4 C 0.0392(3) 0.1414(2) 0.38539(10) 0.0218(4) Uani 0.8971(19) 1 d D . P B 1 
S5 S -0.14871(9) -0.03324(10) 0.31904(4) 0.02360(18) Uani 0.8971(19) 1 d D . P 
B 1 
C6 C -0.3297(3) -0.0330(3) 0.38836(12) 0.0239(4) Uani 0.8971(19) 1 d D . P B 1 
H6 H -0.4679 -0.1114 0.3781 0.029 Uiso 0.8971(19) 1 calc R U P B 1 
C7 C -0.2534(7) 0.0893(9) 0.4576(4) 0.0247(7) Uani 0.8971(19) 1 d D . P B 1 
H7 H -0.3332 0.1070 0.5012 0.030 Uiso 0.8971(19) 1 calc R U P B 1 
C8 C -0.0411(2) 0.1909(2) 0.46011(10) 0.0210(3) Uani 0.8971(19) 1 d D . P B 1 
C4' C 0.0392(3) 0.1414(2) 0.38539(10) 0.0218(4) Uani 0.1029(19) 1 d D . P B 2 
C5' C -0.106(3) 0.003(4) 0.3271(11) 0.02360(18) Uani 0.1029(19) 1 d D . P B 2 
H5' H -0.0785 -0.0409 0.2738 0.028 Uiso 0.1029(19) 1 calc R U P B 2 
C6' C -0.284(2) -0.059(2) 0.3567(8) 0.0239(4) Uani 0.1029(19) 1 d D . P B 2 
H6' H -0.3973 -0.1565 0.3270 0.029 Uiso 0.1029(19) 1 calc R U P B 2 
S7' S -0.2919(17) 0.056(2) 0.4546(9) 0.0247(7) Uani 0.1029(19) 1 d D . P B 2 
C8' C -0.0411(2) 0.1909(2) 0.46011(10) 0.0210(3) Uani 0.1029(19) 1 d D . P B 2 
C9 C 0.0849(2) 0.3213(2) 0.52227(10) 0.0195(3) Uani 1 1 d . . . . . 
H9 H 0.0326 0.3524 0.5722 0.023 Uiso 1 1 calc R U . B 1 
C10 C 0.2930(2) 0.4096(2) 0.51225(9) 0.0182(3) Uani 1 1 d . . . . . 
C11 C 0.6449(2) 0.4224(2) 0.34608(9) 0.0202(4) Uani 1 1 d . . . . . 
C12 C 0.7038(3) 0.3967(2) 0.2799(1) 0.0230(4) Uani 1 1 d . . . . . 
C13 C 1.0785(3) 0.4312(3) 0.18788(11) 0.0324(4) Uani 1 1 d . . . . . 
H13A H 1.1208 0.3242 0.2098 0.039 Uiso 1 1 calc R U . . . 
H13B H 1.1231 0.4333 0.1328 0.039 Uiso 1 1 calc R U . . . 
C14 C 1.1942(3) 0.6199(3) 0.24238(13) 0.0422(5) Uani 1 1 d . . . . . 
H14A H 1.1551 0.7276 0.2212 0.063 Uiso 1 1 calc R U . . . 
H14B H 1.3441 0.6357 0.2429 0.063 Uiso 1 1 calc R U . . . 
H14C H 1.1574 0.6173 0.2979 0.063 Uiso 1 1 calc R U . . . 
C15 C 0.6930(3) 0.5626(2) 0.12756(10) 0.0256(4) Uani 1 1 d . . . . . 
H15A H 0.5394 0.5229 0.1191 0.031 Uiso 1 1 calc R U . . . 
H15B H 0.7345 0.6868 0.1651 0.031 Uiso 1 1 calc R U . . . 
C16 C 0.7718(3) 0.5943(3) 0.04537(11) 0.0343(4) Uani 1 1 d . . . . . 
H16A H 0.9233 0.6417 0.0533 0.051 Uiso 1 1 calc R U . . . 
H16B H 0.7104 0.6890 0.0229 0.051 Uiso 1 1 calc R U . . . 
H16C H 0.7321 0.4725 0.0075 0.051 Uiso 1 1 calc R U . . . 
C17 C 0.6752(3) 0.1309(3) 0.12002(11) 0.0356(5) Uani 1 1 d . . . . . 
H17A H 0.6923 0.1330 0.0617 0.043 Uiso 1 1 calc R U . . . 
H17B H 0.7560 0.0443 0.1396 0.043 Uiso 1 1 calc R U . . . 
C18 C 0.4462(4) 0.0458(3) 0.12674(13) 0.0484(6) Uani 1 1 d . . . . . 
H18A H 0.4268 0.0412 0.1841 0.073 Uiso 1 1 calc R U . . . 
H18B H 0.4019 -0.0847 0.0956 0.073 Uiso 1 1 calc R U . . . 
H18C H 0.3631 0.1261 0.1049 0.073 Uiso 1 1 calc R U . . . 
 
loop_ 
 _atom_site_aniso_label 
 _atom_site_aniso_U_11 
 _atom_site_aniso_U_22 
 _atom_site_aniso_U_33 
 _atom_site_aniso_U_23 
 _atom_site_aniso_U_13 
 _atom_site_aniso_U_12 
Si1 0.0307(3) 0.0275(3) 0.0163(2) 0.00370(19) 0.00678(19) 0.0102(2) 
C1 0.0225(9) 0.0185(8) 0.0161(8) 0.0040(6) 0.0040(6) 0.0072(7) 
C2 0.0211(9) 0.0194(8) 0.0174(8) 0.0042(6) 0.0021(6) 0.0060(7) 
C3 0.0250(9) 0.0202(8) 0.0159(8) 0.0012(6) 0.0025(6) 0.0067(7) 
C4 0.0247(9) 0.0199(8) 0.0200(8) 0.0030(6) -0.0014(7) 0.0058(7) 
S5 0.0230(4) 0.0218(4) 0.0221(3) -0.00083(19) -0.0012(2) 0.0018(2) 
C6 0.0188(10) 0.0247(10) 0.0275(11) 0.0067(9) 0.0029(8) 0.0027(8) 
C7 0.0178(19) 0.025(3) 0.0328(10) 0.0110(13) 0.0067(14) 0.0032(13) 
C8 0.0198(9) 0.0200(8) 0.0243(8) 0.0072(6) 0.0022(7) 0.0054(7) 
C4' 0.0247(9) 0.0199(8) 0.0200(8) 0.0030(6) -0.0014(7) 0.0058(7) 
C5' 0.0230(4) 0.0218(4) 0.0221(3) -0.00083(19) -0.0012(2) 0.0018(2) 
C6' 0.0188(10) 0.0247(10) 0.0275(11) 0.0067(9) 0.0029(8) 0.0027(8) 
S7' 0.0178(19) 0.025(3) 0.0328(10) 0.0110(13) 0.0067(14) 0.0032(13) 
C8' 0.0198(9) 0.0200(8) 0.0243(8) 0.0072(6) 0.0022(7) 0.0054(7) 
C9 0.0202(9) 0.0212(8) 0.0191(8) 0.0058(6) 0.0044(6) 0.0070(7) 
C10 0.0197(8) 0.0189(8) 0.0174(8) 0.0048(6) 0.0024(6) 0.0064(6) 
C11 0.0200(9) 0.0189(8) 0.0208(8) 0.0028(6) 0.0009(7) 0.0038(7) 
C12 0.0259(9) 0.0232(8) 0.0196(8) 0.0033(7) 0.0025(7) 0.0055(7) 
C13 0.0346(11) 0.0481(12) 0.0223(9) 0.0112(8) 0.0111(8) 0.0201(9) 
C14 0.0306(11) 0.0548(13) 0.0406(12) 0.0046(10) 0.0099(9) 0.0095(10) 
C15 0.0286(10) 0.0284(9) 0.0204(8) 0.0031(7) 0.0043(7) 0.0081(8) 
C16 0.0396(12) 0.0430(11) 0.0257(9) 0.0140(8) 0.0084(8) 0.0145(9) 
C17 0.0578(14) 0.0306(10) 0.0193(9) 0.0022(7) 0.0070(9) 0.013(1) 
C18 0.0633(16) 0.0324(11) 0.0384(12) -0.0030(9) 0.0038(11) -0.0035(11) 
 
_geom_special_details 
; 
 All esds (except the esd in the dihedral angle between two l.s. planes) 
 are estimated using the full covariance matrix.  The cell esds are taken 
 into account individually in the estimation of esds in distances, angles 
 and torsion angles; correlations between esds in cell parameters are only 
 used when they are defined by crystal symmetry.  An approximate (isotropic) 
 treatment of cell esds is used for estimating esds involving l.s. planes. 
; 
 
loop_ 
 _geom_bond_atom_site_label_1 
 _geom_bond_atom_site_label_2 
 _geom_bond_distance 
 _geom_bond_site_symmetry_2 
 _geom_bond_publ_flag 
Si1 C12 1.8384(17) . ? 
Si1 C13 1.8700(19) . ? 
Si1 C15 1.8714(17) . ? 
Si1 C17 1.8725(19) . ? 
C1 C10 1.414(2) 2_666 ? 
C1 C2 1.418(2) . ? 
C1 C11 1.432(2) . ? 
C2 C3 1.421(2) . ? 
C2 C10 1.443(2) . ? 
C3 C4' 1.366(2) . ? 
C3 C4 1.366(2) . ? 
C3 H3 0.9500 . ? 
C4 C8 1.432(2) . ? 
C4 S5 1.7433(16) . ? 
S5 C6 1.742(2) . ? 
C6 C7 1.337(6) . ? 
C6 H6 0.9500 . ? 
C7 C8 1.429(4) . ? 
C7 H7 0.9500 . ? 
C8 C9 1.374(2) . ? 
C4' C5' 1.417(10) . ? 
C4' C8' 1.432(2) . ? 
C5' C6' 1.332(11) . ? 
C5' H5' 0.9500 . ? 
C6' S7' 1.740(9) . ? 
C6' H6' 0.9500 . ? 
S7' C8' 1.717(8) . ? 
C8' C9 1.374(2) . ? 
C9 C10 1.420(2) . ? 
C9 H9 0.9500 . ? 
C10 C1 1.414(2) 2_666 ? 
C11 C12 1.208(2) . ? 
C13 C14 1.530(3) . ? 
C13 H13A 0.9900 . ? 
C13 H13B 0.9900 . ? 
C14 H14A 0.9800 . ? 
C14 H14B 0.9800 . ? 
C14 H14C 0.9800 . ? 
C15 C16 1.536(2) . ? 
C15 H15A 0.9900 . ? 
C15 H15B 0.9900 . ? 
C16 H16A 0.9800 . ? 
C16 H16B 0.9800 . ? 
C16 H16C 0.9800 . ? 
C17 C18 1.527(3) . ? 
C17 H17A 0.9900 . ? 
C17 H17B 0.9900 . ? 
C18 H18A 0.9800 . ? 
C18 H18B 0.9800 . ? 
C18 H18C 0.9800 . ? 
 
loop_ 
 _geom_angle_atom_site_label_1 
 _geom_angle_atom_site_label_2 
 _geom_angle_atom_site_label_3 
 _geom_angle 
 _geom_angle_site_symmetry_1 
 _geom_angle_site_symmetry_3 
 _geom_angle_publ_flag 
C12 Si1 C13 109.15(8) . . ? 
C12 Si1 C15 105.83(7) . . ? 
C13 Si1 C15 111.43(8) . . ? 
C12 Si1 C17 109.73(8) . . ? 
C13 Si1 C17 109.32(9) . . ? 
C15 Si1 C17 111.29(8) . . ? 
C10 C1 C2 120.95(14) 2_666 . ? 
C10 C1 C11 119.71(14) 2_666 . ? 
C2 C1 C11 119.33(14) . . ? 
C1 C2 C3 121.33(14) . . ? 
C1 C2 C10 119.47(14) . . ? 
C3 C2 C10 119.19(15) . . ? 
C4' C3 C2 119.68(15) . . ? 
C4 C3 C2 119.68(15) . . ? 
C4 C3 H3 120.2 . . ? 
C2 C3 H3 120.2 . . ? 
C3 C4 C8 121.62(15) . . ? 
C3 C4 S5 128.09(13) . . ? 
C8 C4 S5 110.29(12) . . ? 
C6 S5 C4 91.55(9) . . ? 
C7 C6 S5 112.8(2) . . ? 
C7 C6 H6 123.6 . . ? 
S5 C6 H6 123.6 . . ? 
C6 C7 C8 114.1(4) . . ? 
C6 C7 H7 123.0 . . ? 
C8 C7 H7 123.0 . . ? 
C9 C8 C7 129.0(3) . . ? 
C9 C8 C4 119.77(15) . . ? 
C7 C8 C4 111.3(3) . . ? 
C3 C4' C5' 124.4(7) . . ? 
C3 C4' C8' 121.62(15) . . ? 
C5' C4' C8' 114.0(7) . . ? 
C6' C5' C4' 111.5(10) . . ? 
C6' C5' H5' 124.3 . . ? 
C4' C5' H5' 124.3 . . ? 
C5' C6' S7' 113.7(8) . . ? 
C5' C6' H6' 123.2 . . ? 
S7' C6' H6' 123.2 . . ? 
C8' S7' C6' 92.1(6) . . ? 
C9 C8' C4' 119.77(15) . . ? 
C9 C8' S7' 131.4(5) . . ? 
C4' C8' S7' 108.7(5) . . ? 
C8' C9 C10 120.33(15) . . ? 
C8 C9 C10 120.33(15) . . ? 
C8 C9 H9 119.8 . . ? 
C10 C9 H9 119.8 . . ? 
C1 C10 C9 121.15(14) 2_666 . ? 
C1 C10 C2 119.56(14) 2_666 . ? 
C9 C10 C2 119.30(14) . . ? 
C12 C11 C1 178.01(16) . . ? 
C11 C12 Si1 174.65(15) . . ? 
C14 C13 Si1 115.50(13) . . ? 
C14 C13 H13A 108.4 . . ? 
Si1 C13 H13A 108.4 . . ? 
C14 C13 H13B 108.4 . . ? 
Si1 C13 H13B 108.4 . . ? 
H13A C13 H13B 107.5 . . ? 
C13 C14 H14A 109.5 . . ? 
C13 C14 H14B 109.5 . . ? 
H14A C14 H14B 109.5 . . ? 
C13 C14 H14C 109.5 . . ? 
H14A C14 H14C 109.5 . . ? 
H14B C14 H14C 109.5 . . ? 
C16 C15 Si1 115.20(12) . . ? 
C16 C15 H15A 108.5 . . ? 
Si1 C15 H15A 108.5 . . ? 
C16 C15 H15B 108.5 . . ? 
Si1 C15 H15B 108.5 . . ? 
H15A C15 H15B 107.5 . . ? 
C15 C16 H16A 109.5 . . ? 
C15 C16 H16B 109.5 . . ? 
H16A C16 H16B 109.5 . . ? 
C15 C16 H16C 109.5 . . ? 
H16A C16 H16C 109.5 . . ? 
H16B C16 H16C 109.5 . . ? 
C18 C17 Si1 115.49(14) . . ? 
C18 C17 H17A 108.4 . . ? 
Si1 C17 H17A 108.4 . . ? 
C18 C17 H17B 108.4 . . ? 
Si1 C17 H17B 108.4 . . ? 
H17A C17 H17B 107.5 . . ? 
C17 C18 H18A 109.5 . . ? 
C17 C18 H18B 109.5 . . ? 
H18A C18 H18B 109.5 . . ? 
C17 C18 H18C 109.5 . . ? 
H18A C18 H18C 109.5 . . ? 
H18B C18 H18C 109.5 . . ? 
 
loop_ 
 _geom_torsion_atom_site_label_1 
 _geom_torsion_atom_site_label_2 
 _geom_torsion_atom_site_label_3 
 _geom_torsion_atom_site_label_4 
 _geom_torsion 
 _geom_torsion_site_symmetry_1 
 _geom_torsion_site_symmetry_2 
 _geom_torsion_site_symmetry_3 
 _geom_torsion_site_symmetry_4 
 _geom_torsion_publ_flag 
C10 C1 C2 C3 -177.04(14) 2_666 . . . ? 
C11 C1 C2 C3 4.3(2) . . . . ? 
C10 C1 C2 C10 1.8(2) 2_666 . . . ? 
C11 C1 C2 C10 -176.88(13) . . . . ? 
C1 C2 C3 C4' -179.21(14) . . . . ? 
C10 C2 C3 C4' 1.9(2) . . . . ? 
C1 C2 C3 C4 -179.21(14) . . . . ? 
C10 C2 C3 C4 1.9(2) . . . . ? 
C2 C3 C4 C8 1.2(2) . . . . ? 
C2 C3 C4 S5 -179.20(12) . . . . ? 
C3 C4 S5 C6 -177.95(16) . . . . ? 
C8 C4 S5 C6 1.67(13) . . . . ? 
C4 S5 C6 C7 -0.6(4) . . . . ? 
S5 C6 C7 C8 -0.7(7) . . . . ? 
C6 C7 C8 C9 -177.9(3) . . . . ? 
C6 C7 C8 C4 1.9(7) . . . . ? 
C3 C4 C8 C9 -2.8(2) . . . . ? 
S5 C4 C8 C9 177.53(12) . . . . ? 
C3 C4 C8 C7 177.3(4) . . . . ? 
S5 C4 C8 C7 -2.3(4) . . . . ? 
C2 C3 C4' C5' 179.5(19) . . . . ? 
C2 C3 C4' C8' 1.2(2) . . . . ? 
C3 C4' C5' C6' 178.6(16) . . . . ? 
C8' C4' C5' C6' -3(3) . . . . ? 
C4' C5' C6' S7' 3(3) . . . . ? 
C5' C6' S7' C8' -2(2) . . . . ? 
C3 C4' C8' C9 -2.8(2) . . . . ? 
C5' C4' C8' C9 178.8(17) . . . . ? 
C3 C4' C8' S7' -179.9(7) . . . . ? 
C5' C4' C8' S7' 1.7(18) . . . . ? 
C6' S7' C8' C9 -176.6(7) . . . . ? 
C6' S7' C8' C4' 0.0(11) . . . . ? 
C4' C8' C9 C10 1.2(2) . . . . ? 
S7' C8' C9 C10 177.4(9) . . . . ? 
C7 C8 C9 C10 -179.0(4) . . . . ? 
C4 C8 C9 C10 1.2(2) . . . . ? 
C8' C9 C10 C1 -178.65(14) . . . 2_666 ? 
C8 C9 C10 C1 -178.65(14) . . . 2_666 ? 
C8' C9 C10 C2 1.9(2) . . . . ? 
C8 C9 C10 C2 1.9(2) . . . . ? 
C1 C2 C10 C1 -1.8(2) . . . 2_666 ? 
C3 C2 C10 C1 177.09(13) . . . 2_666 ? 
C1 C2 C10 C9 177.61(13) . . . . ? 
C3 C2 C10 C9 -3.5(2) . . . . ? 
C12 Si1 C13 C14 -53.01(15) . . . . ? 
C15 Si1 C13 C14 63.52(15) . . . . ? 
C17 Si1 C13 C14 -173.04(13) . . . . ? 
C12 Si1 C15 C16 171.81(13) . . . . ? 
C13 Si1 C15 C16 53.28(15) . . . . ? 
C17 Si1 C15 C16 -69.03(15) . . . . ? 
C12 Si1 C17 C18 44.00(16) . . . . ? 
C13 Si1 C17 C18 163.68(14) . . . . ? 
C15 Si1 C17 C18 -72.80(16) . . . . ? 
 
_refine_diff_density_max    0.306 
_refine_diff_density_min   -0.288 
_refine_diff_density_rms    0.056 
 
_iucr_refine_instructions_details 
; 
 
    k15056.res created by SHELXL-2014/7 
 
 
TITL k15056 : space group P-1 
CELL  0.71073   6.6825   7.2546  16.6845   97.8261   94.7607  103.7577 
ZERR    1.000   0.0002   0.0002   0.0005    0.0018    0.0016    0.0016 
LATT  1 
SFAC C H SI S 
UNIT 34 38 2 2 
TEMP -183 
SIZE 0.40 0.35 0.08 
REM COLR red 
REM FORM rhombus-shaped slab 
L.S. 10 
BOND $H 
LIST 4 
CONF 
ACTA 
FMAP 2 
PLAN 5 
REM EXTI    0.000000 not needed. 
WGHT    0.065300    0.038800 
FVAR       0.57714   0.89705 
SI1   3    0.788884    0.379210    0.177759    11.00000    0.03068    0.02749 = 
         0.01630    0.00370    0.00678    0.01023 
C1    1    0.573764    0.459061    0.423909    11.00000    0.02249    0.01853 = 
         0.01614    0.00404    0.00397    0.00724 
C2    1    0.368653    0.365642    0.435207    11.00000    0.02106    0.01944 = 
         0.01743    0.00416    0.00210    0.00598 
C3    1    0.236858    0.226780    0.372645    11.00000    0.02497    0.02024 = 
         0.01595    0.00124    0.00246    0.00674 
AFIX  43 
H3    2    0.285932    0.193461    0.322198    11.00000   -1.20000 
AFIX   0 
EXYZ C4 C4' 
EXYZ C8 C8' 
EADP C4 C4' 
EADP S5 C5' 
EADP C6 C6' 
EADP C7 S7' 
EADP C8 C8' 
SAME 0.010 C8' S7' C6' C5' C4' 
PART 1 
C4    1    0.039249    0.141431    0.385394    21.00000    0.02475    0.01990 = 
         0.02001    0.00296   -0.00139    0.00578 
S5    4   -0.148715   -0.033240    0.319038    21.00000    0.02300    0.02177 = 
         0.02210   -0.00083   -0.00119    0.00177 
C6    1   -0.329743   -0.033028    0.388360    21.00000    0.01882    0.02466 = 
         0.02752    0.00668    0.00286    0.00268 
AFIX  43 
H6    2   -0.467908   -0.111380    0.378112    21.00000   -1.20000 
AFIX   0 
C7    1   -0.253373    0.089264    0.457557    21.00000    0.01783    0.02478 = 
         0.03276    0.01101    0.00672    0.00321 
AFIX  43 
H7    2   -0.333222    0.106987    0.501177    21.00000   -1.20000 
AFIX   0 
C8    1   -0.041062    0.190949    0.460113    21.00000    0.01977    0.02003 = 
         0.02426    0.00715    0.00223    0.00545 
PART 2 
C4'   1    0.039249    0.141431    0.385394   -21.00000    0.02475    0.01990 = 
         0.02001    0.00296   -0.00139    0.00578 
C5'   1   -0.105556    0.002647    0.327141   -21.00000    0.02300    0.02177 = 
         0.02210   -0.00083   -0.00119    0.00177 
AFIX  43 
H5'   2   -0.078488   -0.040911    0.273780   -21.00000   -1.20000 
AFIX   0 
C6'   1   -0.284405   -0.059005    0.356661   -21.00000    0.01882    0.02466 = 
         0.02752    0.00668    0.00286    0.00268 
AFIX  43 
H6'   2   -0.397270   -0.156495    0.327042   -21.00000   -1.20000 
AFIX   0 
S7'   4   -0.291863    0.055803    0.454560   -21.00000    0.01783    0.02478 = 
         0.03276    0.01101    0.00672    0.00321 
C8'   1   -0.041062    0.190949    0.460113   -21.00000    0.01977    0.02003 = 
         0.02426    0.00715    0.00223    0.00545 
PART 0 
C9    1    0.084939    0.321281    0.522274    11.00000    0.02025    0.02122 = 
         0.01910    0.00585    0.00443    0.00698 
AFIX  43 
H9    2    0.032578    0.352446    0.572213    11.00000   -1.20000 
AFIX   0 
C10   1    0.292964    0.409598    0.512246    11.00000    0.01968    0.01890 = 
         0.01744    0.00477    0.00243    0.00637 
C11   1    0.644921    0.422415    0.346085    11.00000    0.01998    0.01895 = 
         0.02083    0.00279    0.00092    0.00377 
C12   1    0.703815    0.396687    0.279902    11.00000    0.02586    0.02316 = 
         0.01957    0.00327    0.00251    0.00547 
C13   1    1.078478    0.431188    0.187884    11.00000    0.03463    0.04815 = 
         0.02228    0.01123    0.01108    0.02009 
AFIX  23 
H13A  2    1.120784    0.324208    0.209778    11.00000   -1.20000 
H13B  2    1.123133    0.433256    0.132831    11.00000   -1.20000 
AFIX   0 
C14   1    1.194152    0.619903    0.242377    11.00000    0.03058    0.05483 = 
         0.04061    0.00465    0.00986    0.00953 
AFIX 137 
H14A  2    1.155077    0.727612    0.221207    11.00000   -1.50000 
H14B  2    1.344053    0.635669    0.242891    11.00000   -1.50000 
H14C  2    1.157439    0.617341    0.297945    11.00000   -1.50000 
AFIX   0 
C15   1    0.692995    0.562599    0.127556    11.00000    0.02855    0.02838 = 
         0.02037    0.00310    0.00430    0.00812 
AFIX  23 
H15A  2    0.539441    0.522924    0.119126    11.00000   -1.20000 
H15B  2    0.734478    0.686778    0.165137    11.00000   -1.20000 
AFIX   0 
C16   1    0.771846    0.594314    0.045374    11.00000    0.03958    0.04303 = 
         0.02568    0.01398    0.00836    0.01449 
AFIX 137 
H16A  2    0.923341    0.641694    0.053319    11.00000   -1.50000 
H16B  2    0.710364    0.689034    0.022904    11.00000   -1.50000 
H16C  2    0.732147    0.472451    0.007459    11.00000   -1.50000 
AFIX   0 
C17   1    0.675202    0.130851    0.120016    11.00000    0.05781    0.03059 = 
         0.01928    0.00217    0.00704    0.01298 
AFIX  23 
H17A  2    0.692305    0.132958    0.061747    11.00000   -1.20000 
H17B  2    0.755985    0.044332    0.139618    11.00000   -1.20000 
AFIX   0 
C18   1    0.446231    0.045758    0.126735    11.00000    0.06329    0.03243 = 
         0.03838   -0.00303    0.00380   -0.00353 
AFIX 137 
H18A  2    0.426789    0.041211    0.184075    11.00000   -1.50000 
H18B  2    0.401893   -0.084678    0.095590    11.00000   -1.50000 
H18C  2    0.363099    0.126142    0.104852    11.00000   -1.50000 
 
AFIX   0 
HKLF 4 
 
REM  k15056 : space group P-1 
REM R1 =  0.0407 for    2735 Fo > 4sig(Fo)  and  0.0558 for all    3560 data 
REM    185 parameters refined using     10 restraints 
 
END 
 
WGHT      0.0641      0.0553 
 
REM Highest difference peak  0.306,  deepest hole -0.288,  1-sigma level  0.056 
Q1    1  -0.0187  0.0751  0.3675  11.00000  0.05    0.31 
Q2    1   0.7137  0.2439  0.1525  11.00000  0.05    0.31 
Q3    1   0.5060  0.6832  0.1814  11.00000  0.05    0.29 
Q4    1   0.6261  0.5352  0.4520  11.00000  0.05    0.29 
Q5    1  -0.1222  0.1374  0.4639  11.00000  0.05    0.29 
; 
_shelx_res_checksum   39285 
 
_shelx_hkl_file
;
  -1   0   0   40.86    2.00   1
  -1   0   0   40.75    1.49   1
  -1   0   0   39.62    1.22   1
  -1   0   0   39.76    1.02   1
  -1   0   0   40.53    1.31   1
  -1   0   0   42.86    3.18   1
  -1   0   0   41.35    1.16   1
   1   0   0   39.04    1.58   1
   1   0   0   39.76    1.36   1
   1   0   0   38.51    1.53   1
   1   0   0   39.86    1.11   1
   1   0   0   36.91    1.16   1
   1   0   0   39.70    1.22   1
  -1   0   0   40.44    2.62   1
  -1   0   0   38.47    2.60   1
   1   0   0   40.81    2.42   1
   1   0   0   38.16    2.62   1
  -2   0   0 1148.32   71.13   1
  -2   0   0 1103.79   34.64   1
  -2   0   0 1142.91   83.05   1
  -2   0   0 1107.38   34.95   1
  -2   0   0 1126.17   28.59   1
  -2   0   0 1105.73   40.68   1
  -2   0   0 1105.76   49.64   1
   2   0   0 1064.48   43.19   1
   2   0   0 1056.01   47.79   1
   2   0   0 1105.79   28.13   1
   2   0   0 1071.18   47.77   1
   2   0   0 1060.23   45.47   1
  -2   0   0 1368.71   76.23   1
  -2   0   0 1228.06   82.79   1
   2   0   0 1258.67   72.48   1
   2   0   0 1157.71   72.25   1
  -3   0   0   24.63    2.27   1
  -3   0   0   24.38    1.65   1
  -3   0   0   25.16    1.62   1
  -3   0   0   24.30    1.84   1
  -3   0   0   21.24    1.42   1
  -3   0   0   21.19    1.64   1
  -3   0   0   24.20    1.67   1
  -3   0   0   24.17    1.47   1
  -3   0   0   24.65    1.52   1
  -3   0   0   24.33    1.89   1
   3   0   0   24.95    1.49   1
   3   0   0   23.74    1.57   1
   3   0   0   24.86    2.02   1
   3   0   0   27.83    1.54   1
   3   0   0   27.44    1.70   1
  -4   0   0    2.23    1.84   1
  -4   0   0    2.23    1.65   1
  -4   0   0    1.39    1.10   1
  -4   0   0    0.65    1.42   1
  -4   0   0    2.10    1.23   1
  -4   0   0    0.39    1.62   1
  -4   0   0    1.13    1.39   1
  -4   0   0    1.94    1.71   1
  -4   0   0    1.40    1.78   1
  -4   0   0   -0.80    1.26   1
  -4   0   0    1.78    1.75   1
   4   0   0    1.77    1.26   1
   4   0   0    0.23    1.49   1
  -5   0   0    0.26    1.15   1
  -5   0   0    0.29    1.14   1
  -5   0   0   -1.71    1.81   1
  -5   0   0    0.05    1.07   1
  -5   0   0    0.07    1.13   1
  -5   0   0    0.45    1.34   1
  -5   0   0   -0.53    1.15   1
   5   0   0   -0.24    1.07   1
   5   0   0    2.26    1.58   1
  -6   0   0   -0.75    2.09   1
  -6   0   0   -0.52    2.77   1
  -6   0   0    2.06    3.36   1
   6   0   0    4.76    2.02   1
  -7   0   0    1.67    2.45   1
  -7   0   0   -1.34    3.46   1
  -7   0   0    0.08    2.23   1
   7   0   0    2.86    2.92   1
  -8   0   0    6.55    4.72   1
  -8   0   0    3.85    3.32   1
   8   0   0    9.92    2.97   1
  -8   1   0    7.70    4.27   1
  -8   1   0    7.42    3.10   1
  -8   1   0   12.86    3.03   1
  -7   1   0   22.92    2.69   1
  -7   1   0   14.34    3.45   1
  -7   1   0   23.97    3.81   1
   6  -1   0    7.62    2.72   1
   6  -1   0    5.00    2.47   1
  -6   1   0    3.49    3.27   1
  -6   1   0    5.86    2.18   1
  -6   1   0    2.21    2.15   1
   5  -1   0   11.19    2.85   1
   5  -1   0   14.21    2.12   1
   5  -1   0   12.52    1.73   1
   5  -1   0   14.48    1.80   1
  -5   1   0   12.54    2.06   1
  -5   1   0   10.74    2.09   1
  -5   1   0   11.08    1.91   1
   4  -1   0    1.60    1.24   1
   4  -1   0    1.53    1.40   1
   4  -1   0    1.14    1.24   1
   4  -1   0    4.39    1.33   1
  -4   1   0   -0.03    1.95   1
  -4   1   0   -0.59    1.73   1
  -4   1   0    1.01    1.27   1
  -4   1   0    3.68    2.18   1
  -4   1   0    1.60    1.80   1
  -4   1   0    1.04    1.76   1
  -4   1   0    1.56    1.56   1
  -4   1   0    0.81    1.33   1
  -4   1   0    1.50    1.33   1
  -4   1   0    0.59    1.33   1
  -4   1   0    2.51    1.56   1
   3  -1   0   13.94    1.46   1
   3  -1   0   12.88    1.33   1
   3  -1   0   15.42    1.24   1
   3  -1   0   15.05    1.38   1
  -3   1   0   12.90    1.21   1
  -3   1   0   12.16    1.18   1
  -3   1   0   14.01    1.21   1
  -3   1   0   12.21    1.65   1
  -3   1   0   13.10    1.43   1
  -3   1   0   11.59    1.38   1
  -3   1   0   15.84    1.58   1
  -3   1   0   13.17    1.24   1
  -3   1   0   13.32    1.31   1
  -3   1   0   15.04    1.21   1
   2  -1   0  255.87   10.32   1
   2  -1   0  255.66   11.92   1
   2  -1   0  251.94   17.94   1
   2  -1   0  259.28    7.73   1
   2  -1   0  248.70    9.69   1
   2  -1   0  260.47    7.09   1
  -2   1   0  256.08    7.13   1
  -2   1   0  263.64    8.16   1
  -2   1   0  262.18    8.14   1
  -2   1   0  254.93    6.69   1
  -2   1   0  262.75    7.28   1
  -2   1   0  266.55    7.38   1
  -2   1   0  264.43    7.33   1
  -2   1   0  260.72    8.22   1
  -2   1   0  250.40   11.27   1
   2  -1   0  258.49   15.79   1
   2  -1   0  262.97   16.58   1
  -2   1   0  281.23   17.98   1
  -2   1   0  283.15   16.34   1
   1  -1   0   22.83    1.04   1
   1  -1   0   21.91    0.92   1
   1  -1   0   23.36    0.89   1
   1  -1   0   23.81    0.96   1
   1  -1   0   20.55    0.99   1
   1  -1   0   22.71    0.87   1
   1  -1   0   21.84    0.98   1
   1  -1   0   23.10    0.87   1
  -1   1   0   23.39    0.63   1
  -1   1   0   23.38    1.13   1
  -1   1   0   22.80    1.32   1
  -1   1   0   21.95    0.87   1
  -1   1   0   22.11    1.20   1
  -1   1   0   20.98    1.01   1
  -1   1   0   22.11    0.84   1
   1  -1   0   18.58    2.50   1
   1  -1   0   22.34    2.31   1
  -1   1   0   21.87    2.48   1
  -1   1   0   18.09    2.45   1
   0  -1   0  240.05    8.00   1
   0  -1   0  240.51    6.98   1
   0  -1   0  232.22    4.96   1
   0  -1   0  234.48    7.03   1
   0  -1   0  233.01    4.79   1
   0  -1   0  239.94    6.60   1
   0  -1   0  230.13    8.96   1
   0   1   0  238.84    7.19   1
   0   1   0  232.36    6.11   1
   0   1   0  236.85    5.28   1
   0   1   0  232.57    6.28   1
   0   1   0  224.53    7.60   1
   0   1   0  232.98    4.73   1
   0   1   0  239.29    5.96   1
   0  -1   0  239.24   14.18   1
   0   1   0  255.35   14.40   1
   0   1   0  247.01   14.52   1
  -1  -1   0   25.11    0.85   1
  -1  -1   0   26.03    1.56   1
  -1  -1   0   25.38    1.96   1
  -1  -1   0   24.43    1.11   1
   1   1   0   28.10    1.40   1
   1   1   0   23.75    1.18   1
   1   1   0   25.34    1.16   1
  -1  -1   0   19.02    3.29   1
  -1  -1   0   21.84    2.98   1
   1   1   0   12.68    2.62   1
   1   1   0   22.24    3.60   1
  -2  -1   0   62.15    2.13   1
  -2  -1   0   61.91    2.76   1
  -2  -1   0   59.32    2.01   1
  -2  -1   0   58.91    3.73   1
  -2  -1   0   58.70    2.98   1
  -2  -1   0   61.42    3.06   1
   2   1   0   55.57    3.69   1
   2   1   0   59.10    2.74   1
   2   1   0   60.35    2.29   1
   2   1   0   57.72    3.41   1
  -3  -1   0  152.51    5.00   1
  -3  -1   0  150.17    5.39   1
  -3  -1   0  155.68    4.77   1
  -3  -1   0  150.05    4.79   1
  -3  -1   0  150.73    5.56   1
  -3  -1   0  149.64    5.29   1
   3   1   0  142.11    4.94   1
   3   1   0  152.16    4.26   1
   3   1   0  149.78    4.47   1
   3   1   0  157.23    4.98   1
  -4  -1   0   97.43    4.23   1
  -4  -1   0   90.79    3.40   1
  -4  -1   0   94.30    4.49   1
  -4  -1   0   98.01    4.08   1
  -4  -1   0   97.34    3.50   1
  -4  -1   0  100.21    5.16   1
  -4  -1   0  100.11    4.87   1
  -4  -1   0   86.94    3.95   1
   4   1   0   94.23    4.72   1
   4   1   0   90.02    4.72   1
   4   1   0   93.65    5.47   1
   4   1   0   91.96    3.74   1
  -5  -1   0   10.66    2.55   1
  -5  -1   0    8.92    1.50   1
  -5  -1   0    8.27    1.82   1
  -5  -1   0    6.87    1.87   1
  -5  -1   0    8.53    1.47   1
  -5  -1   0   10.29    1.95   1
  -5  -1   0   12.37    2.37   1
   5   1   0   15.98    2.55   1
   5   1   0   14.64    2.11   1
  -6  -1   0   65.09    4.21   1
  -6  -1   0   68.37    3.78   1
  -6  -1   0   65.26    3.95   1
   6   1   0   77.66    5.78   1
  -7  -1   0   87.14    6.90   1
  -7  -1   0   86.19    6.77   1
   7   1   0   99.64    5.08   1
  -8  -1   0    3.55    4.85   1
  -8  -1   0    6.03    3.85   1
   8   1   0   14.43    4.32   1
  -8   2   0    2.54    3.53   1
  -8   2   0    0.19    2.73   1
  -8   2   0   -1.19    3.79   1
   7  -2   0  115.81    4.76   1
  -7   2   0  101.02    5.62   1
  -7   2   0  106.05    7.91   1
  -7   2   0  102.21    5.72   1
   6  -2   0   93.16    3.66   1
   6  -2   0   90.95    3.87   1
   6  -2   0   90.55    4.21   1
  -6   2   0   87.30    4.77   1
  -6   2   0   91.68    5.41   1
  -6   2   0   92.42    3.68   1
   5  -2   0   32.03    2.27   1
   5  -2   0   38.98    2.38   1
   5  -2   0   36.08    2.34   1
  -5   2   0   31.84    2.52   1
  -5   2   0   33.25    1.97   1
  -5   2   0   29.07    2.34   1
  -5   2   0   29.83    2.34   1
  -5   2   0   33.28    2.75   1
   4  -2   0  649.41   17.12   1
   4  -2   0  670.08   18.98   1
   4  -2   0  667.07   25.84   1
  -4   2   0  682.16   31.02   1
  -4   2   0  710.97   20.89   1
  -4   2   0  725.41   25.94   1
  -4   2   0  682.71   21.17   1
  -4   2   0  693.67   22.45   1
  -4   2   0  698.72   29.00   1
  -4   2   0  671.53   22.24   1
  -4   2   0  737.37   25.62   1
  -4   2   0  700.44   21.55   1
   3  -2   0   64.69    2.27   1
   3  -2   0   63.95    3.54   1
   3  -2   0   61.92    2.20   1
   3  -2   0   59.31    2.25   1
   3  -2   0   61.68    4.10   1
   3  -2   0   59.38    2.14   1
  -3   2   0   60.59    3.02   1
  -3   2   0   62.34    2.61   1
  -3   2   0   61.74    3.39   1
  -3   2   0   60.96    4.38   1
  -3   2   0   58.70    2.53   1
  -3   2   0   59.59    2.83   1
  -3   2   0   59.59    3.11   1
  -3   2   0   63.10    2.64   1
  -3   2   0   60.58    2.12   1
   2  -2   0    1.67    0.87   1
   2  -2   0    1.92    0.87   1
   2  -2   0    1.71    0.62   1
   2  -2   0    3.38    0.93   1
   2  -2   0    1.31    1.46   1
   2  -2   0    4.30    0.99   1
   2  -2   0    1.18    0.56   1
   2  -2   0    1.52    0.37   1
  -2   2   0    1.70    0.77   1
  -2   2   0    2.19    1.20   1
  -2   2   0    1.40    0.40   1
  -2   2   0    0.80    1.08   1
  -2   2   0    1.65    1.21   1
  -2   2   0    2.35    0.40   1
  -2   2   0    0.83    1.08   1
  -2   2   0    1.05    1.05   1
   1  -2   0   71.20    2.87   1
   1  -2   0   77.54    1.79   1
   1  -2   0   69.94    1.73   1
   1  -2   0   73.39    1.96   1
   1  -2   0   72.17    3.06   1
   1  -2   0   72.35    1.83   1
   1  -2   0   69.91    2.05   1
   1  -2   0   69.67    2.87   1
  -1   2   0   75.04    2.09   1
  -1   2   0   71.41    2.83   1
  -1   2   0   71.57    2.72   1
  -1   2   0   72.16    2.27   1
  -1   2   0   72.59    4.05   1
  -1   2   0   67.55    2.44   1
  -1   2   0   70.71    2.39   1
   1  -2   0   76.96    6.29   1
   1  -2   0   69.09    6.18   1
  -1   2   0   70.47    6.45   1
  -1   2   0   66.72    6.27   1
   0  -2   0  934.24   21.37   1
   0  -2   0  942.51   23.18   1
   0  -2   0  926.92   22.49   1
   0  -2   0  891.86   49.62   1
   0  -2   0  898.60   38.24   1
   0  -2   0  935.37   21.99   1
   0  -2   0  947.19   52.72   1
   0   2   0  865.05   24.85   1
   0   2   0  877.23   32.37   1
   0   2   0  920.72   25.05   1
   0   2   0  919.38   24.73   1
   0   2   0  885.39   31.85   1
   0  -2   0  956.17   57.83   1
   0  -2   0  971.18   56.62   1
   0   2   0 1007.56   53.35   1
   0   2   0  999.26   53.37   1
  -1  -2   0  206.73    5.89   1
  -1  -2   0  217.76    4.71   1
  -1  -2   0  213.45    6.94   1
  -1  -2   0  206.91    8.89   1
  -1  -2   0  213.14    4.97   1
  -1  -2   0  193.57    6.28   1
   1   2   0  199.66    6.68   1
   1   2   0  190.58    5.23   1
   1   2   0  205.96    5.65   1
  -2  -2   0  186.08    5.68   1
  -2  -2   0  174.77    4.91   1
  -2  -2   0  175.02    6.11   1
  -2  -2   0  180.91    6.56   1
  -2  -2   0  173.85    5.07   1
  -2  -2   0  184.44    6.97   1
   2   2   0  172.57    7.74   1
   2   2   0  179.50    6.86   1
   2   2   0  169.29    6.11   1
  -3  -2   0    1.46    1.46   1
  -3  -2   0    2.71    0.78   1
  -3  -2   0    2.30    0.78   1
  -3  -2   0   -0.10    2.09   1
  -3  -2   0    2.50    0.95   1
   3   2   0    4.69    2.26   1
   3   2   0    4.02    1.66   1
   3   2   0    0.98    1.48   1
  -4  -2   0   45.70    2.07   1
  -4  -2   0   44.75    1.92   1
  -4  -2   0   46.62    2.78   1
  -4  -2   0   47.12    2.43   1
   4   2   0   47.05    2.85   1
   4   2   0   53.06    3.15   1
  -5  -2   0   -0.05    1.32   1
  -5  -2   0    0.56    1.59   1
   5   2   0    1.17    2.22   1
   5   2   0   -1.08    1.44   1
  -6  -2   0    2.46    3.56   1
  -6  -2   0   -2.72    2.72   1
   6   2   0    2.03    2.40   1
   6   2   0    0.49    2.25   1
  -7  -2   0    0.12    3.15   1
  -7  -2   0    4.94    5.45   1
   7   2   0    4.85    4.41   1
  -8   3   0   21.64    3.50   1
  -8   3   0   23.07    4.04   1
   7  -3   0    0.10    2.65   1
   7  -3   0    1.70    2.75   1
   7  -3   0    2.32    3.54   1
  -7   3   0    0.88    1.77   1
  -7   3   0    4.15    3.60   1
  -7   3   0    1.93    4.06   1
   6  -3   0    5.11    2.42   1
   6  -3   0    6.55    2.43   1
   6  -3   0    7.67    2.14   1
  -6   3   0    3.00    1.47   1
  -6   3   0    2.62    2.87   1
   5  -3   0   10.54    1.73   1
   5  -3   0    7.84    2.53   1
   5  -3   0   13.48    2.77   1
  -5   3   0    5.70    1.76   1
  -5   3   0    7.98    1.53   1
  -5   3   0    4.87    1.76   1
  -5   3   0   10.63    2.65   1
   4  -3   0    0.16    1.15   1
   4  -3   0   -1.24    1.24   1
   4  -3   0    0.90    0.96   1
   4  -3   0   -0.29    1.15   1
  -4   3   0    0.89    1.35   1
  -4   3   0    0.11    0.73   1
  -4   3   0    0.29    0.75   1
  -4   3   0    0.38    1.58   1
   3  -3   0   -0.16    0.75   1
   3  -3   0    0.33    0.38   1
   3  -3   0    0.13    0.51   1
   3  -3   0   -0.61    0.88   1
   3  -3   0    2.42    1.97   1
   3  -3   0   -0.15    0.98   1
   3  -3   0   -0.10    0.94   1
   3  -3   0   -0.29    0.92   1
  -3   3   0    0.08    1.17   1
  -3   3   0    0.29    1.40   1
  -3   3   0   -0.52    1.50   1
  -3   3   0   -0.54    1.20   1
  -3   3   0    0.05    0.97   1
  -3   3   0    0.05    0.33   1
  -3   3   0    0.34    0.39   1
  -3   3   0   -0.45    0.99   1
   2  -3   0   50.66    1.53   1
   2  -3   0   52.22    2.41   1
   2  -3   0   57.42    2.08   1
   2  -3   0   56.95    2.30   1
   2  -3   0   55.31    2.04   1
   2  -3   0   55.82    1.43   1
   2  -3   0   54.34    2.00   1
  -2   3   0   55.59    1.95   1
  -2   3   0   51.85    2.08   1
  -2   3   0   51.96    2.02   1
  -2   3   0   52.46    3.12   1
  -2   3   0   56.35    1.97   1
  -2   3   0   56.68    2.06   1
  -2   3   0   55.09    2.42   1
   1  -3   0    8.52    0.98   1
   1  -3   0   10.36    0.70   1
   1  -3   0    9.35    1.01   1
   1  -3   0    9.13    1.14   1
   1  -3   0   10.63    1.09   1
   1  -3   0    8.75    1.06   1
   1  -3   0    8.26    1.23   1
  -1   3   0    9.55    1.14   1
  -1   3   0    8.10    0.98   1
  -1   3   0   12.15    1.53   1
  -1   3   0   10.48    1.26   1
  -1   3   0   10.34    1.06   1
  -1   3   0   11.40    1.06   1
  -1   3   0    8.77    1.01   1
   0  -3   0  271.28    6.19   1
   0  -3   0  264.63    6.51   1
   0  -3   0  262.12    8.13   1
   0  -3   0  284.18   14.91   1
   0  -3   0  265.38    6.51   1
   0  -3   0  273.79    6.40   1
   0  -3   0  258.22    9.15   1
   0  -3   0  271.59    7.89   1
   0   3   0  249.72   10.76   1
   0   3   0  263.45    6.80   1
   0   3   0  258.08   11.08   1
   0   3   0  256.47   18.62   1
   0   3   0  248.64    4.81   1
  -1  -3   0   87.08    3.25   1
  -1  -3   0   86.53    2.03   1
  -1  -3   0   87.25    3.59   1
  -1  -3   0   77.96    4.00   1
  -1  -3   0   85.56    2.14   1
  -1  -3   0   84.54    3.87   1
  -1  -3   0   85.64    2.22   1
  -1  -3   0   84.58    1.99   1
   1   3   0   74.07    3.44   1
   1   3   0   80.90    2.90   1
   1   3   0   81.87    2.35   1
   1   3   0   77.81    1.65   1
   1   3   0   79.95    1.62   1
  -2  -3   0  246.88    7.37   1
  -2  -3   0  240.30    9.70   1
  -2  -3   0  240.98   10.66   1
  -2  -3   0  238.07    8.57   1
  -2  -3   0  247.19    8.91   1
  -2  -3   0  231.60    9.51   1
   2   3   0  242.79   10.92   1
   2   3   0  219.64    7.48   1
   2   3   0  227.42    9.78   1
  -3  -3   0  457.09   15.95   1
  -3  -3   0  454.51   13.81   1
  -3  -3   0  447.98   14.72   1
  -3  -3   0  442.01   20.25   1
   3   3   0  427.74   12.87   1
   3   3   0  439.50   11.03   1
  -4  -3   0   87.92    6.13   1
  -4  -3   0   90.42    6.18   1
  -4  -3   0   92.11    5.19   1
  -4  -3   0   88.39    4.98   1
  -4  -3   0   89.16    4.36   1
   4   3   0   92.70    4.17   1
   4   3   0   90.03    4.47   1
  -5  -3   0   13.24    3.10   1
   5   3   0   20.29    2.86   1
   5   3   0   20.82    3.35   1
  -6  -3   0   51.63    4.33   1
  -6  -3   0   39.65    4.06   1
   6   3   0   47.95    3.93   1
   6   3   0   52.07    3.95   1
  -7  -3   0    3.88    3.58   1
  -7  -3   0    6.05    5.96   1
   7   3   0   11.09    5.20   1
   7   3   0   13.11    3.95   1
   8  -4   0    8.96    3.53   1
   8  -4   0   11.18    3.61   1
  -8   4   0    3.09    3.52   1
  -8   4   0    7.02    5.95   1
   7  -4   0  121.71    5.05   1
   7  -4   0  122.25    4.53   1
   7  -4   0  113.13    6.18   1
  -7   4   0  101.68    5.71   1
   6  -4   0    0.94    3.54   1
   6  -4   0    4.62    2.48   1
   6  -4   0   -0.13    3.44   1
  -6   4   0    6.85    5.03   1
  -6   4   0    1.04    1.51   1
   5  -4   0  119.06    4.24   1
   5  -4   0  116.12    4.56   1
   5  -4   0  130.58    4.52   1
   5  -4   0  129.76    5.48   1
  -5   4   0  124.56   11.28   1
  -5   4   0  126.40    5.93   1
  -5   4   0  135.81    6.46   1
   4  -4   0  132.73    5.70   1
   4  -4   0  138.48    4.82   1
   4  -4   0  136.97    6.53   1
   4  -4   0  129.28    5.10   1
   4  -4   0  139.22    5.32   1
   4  -4   0  129.24    4.67   1
  -4   4   0  141.42    7.34   1
  -4   4   0  144.76    8.98   1
  -4   4   0  145.65    5.06   1
   3  -4   0   36.41    1.34   1
   3  -4   0   35.97    2.08   1
   3  -4   0   32.18    2.33   1
   3  -4   0   35.91    2.67   1
   3  -4   0   33.52    2.08   1
   3  -4   0   37.69    2.29   1
   3  -4   0   34.72    2.35   1
  -3   4   0   35.51    2.58   1
  -3   4   0   36.68    1.61   1
   2  -4   0  164.20    4.90   1
   2  -4   0  156.13    5.61   1
   2  -4   0  160.58    4.38   1
   2  -4   0  145.08    5.09   1
   2  -4   0  156.26    5.43   1
   2  -4   0  158.63    4.19   1
   2  -4   0  157.50    4.60   1
   2  -4   0  150.25    4.97   1
  -2   4   0  163.66    7.10   1
  -2   4   0  152.01    5.47   1
  -2   4   0  157.14    6.37   1
  -2   4   0  160.98    7.44   1
  -2   4   0  157.88    6.77   1
  -2   4   0  151.23    7.21   1
  -2   4   0  156.34    5.22   1
   1  -4   0   11.70    1.52   1
   1  -4   0   11.72    1.47   1
   1  -4   0   10.74    1.21   1
   1  -4   0   14.80    1.11   1
   1  -4   0   12.20    1.59   1
   1  -4   0   17.02    1.67   1
   1  -4   0   14.32    1.29   1
  -1   4   0   13.91    1.23   1
  -1   4   0   11.90    1.44   1
  -1   4   0   14.65    1.54   1
  -1   4   0   12.20    1.62   1
  -1   4   0   14.10    1.49   1
  -1   4   0   12.80    1.44   1
  -1   4   0   13.42    1.44   1
   0  -4   0  261.68    8.36   1
   0  -4   0  272.78   15.83   1
   0  -4   0  262.99    5.71   1
   0  -4   0  268.30    5.62   1
   0  -4   0  270.23    6.78   1
   0  -4   0  263.85    6.65   1
   0  -4   0  259.42   16.22   1
   0  -4   0  268.03    5.67   1
   0   4   0  255.15    8.51   1
   0   4   0  241.50    7.38   1
   0   4   0  261.01    7.29   1
   0   4   0  255.89    6.74   1
   0   4   0  264.37    6.01   1
  -1  -4   0   20.63    1.38   1
  -1  -4   0   19.94    1.10   1
  -1  -4   0   23.31    2.03   1
  -1  -4   0   16.43    1.17   1
  -1  -4   0   19.09    1.36   1
  -1  -4   0   19.49    1.76   1
  -1  -4   0   19.97    1.19   1
   1   4   0   22.02    1.07   1
   1   4   0   15.06    2.22   1
   1   4   0   22.95    1.34   1
   1   4   0   20.88    1.05   1
  -2  -4   0   38.94    1.89   1
  -2  -4   0   37.21    1.38   1
  -2  -4   0   38.20    1.42   1
  -2  -4   0   37.95    1.40   1
  -2  -4   0   38.37    1.42   1
  -2  -4   0   41.66    2.57   1
   2   4   0   32.43    2.82   1
   2   4   0   39.90    2.75   1
   2   4   0   41.66    4.15   1
  -3  -4   0  237.93    8.36   1
  -3  -4   0  239.03   11.08   1
  -3  -4   0  243.81    9.91   1
  -3  -4   0  232.16    8.95   1
   3   4   0  219.08    6.69   1
   3   4   0  231.42   10.59   1
  -4  -4   0    1.78    2.26   1
   4   4   0    5.53    2.67   1
   4   4   0    6.42    2.77   1
  -5  -4   0    2.91    3.62   1
   5   4   0    5.35    3.96   1
   5   4   0    5.79    2.97   1
  -6  -4   0    2.62    4.01   1
  -6  -4   0    0.98    3.34   1
   6   4   0    1.70    2.87   1
   6   4   0   -2.14    2.64   1
   8  -5   0    0.36    5.37   1
   8  -5   0    2.90    5.53   1
  -8   5   0    3.90    5.20   1
   7  -5   0    2.05    3.01   1
   7  -5   0    0.47    3.01   1
  -7   5   0    0.40    4.00   1
   6  -5   0    3.19    3.63   1
   6  -5   0   -0.81    3.43   1
   6  -5   0   -0.06    1.97   1
  -6   5   0    1.00    4.97   1
   5  -5   0    0.67    1.79   1
   5  -5   0   -0.97    1.71   1
   5  -5   0   -0.15    0.84   1
   5  -5   0   -0.20    0.88   1
  -5   5   0    0.49    3.42   1
   4  -5   0    8.40    1.35   1
   4  -5   0    8.30    1.32   1
   4  -5   0    4.37    2.05   1
   4  -5   0    6.86    2.04   1
   4  -5   0    5.08    2.01   1
   4  -5   0    4.12    1.93   1
  -4   5   0    3.71    2.52   1
  -4   5   0    4.88    0.85   1
   3  -5   0   82.35    3.20   1
   3  -5   0   83.70    3.68   1
   3  -5   0   81.05    4.25   1
   3  -5   0   78.91    3.74   1
   3  -5   0   84.47    3.66   1
   3  -5   0   83.93    3.76   1
   3  -5   0   84.72    3.89   1
  -3   5   0   78.95    3.66   1
   2  -5   0    9.32    1.94   1
   2  -5   0    9.80    1.60   1
   2  -5   0    9.07    1.92   1
   2  -5   0   12.48    1.66   1
   2  -5   0   14.85    1.16   1
   2  -5   0   12.90    1.68   1
   2  -5   0   15.58    1.18   1
  -2   5   0   13.54    2.02   1
  -2   5   0    9.41    1.81   1
   1  -5   0  236.36    8.22   1
   1  -5   0  234.25    9.03   1
   1  -5   0  231.77    6.94   1
   1  -5   0  247.13    8.14   1
   1  -5   0  240.75    8.48   1
   1  -5   0  243.17    8.22   1
   1  -5   0  233.33    8.82   1
  -1   5   0  235.01   11.29   1
  -1   5   0  230.95   10.82   1
  -1   5   0  228.55    8.95   1
  -1   5   0  248.55   11.89   1
   0  -5   0  347.88   18.93   1
   0  -5   0  353.79   12.87   1
   0  -5   0  363.41   12.09   1
   0  -5   0  364.29   20.39   1
   0  -5   0  343.27   10.90   1
   0  -5   0  346.29   10.74   1
   0  -5   0  339.43   10.35   1
   0  -5   0  349.07    9.70   1
   0   5   0  339.38   13.33   1
   0   5   0  340.91   11.88   1
   0   5   0  331.66   12.46   1
   0   5   0  330.97   15.50   1
  -1  -5   0   66.31    2.13   1
  -1  -5   0   58.43    3.22   1
  -1  -5   0   63.16    2.05   1
  -1  -5   0   61.74    2.01   1
  -1  -5   0   63.90    2.68   1
  -1  -5   0   59.52    2.22   1
   1   5   0   58.89    2.07   1
   1   5   0   63.45    2.31   1
   1   5   0   63.60    3.45   1
   1   5   0   57.17    2.87   1
  -2  -5   0  254.66    7.14   1
  -2  -5   0  242.86    8.11   1
  -2  -5   0  254.32    8.68   1
  -2  -5   0  258.79    9.27   1
  -2  -5   0  257.21    7.10   1
   2   5   0  236.89    9.52   1
   2   5   0  242.99   11.40   1
   2   5   0  234.90    9.94   1
  -3  -5   0    6.24    2.19   1
   3   5   0   15.91    3.75   1
   3   5   0   10.44    3.30   1
  -4  -5   0   11.15    2.59   1
   4   5   0   16.50    3.09   1
   4   5   0   16.52    3.01   1
  -5  -5   0   21.47    3.39   1
   5   5   0   23.23    3.56   1
   5   5   0   23.72    3.63   1
   7  -6   0    3.02    3.59   1
   7  -6   0    5.16    3.53   1
  -7   6   0    4.90    4.90   1
   6  -6   0   17.26    2.97   1
   6  -6   0   20.41    3.05   1
  -6   6   0   15.17    4.74   1
   5  -6   0   46.50    3.82   1
   5  -6   0   47.25    3.80   1
  -5   6   0   39.02    3.89   1
   4  -6   0   52.31    3.30   1
   4  -6   0   56.67    3.32   1
   4  -6   0   49.20    3.15   1
   4  -6   0   58.41    3.48   1
   4  -6   0   55.79    4.87   1
   4  -6   0   49.22    5.17   1
  -4   6   0   54.31    3.81   1
  -4   6   0   53.54    3.37   1
   3  -6   0    7.63    2.01   1
   3  -6   0   12.65    0.98   1
   3  -6   0   10.15    2.06   1
   3  -6   0   11.21    1.14   1
   3  -6   0    6.00    1.90   1
   3  -6   0    8.13    1.93   1
  -3   6   0   10.22    2.30   1
  -3   6   0   10.61    2.51   1
   2  -6   0    9.82    2.27   1
   2  -6   0   18.75    1.32   1
   2  -6   0   13.00    2.24   1
   2  -6   0   10.79    2.32   1
   2  -6   0   17.15    2.04   1
   2  -6   0   10.38    2.29   1
   2  -6   0   16.35    1.12   1
  -2   6   0   16.00    2.34   1
  -2   6   0   14.69    2.44   1
   1  -6   0   46.43    3.14   1
   1  -6   0   42.51    2.40   1
   1  -6   0   52.39    2.67   1
   1  -6   0   48.86    3.00   1
   1  -6   0   50.23    2.94   1
   1  -6   0   41.04    2.78   1
  -1   6   0   45.81    3.23   1
  -1   6   0   47.14    2.60   1
   0  -6   0   15.16    2.02   1
   0  -6   0   18.19    2.20   1
   0  -6   0   20.55    2.00   1
   0  -6   0   17.52    1.98   1
   0  -6   0   15.01    1.88   1
   0  -6   0   13.91    1.80   1
   0   6   0   17.76    1.63   1
   0   6   0   18.76    2.66   1
   0   6   0   19.81    1.66   1
   0   6   0   19.22    2.05   1
  -1  -6   0    5.46    1.28   1
  -1  -6   0    4.18    1.66   1
  -1  -6   0    4.77    1.25   1
  -1  -6   0    4.45    1.72   1
  -1  -6   0    4.68    2.08   1
   1   6   0    5.40    1.39   1
   1   6   0    7.19    1.69   1
   1   6   0    4.80    1.15   1
   1   6   0    6.79    2.61   1
  -2  -6   0  128.74    6.02   1
   2   6   0  120.80    6.27   1
   2   6   0  123.02    5.50   1
   2   6   0  113.09    6.21   1
  -3  -6   0   33.65    3.28   1
   3   6   0   41.91    3.89   1
   3   6   0   31.80    4.18   1
  -4  -6   0   -0.48    2.28   1
   4   6   0    1.95    3.75   1
   4   6   0   -0.27    3.52   1
  -5  -6   0   30.16    3.85   1
   7  -7   0   14.30    3.59   1
   7  -7   0   13.96    3.77   1
  -7   7   0   19.65    5.84   1
   6  -7   0    1.05    2.47   1
   6  -7   0   -2.47    2.47   1
  -6   7   0   -0.76    3.45   1
   5  -7   0  101.73    5.14   1
   5  -7   0  114.56    5.46   1
  -5   7   0  108.87    6.21   1
  -5   7   0  110.97    6.41   1
   4  -7   0   29.62    3.12   1
   4  -7   0   28.05    3.57   1
   4  -7   0   28.79    3.03   1
   4  -7   0   31.66    3.59   1
  -4   7   0   28.95    4.27   1
  -4   7   0   31.14    3.94   1
   3  -7   0    6.74    3.11   1
   3  -7   0    6.63    2.95   1
   3  -7   0   11.20    1.36   1
   3  -7   0    7.32    3.03   1
   3  -7   0    3.28    2.81   1
  -3   7   0   14.17    3.88   1
  -3   7   0    8.54    2.81   1
   2  -7   0   74.35    3.70   1
   2  -7   0   77.81    3.60   1
   2  -7   0   78.33    4.69   1
   2  -7   0   82.30    3.92   1
   2  -7   0   74.46    5.00   1
   2  -7   0   81.18    3.81   1
  -2   7   0   76.69    3.81   1
  -2   7   0   65.62    4.97   1
   1  -7   0   97.78    3.72   1
   1  -7   0   86.80    4.38   1
   1  -7   0   96.38    3.58   1
   1  -7   0   87.84    4.12   1
   1  -7   0   97.31    5.33   1
   1  -7   0   95.06    6.42   1
  -1   7   0   87.01    5.04   1
  -1   7   0   95.55    4.83   1
   0  -7   0    0.61    1.63   1
   0  -7   0    0.18    1.23   1
   0  -7   0   -0.57    1.28   1
   0  -7   0    0.08    1.23   1
   0  -7   0    0.10    1.29   1
   0   7   0   -0.91    1.40   1
   0   7   0    0.52    2.39   1
  -1  -7   0   73.55    4.73   1
   1   7   0   70.59    4.86   1
   1   7   0   76.70    4.85   1
  -2  -7   0   11.86    3.10   1
   2   7   0    8.45    4.98   1
   2   7   0   12.38    3.90   1
  -3  -7   0    8.39    4.22   1
   3   7   0   12.54    3.55   1
   3   7   0   12.81    4.85   1
   6  -8   0    0.30    3.84   1
   6  -8   0    0.90    3.94   1
  -6   8   0    5.87    6.31   1
  -6   8   0    4.84    5.51   1
   5  -8   0   17.69    3.20   1
   5  -8   0   13.84    2.99   1
  -5   8   0   17.75    4.15   1
  -5   8   0   11.96    3.32   1
   4  -8   0    0.67    2.25   1
   4  -8   0   -1.40    2.36   1
   4  -8   0   -0.40    2.30   1
   4  -8   0   -0.57    2.22   1
  -4   8   0    0.57    3.01   1
  -4   8   0    1.11    3.93   1
   3  -8   0    0.03    3.13   1
   3  -8   0   -0.80    3.08   1
   3  -8   0    1.19    2.17   1
   3  -8   0   -1.45    2.11   1
  -3   8   0   -0.95    3.76   1
  -3   8   0    1.43    2.97   1
   2  -8   0    0.97    3.31   1
   2  -8   0    2.60    3.60   1
   2  -8   0    2.60    3.31   1
   2  -8   0    3.25    2.57   1
   2  -8   0    2.47    2.56   1
  -2   8   0    4.34    3.70   1
  -2   8   0    7.21    4.16   1
   1  -8   0   11.53    2.77   1
   1  -8   0    6.42    2.10   1
   1  -8   0    7.64    2.22   1
   1  -8   0    8.22    2.77   1
   1  -8   0    5.20    2.63   1
   1  -8   0   11.68    1.77   1
  -1   8   0    9.82    3.57   1
  -1   8   0   12.62    2.54   1
   0  -8   0    0.08    2.04   1
   0   8   0   -4.21    4.21   1
  -1  -8   0    9.97    3.15   1
   1   8   0    7.69    4.06   1
  -2  -8   0   30.31    3.63   1
   2   8   0   31.43    5.49   1
   2   8   0   31.18    5.77   1
   4  -9   0    0.68    3.99   1
   4  -9   0   -1.10    4.26   1
  -4   9   0   -1.26    3.63   1
  -4   9   0    0.93    3.61   1
   3  -9   0   16.50    3.17   1
   3  -9   0   21.80    3.38   1
   3  -9   0   21.28    3.31   1
   3  -9   0   16.14    3.31   1
  -3   9   0   32.21    4.95   1
  -3   9   0   22.90    5.45   1
   2  -9   0   18.45    3.42   1
  -2   9   0   19.84    4.38   1
  -2   9   0   12.30    4.22   1
   1  -9   0   -0.80    4.58   1
  -1   9   0   -0.13    4.51   1
   0  -9   0    6.44    5.11   1
   0   9   0    4.80    4.77   1
   0   9  -1    4.94    4.41   1
   0  -9   1    5.97    3.29   1
  -1   9  -1   77.60    6.07   1
   1  -9   1   74.51    4.97   1
  -2   9  -1   11.49    3.34   1
  -2   9  -1   10.82    4.35   1
   2  -9   1    2.82    2.70   1
   2  -9   1    6.56    3.91   1
   2  -9   1    7.59    3.14   1
   2  -9   1    5.49    2.90   1
   2  -9   1    5.16    3.91   1
  -3   9  -1   39.50    5.64   1
  -3   9  -1   48.73    4.27   1
   3  -9   1   39.09    4.39   1
   3  -9   1   40.92    4.48   1
   3  -9   1   37.79    4.54   1
   3  -9   1   38.35    4.43   1
  -4   9  -1    8.52    6.44   1
  -4   9  -1   13.27    5.25   1
   4  -9   1    5.90    3.92   1
   4  -9   1    3.63    3.92   1
   4  -9   1    4.04    3.76   1
   4  -9   1    3.28    3.95   1
   2   8  -1   -0.89    3.32   1
   2   8  -1   -0.69    4.83   1
  -2  -8   1    1.97    2.89   1
   1   8  -1    0.84    3.82   1
  -1  -8   1   -0.69    2.80   1
   0   8  -1   -3.05    3.80   1
   0  -8   1   -1.21    2.62   1
  -1   8  -1    2.66    3.25   1
  -1   8  -1   -0.28    3.41   1
   1  -8   1    2.07    3.38   1
   1  -8   1    2.10    1.41   1
   1  -8   1   -1.71    2.56   1
   1  -8   1   -1.53    2.09   1
   1  -8   1    1.25    2.22   1
   1  -8   1    0.75    2.13   1
  -2   8  -1    6.37    2.79   1
  -2   8  -1    1.83    3.42   1
   2  -8   1    2.64    2.37   1
   2  -8   1    5.76    2.55   1
   2  -8   1    3.78    3.21   1
   2  -8   1    0.84    2.40   1
   2  -8   1    0.12    3.18   1
  -3   8  -1    3.95    3.28   1
  -3   8  -1    0.80    3.34   1
   3  -8   1    0.74    2.51   1
   3  -8   1   -1.44    2.60   1
   3  -8   1    1.41    2.64   1
   3  -8   1   -0.49    2.32   1
   3  -8   1   -0.95    2.32   1
  -4   8  -1    0.95    3.04   1
  -4   8  -1   -1.28    3.34   1
   4  -8   1    4.27    3.88   1
   4  -8   1    2.93    2.76   1
   4  -8   1    1.81    3.88   1
   4  -8   1    2.04    2.68   1
  -5   8  -1   -0.18    5.84   1
  -5   8  -1    2.78    3.66   1
   5  -8   1    2.39    4.44   1
   5  -8   1    3.96    4.83   1
   5  -8   1    3.73    4.30   1
   5  -8   1    4.13    4.52   1
  -6   8  -1    2.79    5.57   1
  -6   8  -1   -0.70    4.71   1
   6  -8   1    1.33    4.05   1
   6  -8   1    2.22    3.88   1
   3   7  -1    9.21    3.58   1
   3   7  -1   12.71    3.94   1
  -3  -7   1   10.90    3.27   1
   2   7  -1  113.17    6.41   1
   2   7  -1  115.37    7.30   1
  -2  -7   1  124.83    6.23   1
   1   7  -1   28.56    4.15   1
   1   7  -1   27.13    2.02   1
  -1  -7   1   23.49    2.84   1
   0   7  -1   60.69    3.11   1
   0   7  -1   54.51    4.47   1
   0  -7   1   65.56    2.96   1
   0  -7   1   58.53    2.78   1
   0  -7   1   63.53    3.75   1
   0  -7   1   51.22    2.65   1
   0  -7   1   60.28    2.83   1
  -1   7  -1    0.95    2.69   1
  -1   7  -1    4.00    2.54   1
   1  -7   1    0.38    1.84   1
   1  -7   1    2.12    2.02   1
   1  -7   1    1.08    1.90   1
   1  -7   1    1.27    1.93   1
   1  -7   1    3.56    2.10   1
  -2   7  -1   11.80    2.64   1
  -2   7  -1    5.05    2.61   1
   2  -7   1    8.28    2.08   1
   2  -7   1    8.61    2.16   1
   2  -7   1    9.28    2.86   1
   2  -7   1    8.78    1.33   1
   2  -7   1    8.70    2.17   1
   2  -7   1    9.06    2.86   1
  -3   7  -1   19.31    2.95   1
   3  -7   1   14.00    2.41   1
   3  -7   1   11.98    3.05   1
   3  -7   1   15.82    3.00   1
   3  -7   1   13.48    2.36   1
  -4   7  -1   10.24    3.57   1
  -4   7  -1    2.92    3.74   1
   4  -7   1    0.00    2.72   1
   4  -7   1    1.93    2.89   1
   4  -7   1    3.27    2.89   1
   4  -7   1    3.94    3.05   1
  -5   7  -1    1.65    2.98   1
  -5   7  -1    3.90    3.81   1
   5  -7   1    2.63    2.90   1
   5  -7   1    0.87    2.82   1
   5  -7   1    2.38    2.97   1
   5  -7   1    1.02    2.67   1
  -6   7  -1   16.65    4.22   1
   6  -7   1   26.63    4.19   1
   6  -7   1   18.42    4.10   1
  -7   7  -1    2.90    4.83   1
   7  -7   1   -1.18    3.67   1
   7  -7   1    0.78    3.53   1
   5   6  -1    2.76    3.84   1
   5   6  -1    5.63    5.72   1
  -5  -6   1    3.95    3.66   1
   4   6  -1   27.05    4.34   1
   4   6  -1   31.66    3.70   1
  -4  -6   1   24.98    3.33   1
   3   6  -1    1.17    3.59   1
   3   6  -1   -1.64    3.70   1
  -3  -6   1   -0.55    2.25   1
   2   6  -1  122.57    7.32   1
   2   6  -1  128.70    6.23   1
   2   6  -1  120.32    6.45   1
  -2  -6   1  125.59    5.33   1
   1   6  -1   -1.43    1.46   1
   1   6  -1    0.30    1.49   1
   1   6  -1   -0.54    1.09   1
   1   6  -1   -1.05    2.81   1
  -1  -6   1   -0.52    1.03   1
  -1  -6   1    0.03    0.94   1
  -1  -6   1   -0.05    0.93   1
  -1  -6   1   -0.05    1.57   1
  -1  -6   1   -0.08    1.07   1
   0   6  -1    8.98    1.95   1
   0   6  -1    9.02    2.55   1
   0  -6   1    6.18    1.52   1
   0  -6   1    7.98    1.97   1
   0  -6   1    8.30    1.95   1
   0  -6   1    8.83    1.57   1
   0  -6   1    4.72    1.86   1
  -1   6  -1  267.79   10.05   1
  -1   6  -1  269.80   11.18   1
   1  -6   1  258.57   10.90   1
   1  -6   1  275.19   12.91   1
   1  -6   1  263.66    9.95   1
   1  -6   1  272.12    8.70   1
   1  -6   1  266.86    9.44   1
   1  -6   1  261.23    8.60   1
   1  -6   1  266.65   12.65   1
  -2   6  -1   10.83    2.35   1
  -2   6  -1   10.70    2.77   1
   2  -6   1    8.29    1.83   1
   2  -6   1    9.44    1.94   1
   2  -6   1   12.59    1.20   1
   2  -6   1    8.45    1.72   1
   2  -6   1    8.05    1.89   1
   2  -6   1   11.19    2.00   1
   2  -6   1   12.78    1.26   1
  -3   6  -1   43.22    3.85   1
  -3   6  -1   47.63    3.30   1
   3  -6   1   49.45    2.86   1
   3  -6   1   45.20    3.95   1
   3  -6   1   39.27    2.73   1
   3  -6   1   48.22    2.90   1
   3  -6   1   44.42    2.46   1
   3  -6   1   45.98    2.93   1
   3  -6   1   43.70    2.86   1
  -4   6  -1  185.73    7.02   1
   4  -6   1  182.19    6.59   1
   4  -6   1  174.81    8.36   1
   4  -6   1  176.42    7.66   1
   4  -6   1  176.92    5.90   1
   4  -6   1  162.86    5.67   1
   4  -6   1  185.43    5.97   1
  -5   6  -1   27.49    3.71   1
   5  -6   1   26.43    2.92   1
   5  -6   1   30.06    3.18   1
   5  -6   1   18.25    2.73   1
   5  -6   1   21.53    2.80   1
  -6   6  -1   16.47    3.99   1
   6  -6   1   16.29    3.65   1
   6  -6   1   14.14    3.71   1
  -7   6  -1    3.37    5.14   1
   7  -6   1    3.83    3.63   1
   7  -6   1   -0.82    3.44   1
   5   5  -1    1.35    3.83   1
   5   5  -1   -1.77    3.63   1
  -5  -5   1    0.92    2.69   1
   4   5  -1   22.11    3.20   1
   4   5  -1   23.94    3.20   1
  -4  -5   1   17.67    3.00   1
   3   5  -1    7.52    2.62   1
   3   5  -1    3.68    3.16   1
  -3  -5   1    7.84    1.08   1
  -3  -5   1    3.39    2.14   1
   2   5  -1   40.02    3.06   1
   2   5  -1   32.72    2.86   1
   2   5  -1   36.89    1.61   1
  -2  -5   1   33.76    1.75   1
  -2  -5   1   36.73    1.70   1
  -2  -5   1   36.61    2.70   1
  -2  -5   1   32.71    1.54   1
  -2  -5   1   34.31    1.75   1
   1   5  -1  198.65    8.09   1
   1   5  -1  197.72    7.89   1
   1   5  -1  200.40   11.34   1
   1   5  -1  192.07    8.02   1
  -1  -5   1  206.23    7.92   1
  -1  -5   1  218.02    9.03   1
  -1  -5   1  210.14    7.87   1
  -1  -5   1  214.80    7.36   1
  -1  -5   1  220.52    8.73   1
  -1  -5   1  216.17    9.05   1
   0   5  -1   85.89    3.52   1
   0   5  -1   83.16    3.11   1
   0   5  -1   90.12    3.41   1
   0   5  -1   94.06    3.90   1
   0  -5   1   84.92    3.53   1
   0  -5   1   83.50    3.28   1
   0  -5   1   89.24    3.11   1
   0  -5   1   84.35    3.47   1
   0  -5   1   85.42    3.51   1
   0  -5   1   82.40    3.45   1
   0  -5   1   93.83    4.16   1
   0  -5   1   88.18    3.94   1
  -1   5  -1   87.60    5.19   1
  -1   5  -1   92.27    5.27   1
  -1   5  -1   90.97    5.31   1
  -1   5  -1   89.55    3.61   1
   1  -5   1   92.56    2.92   1
   1  -5   1   86.50    3.54   1
   1  -5   1   90.41    3.10   1
   1  -5   1   91.33    3.54   1
   1  -5   1   89.14    3.93   1
   1  -5   1   92.42    3.63   1
   1  -5   1   89.46    3.25   1
  -2   5  -1    9.53    1.97   1
  -2   5  -1    5.68    1.77   1
   2  -5   1    9.88    1.60   1
   2  -5   1    7.45    1.69   1
   2  -5   1    6.80    1.63   1
   2  -5   1   10.59    1.74   1
   2  -5   1    8.08    0.86   1
   2  -5   1   11.17    2.03   1
   2  -5   1    8.22    1.69   1
  -3   5  -1    4.40    3.00   1
  -3   5  -1    4.31    1.19   1
   3  -5   1    6.48    0.77   1
   3  -5   1    6.41    2.44   1
   3  -5   1    1.75    1.61   1
   3  -5   1    4.52    2.26   1
   3  -5   1    3.21    1.67   1
   3  -5   1    5.70    0.86   1
   3  -5   1    6.38    0.89   1
  -4   5  -1   22.77    2.97   1
  -4   5  -1   21.41    1.63   1
   4  -5   1   24.83    1.31   1
   4  -5   1   21.98    2.37   1
   4  -5   1   20.65    2.63   1
   4  -5   1   23.54    2.44   1
   4  -5   1   20.37    2.68   1
   4  -5   1   25.51    1.70   1
   4  -5   1   25.63    1.63   1
  -5   5  -1    5.22    3.34   1
  -5   5  -1    4.72    0.94   1
   5  -5   1    3.12    2.37   1
   5  -5   1    1.59    2.35   1
   5  -5   1    8.22    2.65   1
   5  -5   1    5.85    1.44   1
   5  -5   1    1.69    2.25   1
  -6   5  -1   42.05    4.21   1
   6  -5   1   48.02    3.39   1
   6  -5   1   46.24    3.28   1
  -7   5  -1    0.98    6.01   1
   7  -5   1    4.06    3.08   1
   7  -5   1    4.76    3.30   1
  -8   5  -1    0.25    7.40   1
   8  -5   1   -4.32    5.23   1
   8  -5   1    8.48    5.53   1
   6   4  -1    2.44    2.74   1
   6   4  -1    4.07    2.96   1
  -6  -4   1    0.22    2.83   1
   5   4  -1    0.16    2.15   1
   5   4  -1    0.03    2.16   1
  -5  -4   1   -0.25    2.92   1
   4   4  -1   21.83    3.17   1
   4   4  -1   20.48    2.73   1
  -4  -4   1   19.44    1.45   1
  -4  -4   1   18.25    1.30   1
  -4  -4   1   16.55    2.46   1
   3   4  -1   31.05    3.02   1
   3   4  -1   29.30    3.00   1
  -3  -4   1   27.22    1.64   1
  -3  -4   1   29.27    2.86   1
  -3  -4   1   29.37    1.59   1
  -3  -4   1   28.15    1.38   1
   2   4  -1   34.28    2.51   1
   2   4  -1   31.85    2.45   1
   2   4  -1   34.27    1.60   1
  -2  -4   1   32.05    2.04   1
  -2  -4   1   30.81    2.31   1
  -2  -4   1   30.97    1.56   1
  -2  -4   1   33.28    1.58   1
   1   4  -1    1.50    0.75   1
   1   4  -1    0.18    1.43   1
   1   4  -1    1.55    0.72   1
   1   4  -1    1.27    0.81   1
  -1  -4   1    1.52    1.74   1
  -1  -4   1    1.22    1.06   1
  -1  -4   1    1.41    0.81   1
  -1  -4   1    1.99    1.59   1
  -1  -4   1    1.59    0.84   1
  -1  -4   1    1.12    1.12   1
  -1  -4   1    0.34    1.43   1
  -1  -4   1    0.53    1.09   1
   0   4  -1  264.06    6.94   1
   0   4  -1  285.26    7.13   1
   0   4  -1  271.37   11.63   1
   0   4  -1  282.67    8.74   1
   0   4  -1  272.65    6.76   1
   0  -4   1  287.91    8.55   1
   0  -4   1  276.26    7.29   1
   0  -4   1  269.08    8.96   1
   0  -4   1  285.97    7.57   1
   0  -4   1  279.86    9.66   1
   0  -4   1  282.74    6.49   1
   0  -4   1  274.44    7.57   1
   0  -4   1  286.73    7.38   1
  -1   4  -1  317.54   12.84   1
  -1   4  -1  315.97   13.74   1
  -1   4  -1  305.72   17.88   1
  -1   4  -1  305.65    9.14   1
  -1   4  -1  318.88   12.27   1
   1  -4   1  304.37   13.90   1
   1  -4   1  324.06    9.22   1
   1  -4   1  304.14    9.78   1
   1  -4   1  316.21    8.61   1
   1  -4   1  325.86    9.70   1
   1  -4   1  318.17    8.36   1
   1  -4   1  311.97    9.03   1
  -2   4  -1   75.88    4.23   1
  -2   4  -1   77.37    3.85   1
  -2   4  -1   80.20    2.84   1
  -2   4  -1   75.85    2.71   1
  -2   4  -1   76.35    2.93   1
  -2   4  -1   70.69    3.78   1
  -2   4  -1   67.74    3.57   1
   2  -4   1   73.95    2.84   1
   2  -4   1   75.47    2.97   1
   2  -4   1   70.66    4.29   1
   2  -4   1   75.42    2.99   1
   2  -4   1   78.43    2.73   1
   2  -4   1   70.12    3.16   1
   2  -4   1   77.68    2.58   1
   2  -4   1   78.97    3.63   1
  -3   4  -1   80.22    4.38   1
  -3   4  -1   74.10    5.25   1
  -3   4  -1   80.55    3.59   1
   3  -4   1   78.16    3.65   1
   3  -4   1   82.62    3.50   1
   3  -4   1   82.09    3.25   1
   3  -4   1   79.23    3.29   1
   3  -4   1   78.91    3.93   1
   3  -4   1   77.96    3.08   1
   3  -4   1   79.01    3.40   1
  -4   4  -1   16.12    2.58   1
  -4   4  -1   13.47    1.33   1
  -4   4  -1   16.21    0.99   1
   4  -4   1   16.34    1.20   1
   4  -4   1   10.64    1.81   1
   4  -4   1   12.30    1.91   1
   4  -4   1   17.59    1.84   1
   4  -4   1   14.88    2.04   1
   4  -4   1   12.26    1.89   1
   4  -4   1   19.43    1.35   1
  -5   4  -1   36.37    3.40   1
  -5   4  -1   38.73    2.66   1
  -5   4  -1   36.71    1.84   1
   5  -4   1   32.81    2.56   1
   5  -4   1   39.11    2.75   1
   5  -4   1   38.09    1.93   1
  -6   4  -1   40.22    3.84   1
  -6   4  -1   44.06    2.44   1
   6  -4   1   52.63    2.51   1
   6  -4   1   48.76    3.22   1
   6  -4   1   47.96    3.17   1
  -7   4  -1    0.69    4.34   1
   7  -4   1    0.58    2.30   1
   7  -4   1    0.13    2.30   1
   7  -4   1    0.39    1.67   1
  -8   4  -1   32.76    4.67   1
  -8   4  -1   25.38    3.58   1
   8  -4   1   35.82    3.71   1
   8  -4   1   36.87    3.78   1
   7   3  -1    4.08    3.43   1
   7   3  -1    3.19    4.98   1
  -7  -3   1    2.74    3.91   1
  -7  -3   1    2.51    4.37   1
   6   3  -1   12.37    2.92   1
   6   3  -1   14.68    2.92   1
  -6  -3   1    6.55    3.69   1
   5   3  -1   18.97    2.53   1
   5   3  -1   23.04    2.79   1
  -5  -3   1   16.79    2.62   1
  -5  -3   1   16.79    1.40   1
  -5  -3   1   15.71    1.35   1
   4   3  -1  140.40    5.32   1
   4   3  -1  147.95    7.54   1
  -4  -3   1  135.32    5.92   1
  -4  -3   1  137.97    7.58   1
  -4  -3   1  133.24    5.21   1
  -4  -3   1  126.41    8.67   1
  -4  -3   1  133.39    4.12   1
  -4  -3   1  142.30    4.83   1
   3   3  -1   37.62    2.54   1
   3   3  -1   38.17    2.52   1
  -3  -3   1   34.38    2.45   1
  -3  -3   1   33.77    1.41   1
  -3  -3   1   34.26    1.50   1
  -3  -3   1   35.63    1.32   1
   2   3  -1    5.76    1.41   1
   2   3  -1    5.71    1.46   1
   2   3  -1    7.66    1.52   1
  -2  -3   1    7.47    0.76   1
  -2  -3   1    4.93    1.41   1
  -2  -3   1    7.01    0.68   1
  -2  -3   1    8.09    1.73   1
  -2  -3   1    6.63    0.73   1
  -2  -3   1    5.52    1.73   1
   1   3  -1  196.66    7.22   1
   1   3  -1  199.28    5.25   1
   1   3  -1  199.62    6.75   1
   1   3  -1  198.78   11.01   1
   1   3  -1  198.25    4.28   1
  -1  -3   1  212.04    5.62   1
  -1  -3   1  215.52    6.51   1
  -1  -3   1  216.84    9.60   1
  -1  -3   1  211.56    7.66   1
  -1  -3   1  210.71    8.97   1
  -1  -3   1  214.16    5.67   1
   0   3  -1   45.28    2.32   1
   0   3  -1   41.72    2.32   1
   0   3  -1   43.52    1.96   1
   0   3  -1   40.44    1.85   1
   0   3  -1   44.66    2.23   1
   0  -3   1   44.46    1.83   1
   0  -3   1   42.34    1.87   1
   0  -3   1   41.94    1.62   1
   0  -3   1   43.36    1.56   1
   0  -3   1   43.63    2.05   1
   0  -3   1   41.52    1.49   1
   0  -3   1   45.25    2.03   1
   0  -3   1   46.85    2.57   1
  -1   3  -1  110.14    3.53   1
  -1   3  -1  107.90    3.56   1
  -1   3  -1  106.08    5.38   1
  -1   3  -1  109.26    2.92   1
  -1   3  -1  111.84    4.61   1
  -1   3  -1  108.36    3.26   1
  -1   3  -1  107.76    4.07   1
  -1   3  -1  112.71    2.80   1
   1  -3   1  109.04    2.94   1
   1  -3   1  104.30    3.45   1
   1  -3   1  112.82    3.00   1
   1  -3   1  110.11    3.39   1
   1  -3   1  106.26    2.48   1
   1  -3   1  107.59    4.20   1
   1  -3   1  113.29    2.96   1
  -2   3  -1  292.65   10.78   1
  -2   3  -1  306.22   11.56   1
  -2   3  -1  291.83    7.82   1
  -2   3  -1  294.79    7.17   1
  -2   3  -1  302.41    6.77   1
  -2   3  -1  303.63    7.75   1
  -2   3  -1  299.83    8.43   1
   2  -3   1  293.87    8.75   1
   2  -3   1  286.66   12.44   1
   2  -3   1  304.03   12.05   1
   2  -3   1  288.89   12.66   1
   2  -3   1  278.53   14.57   1
   2  -3   1  305.93   12.25   1
   2  -3   1  298.66    7.92   1
   2  -3   1  309.43    8.16   1
  -3   3  -1    4.27    0.68   1
  -3   3  -1    6.84    1.87   1
  -3   3  -1    4.52    1.44   1
  -3   3  -1    7.03    0.83   1
  -3   3  -1    3.01    1.32   1
  -3   3  -1    5.87    1.47   1
  -3   3  -1    3.90    1.45   1
  -3   3  -1    4.06    1.39   1
   3  -3   1    5.07    0.92   1
   3  -3   1    6.83    1.47   1
   3  -3   1    6.25    0.92   1
   3  -3   1    4.48    1.35   1
   3  -3   1    8.52    1.51   1
   3  -3   1    3.08    1.26   1
   3  -3   1    6.20    0.98   1
  -4   3  -1   57.60    2.81   1
  -4   3  -1   62.69    3.83   1
  -4   3  -1   59.64    4.04   1
  -4   3  -1   56.60    3.16   1
  -4   3  -1   62.92    2.96   1
   4  -3   1   68.01    2.81   1
   4  -3   1   61.06    2.64   1
   4  -3   1   59.24    2.72   1
   4  -3   1   65.45    2.23   1
   4  -3   1   60.62    2.72   1
  -5   3  -1  144.33    9.40   1
  -5   3  -1  135.15    4.91   1
  -5   3  -1  138.81    5.21   1
  -5   3  -1  145.50    5.18   1
   5  -3   1  148.30    4.46   1
   5  -3   1  142.50    5.15   1
   5  -3   1  137.43    4.12   1
  -6   3  -1   63.86    2.97   1
  -6   3  -1   57.95    4.03   1
   6  -3   1   60.34    3.33   1
   6  -3   1   61.83    3.26   1
   6  -3   1   59.14    2.93   1
  -7   3  -1   71.66    4.23   1
  -7   3  -1   66.25    3.71   1
  -7   3  -1   69.94    4.71   1
   7  -3   1   64.45    3.69   1
   7  -3   1   75.08    3.93   1
  -8   3  -1    2.47    5.18   1
  -8   3  -1    6.00    3.15   1
   8  -3   1   13.86    3.23   1
   8  -3   1   11.89    3.23   1
   7   2  -1    7.67    4.46   1
  -7  -2   1    0.57    3.68   1
  -7  -2   1    0.98    3.38   1
   6   2  -1    8.74    2.55   1
   6   2  -1    9.23    2.55   1
  -6  -2   1    5.22    2.70   1
  -6  -2   1    6.59    2.90   1
   5   2  -1    3.94    2.08   1
   5   2  -1    1.85    2.08   1
  -5  -2   1   -1.01    2.70   1
  -5  -2   1    1.89    1.60   1
  -5  -2   1    0.19    2.99   1
   4   2  -1   85.33    4.66   1
   4   2  -1   83.19    4.83   1
  -4  -2   1   86.41    4.43   1
  -4  -2   1   88.93    3.76   1
  -4  -2   1   88.65    3.51   1
  -4  -2   1   92.77    4.21   1
  -4  -2   1   91.15    4.04   1
   3   2  -1   88.46    3.18   1
   3   2  -1   91.71    4.85   1
   3   2  -1   88.35    3.78   1
   3   2  -1   87.87    3.48   1
  -3  -2   1   83.65    3.25   1
  -3  -2   1   87.32    4.61   1
  -3  -2   1   86.52    3.76   1
   2   2  -1   50.41    2.58   1
   2   2  -1   47.96    2.10   1
   2   2  -1   53.52    2.23   1
   2   2  -1   54.92    3.13   1
  -2  -2   1   54.09    2.65   1
  -2  -2   1   51.71    3.02   1
  -2  -2   1   55.53    2.70   1
  -2  -2   1   55.27    2.28   1
   1   2  -1  173.08    7.22   1
   1   2  -1  161.64    8.89   1
   1   2  -1  151.20    5.06   1
  -1  -2   1  171.35    6.61   1
  -1  -2   1  169.89    5.95   1
  -1  -2   1  173.11    7.90   1
  -1  -2   1  169.55    4.97   1
  -1  -2   1  173.29    6.06   1
  -1  -2   1  171.52    5.48   1
   0   2  -1   38.49    1.19   1
   0   2  -1   37.48    1.37   1
   0   2  -1   40.99    1.72   1
   0   2  -1   36.64    1.43   1
   0   2  -1   35.90    1.81   1
   0  -2   1   39.17    1.41   1
   0  -2   1   37.44    1.65   1
   0  -2   1   40.43    1.18   1
   0  -2   1   39.60    1.34   1
   0  -2   1   40.32    1.61   1
   0  -2   1   40.44    1.90   1
   0  -2   1   38.79    1.50   1
   0  -2   1   40.05    1.28   1
   0  -2   1   38.46    1.72   1
   0   2  -1   32.79    4.87   1
   0   2  -1   40.57    5.20   1
   0  -2   1   39.36    5.07   1
   0  -2   1   37.35    5.22   1
  -1   2  -1  813.27   15.26   1
  -1   2  -1  792.66   27.06   1
  -1   2  -1  793.40   16.57   1
  -1   2  -1  814.23   54.47   1
  -1   2  -1  793.59   23.13   1
  -1   2  -1  813.23   16.29   1
  -1   2  -1  807.99   28.47   1
   1  -2   1  833.62   16.83   1
   1  -2   1  766.88   34.16   1
   1  -2   1  772.26   24.39   1
   1  -2   1  803.66   18.20   1
   1  -2   1  830.51   18.29   1
   1  -2   1  761.16   31.68   1
   1  -2   1  819.69   16.03   1
  -1   2  -1  947.34   50.98   1
  -1   2  -1  937.55   56.64   1
   1  -2   1  945.52   52.19   1
   1  -2   1  882.48   61.80   1
  -2   2  -1  245.63    4.85   1
  -2   2  -1  255.64    5.87   1
  -2   2  -1  253.16   15.66   1
  -2   2  -1  260.58   17.60   1
  -2   2  -1  248.34    5.15   1
  -2   2  -1  245.96    8.72   1
  -2   2  -1  239.60    5.40   1
  -2   2  -1  246.66    9.49   1
   2  -2   1  235.53    7.98   1
   2  -2   1  254.37   17.00   1
   2  -2   1  257.05    8.26   1
   2  -2   1  249.48    6.42   1
   2  -2   1  242.27    7.51   1
   2  -2   1  256.80    7.01   1
   2  -2   1  241.91    9.17   1
  -3   2  -1    0.07    0.77   1
  -3   2  -1    0.05    0.47   1
  -3   2  -1   -0.34    0.77   1
  -3   2  -1   -0.45    0.45   1
  -3   2  -1    0.09    1.03   1
  -3   2  -1   -0.19    0.72   1
  -3   2  -1    0.55    0.76   1
  -3   2  -1    0.26    0.75   1
  -3   2  -1   -0.14    0.59   1
   3  -2   1    0.26    0.79   1
   3  -2   1    0.58    0.75   1
   3  -2   1    0.00    0.77   1
   3  -2   1    1.93    1.13   1
   3  -2   1    0.24    0.76   1
   3  -2   1   -0.09    1.01   1
  -4   2  -1   46.06    2.73   1
  -4   2  -1   45.03    2.20   1
  -4   2  -1   43.22    2.58   1
  -4   2  -1   45.82    2.80   1
  -4   2  -1   48.89    2.44   1
  -4   2  -1   45.80    1.90   1
  -4   2  -1   52.07    2.49   1
  -4   2  -1   43.99    2.40   1
  -4   2  -1   45.07    2.24   1
   4  -2   1   47.91    2.22   1
   4  -2   1   46.64    2.40   1
   4  -2   1   45.80    2.35   1
  -5   2  -1   16.65    2.88   1
  -5   2  -1   16.55    1.86   1
  -5   2  -1   17.59    2.21   1
  -5   2  -1   12.76    2.12   1
  -5   2  -1   19.24    2.05   1
   5  -2   1   22.10    1.89   1
   5  -2   1   23.68    2.05   1
  -6   2  -1   19.92    2.77   1
  -6   2  -1   14.81    2.23   1
  -6   2  -1   13.24    2.18   1
   6  -2   1   24.83    2.37   1
   6  -2   1   21.33    2.72   1
   6  -2   1   21.05    2.72   1
  -7   2  -1    5.10    2.63   1
  -7   2  -1    5.26    2.13   1
  -7   2  -1    7.39    4.21   1
   7  -2   1    8.03    3.24   1
   7  -2   1    8.06    3.32   1
  -8   2  -1    0.15    5.33   1
  -8   2  -1    0.80    3.08   1
  -8   2  -1    2.71    2.74   1
   8   1  -1   24.79    3.17   1
  -8  -1   1   15.47    4.68   1
  -8  -1   1   19.68    3.82   1
  -7  -1   1    7.78    2.99   1
  -7  -1   1    7.32    2.86   1
   6   1  -1    5.26    2.29   1
  -6  -1   1    2.86    3.67   1
  -6  -1   1    2.23    1.92   1
  -6  -1   1    2.39    2.80   1
   5   1  -1   96.61    4.62   1
   5   1  -1   88.23    3.57   1
   5   1  -1   89.32    3.99   1
  -5  -1   1   85.96    3.97   1
  -5  -1   1   84.78    3.82   1
  -5  -1   1   86.72    3.93   1
  -5  -1   1   92.58    4.98   1
  -5  -1   1   83.12    4.06   1
  -5  -1   1   91.59    3.89   1
   4   1  -1    2.40    1.91   1
   4   1  -1    0.74    1.17   1
   4   1  -1    0.37    1.13   1
  -4  -1   1    0.43    1.01   1
  -4  -1   1   -0.12    0.96   1
  -4  -1   1   -1.25    2.05   1
  -4  -1   1    1.35    1.73   1
  -4  -1   1    0.61    1.84   1
  -4  -1   1    0.59    1.35   1
   3   1  -1   13.40    1.44   1
   3   1  -1   15.49    1.76   1
   3   1  -1   13.98    1.82   1
   3   1  -1   10.75    1.46   1
  -3  -1   1   10.51    2.13   1
  -3  -1   1   11.75    1.30   1
  -3  -1   1   10.90    2.13   1
  -3  -1   1    9.71    1.27   1
  -3  -1   1   11.81    1.57   1
  -3  -1   1   10.62    1.13   1
  -3  -1   1   10.57    1.36   1
  -3  -1   1   11.43    1.41   1
   2   1  -1   66.20    4.34   1
   2   1  -1   73.04    3.52   1
   2   1  -1   70.60    2.70   1
   2   1  -1   70.11    2.87   1
  -2  -1   1   71.68    6.61   1
  -2  -1   1   68.01    2.55   1
  -2  -1   1   69.87    4.86   1
  -2  -1   1   68.65    3.20   1
  -2  -1   1   69.47    2.33   1
   1   1  -1  163.53    5.15   1
   1   1  -1  171.93    5.36   1
   1   1  -1  169.94    4.98   1
  -1  -1   1  168.91    9.02   1
  -1  -1   1  175.62    6.22   1
  -1  -1   1  163.65    5.83   1
  -1  -1   1  169.66    5.64   1
   1   1  -1  186.54   11.66   1
   1   1  -1  165.92   10.54   1
  -1  -1   1  174.37   11.22   1
  -1  -1   1  166.29   10.62   1
   0   1  -1   82.19    3.78   1
   0   1  -1   81.57    2.78   1
   0   1  -1   87.24    3.70   1
   0   1  -1   82.45    1.80   1
   0   1  -1   83.41    1.80   1
   0   1  -1   81.51    2.74   1
   0  -1   1   86.51    3.25   1
   0  -1   1   81.63    2.46   1
   0  -1   1   81.12    1.92   1
   0  -1   1   84.83    2.54   1
   0  -1   1   86.94    2.89   1
   0  -1   1   85.77    2.91   1
   0   1  -1   87.09    5.89   1
   0   1  -1   83.31    5.73   1
   0  -1   1   90.67    5.96   1
   0  -1   1   82.10    5.79   1
  -1   1  -1  873.82   31.46   1
  -1   1  -1  907.84   20.30   1
  -1   1  -1  894.85   62.04   1
  -1   1  -1  894.10   15.38   1
  -1   1  -1  865.52   15.57   1
  -1   1  -1  904.45   40.92   1
  -1   1  -1  900.38   34.23   1
  -1   1  -1  898.32   56.27   1
  -1   1  -1  882.23   32.56   1
   1  -1   1  873.85   19.45   1
   1  -1   1  849.42   34.71   1
   1  -1   1  859.27   30.80   1
   1  -1   1  877.74   30.94   1
   1  -1   1  873.28   20.46   1
   1  -1   1  902.02   34.95   1
  -1   1  -1  872.44   51.87   1
  -1   1  -1  997.60   54.19   1
   1  -1   1  882.42   70.95   1
   1  -1   1  971.72   56.89   1
  -2   1  -1  661.90   16.11   1
  -2   1  -1  664.48   14.89   1
  -2   1  -1  618.07   13.22   1
  -2   1  -1  671.56   15.32   1
  -2   1  -1  648.21   29.51   1
  -2   1  -1  609.31   13.26   1
  -2   1  -1  633.32   21.55   1
  -2   1  -1  647.19   23.74   1
  -2   1  -1  637.38   24.19   1
   2  -1   1  618.38   19.11   1
   2  -1   1  633.95   14.19   1
   2  -1   1  594.83   26.87   1
   2  -1   1  662.75   24.96   1
   2  -1   1  631.00   14.88   1
   2  -1   1  634.12   14.58   1
   2  -1   1  606.46   13.54   1
  -2   1  -1  686.86   39.14   1
  -2   1  -1  727.41   38.57   1
   2  -1   1  660.47   50.88   1
   2  -1   1  685.08   42.96   1
  -3   1  -1  345.45   10.15   1
  -3   1  -1  367.90   12.14   1
  -3   1  -1  350.30    8.12   1
  -3   1  -1  366.18   10.35   1
  -3   1  -1  359.97    7.98   1
  -3   1  -1  356.40   15.24   1
  -3   1  -1  357.41   11.31   1
  -3   1  -1  355.72    9.01   1
  -3   1  -1  372.43    8.17   1
  -3   1  -1  375.19   11.80   1
   3  -1   1  351.15   12.02   1
   3  -1   1  336.60    7.54   1
   3  -1   1  337.22    7.08   1
   3  -1   1  351.36    7.73   1
  -4   1  -1    0.50    1.03   1
  -4   1  -1    0.98    1.78   1
  -4   1  -1    0.06    1.28   1
  -4   1  -1   -0.48    1.03   1
  -4   1  -1    0.20    1.14   1
  -4   1  -1   -0.56    1.65   1
  -4   1  -1    0.31    1.03   1
  -4   1  -1    0.67    1.03   1
  -4   1  -1    0.25    0.98   1
  -4   1  -1   -0.50    1.06   1
  -4   1  -1    0.89    1.23   1
   4  -1   1    0.09    1.01   1
   4  -1   1    0.33    1.37   1
   4  -1   1    0.00    1.37   1
   4  -1   1    1.17    1.62   1
  -5   1  -1   28.48    2.60   1
  -5   1  -1   29.75    2.34   1
  -5   1  -1   29.68    2.55   1
   5  -1   1   33.77    2.13   1
   5  -1   1   35.64    2.44   1
   5  -1   1   30.72    2.70   1
   5  -1   1   31.02    2.04   1
  -6   1  -1   97.59    4.13   1
  -6   1  -1   97.04    5.43   1
  -6   1  -1  103.58    6.59   1
   6  -1   1  101.80    3.64   1
   6  -1   1   95.90    4.67   1
   6  -1   1  106.21    3.73   1
  -7   1  -1    4.20    3.73   1
  -7   1  -1    2.32    2.36   1
  -7   1  -1    3.25    3.94   1
   7  -1   1    6.38    2.53   1
  -8   1  -1   10.76    3.13   1
  -8   1  -1   11.16    4.08   1
  -8   1  -1   13.82    3.11   1
   8   0  -1    6.16    3.55   1
  -8   0   1    5.51    4.85   1
  -8   0   1    3.17    4.56   1
   7   0  -1   37.29    3.03   1
  -7   0   1   34.03    3.47   1
  -7   0   1   26.80    4.05   1
  -7   0   1   24.14    3.54   1
   6   0  -1    6.39    1.78   1
   6   0  -1   11.10    2.61   1
  -6   0   1    4.53    2.05   1
  -6   0   1    6.55    3.01   1
  -6   0   1    5.54    1.86   1
   5   0  -1   87.83    3.56   1
   5   0  -1   97.65    4.20   1
  -5   0   1   82.09   10.52   1
  -5   0   1   90.76    3.94   1
  -5   0   1   80.81    5.87   1
  -5   0   1   92.01    4.48   1
  -5   0   1   90.97    5.63   1
   4   0  -1   31.20    2.01   1
   4   0  -1   33.98    2.28   1
  -4   0   1   31.91    2.63   1
  -4   0   1   26.28    2.01   1
  -4   0   1   28.09    2.37   1
  -4   0   1   26.54    2.10   1
  -4   0   1   30.72    2.17   1
  -4   0   1   26.45    2.26   1
  -4   0   1   29.23    2.12   1
  -4   0   1   31.63    2.10   1
  -4   0   1   27.03    2.56   1
  -4   0   1   26.50    1.89   1
   3   0  -1    0.89    0.89   1
   3   0  -1    0.25    0.59   1
   3   0  -1    1.67    1.38   1
  -3   0   1    0.20    0.96   1
  -3   0   1   -0.25    0.86   1
  -3   0   1    0.76    0.95   1
  -3   0   1    0.44    0.96   1
  -3   0   1   -0.25    0.77   1
  -3   0   1    0.69    0.94   1
  -3   0   1    0.91    3.57   1
  -3   0   1    0.59    0.69   1
   2   0  -1    7.42    0.89   1
   2   0  -1    7.86    0.92   1
   2   0  -1    7.24    1.09   1
   2   0  -1    5.11    1.03   1
  -2   0   1    8.45    1.12   1
  -2   0   1    6.89    0.98   1
  -2   0   1    6.94    0.83   1
  -2   0   1    6.00    0.80   1
  -2   0   1   10.52    1.18   1
  -2   0   1    7.36    0.94   1
  -2   0   1    7.32    0.80   1
  -2   0   1    7.57    0.86   1
   2   0  -1    4.60    1.37   1
   2   0  -1    4.85    1.45   1
  -2   0   1    4.30    1.53   1
  -2   0   1    6.51    1.44   1
   1   0  -1 1439.46   40.89   1
   1   0  -1 1471.38   50.00   1
   1   0  -1 1512.92   37.98   1
   1   0  -1 1522.22   59.23   1
   1   0  -1 1479.08   46.28   1
  -1   0   1 1546.73   50.65   1
  -1   0   1 1553.64   47.48   1
  -1   0   1 1516.83   37.52   1
  -1   0   1 1515.61   46.19   1
  -1   0   1 1524.14   57.47   1
  -1   0   1 1518.70   56.11   1
  -1   0   1 1506.90   50.64   1
  -1   0   1 1562.60   38.79   1
   1   0  -1 1464.35   92.81   1
   1   0  -1 1534.96  103.06   1
  -1   0   1 1559.67  106.29   1
  -1   0   1 1566.79   93.75   1
  -1   0  -1  479.56   16.05   1
  -1   0  -1  490.81   11.57   1
  -1   0  -1  499.48   10.80   1
  -1   0  -1  498.70   11.95   1
  -1   0  -1  493.70   22.17   1
  -1   0  -1  503.72   27.75   1
  -1   0  -1  494.97   16.10   1
  -1   0  -1  497.91   10.85   1
  -1   0  -1  501.63   20.68   1
   1   0   1  470.70   11.35   1
   1   0   1  475.90   13.99   1
   1   0   1  497.55   10.65   1
   1   0   1  495.34   10.13   1
   1   0   1  490.90   10.82   1
   1   0   1  503.49   15.47   1
   1   0   1  486.38   10.87   1
   1   0   1  496.40   14.39   1
  -1   0  -1  501.77   31.01   1
  -1   0  -1  519.76   32.59   1
   1   0   1  508.35   31.67   1
   1   0   1  505.12   32.23   1
  -2   0  -1   76.98    2.49   1
  -2   0  -1   81.79    2.47   1
  -2   0  -1   78.28    1.96   1
  -2   0  -1   80.31    4.67   1
  -2   0  -1   79.11    4.49   1
  -2   0  -1   82.98    2.00   1
  -2   0  -1   76.78    2.84   1
  -2   0  -1   83.09    4.32   1
  -2   0  -1   79.50    2.80   1
   2   0   1   80.79    1.81   1
   2   0   1   77.67    2.52   1
   2   0   1   78.53    2.41   1
   2   0   1   85.11    4.02   1
   2   0   1   80.45    1.66   1
   2   0   1   74.19    3.31   1
  -2   0  -1   86.30    5.27   1
  -2   0  -1   85.25    6.91   1
   2   0   1   79.15    5.27   1
   2   0   1   74.46    5.17   1
  -3   0  -1  413.13   12.08   1
  -3   0  -1  423.14   15.83   1
  -3   0  -1  395.18   16.52   1
  -3   0  -1  398.03   10.28   1
  -3   0  -1  428.13   13.10   1
  -3   0  -1  415.29   13.81   1
  -3   0  -1  415.20   20.35   1
  -3   0  -1  408.04   22.56   1
  -3   0  -1  407.90   12.60   1
  -3   0  -1  406.01   10.00   1
   3   0   1  395.99   11.46   1
   3   0   1  402.33   14.57   1
   3   0   1  402.14   11.43   1
   3   0   1  404.40   11.32   1
   3   0   1  407.26   11.07   1
  -4   0  -1    5.88    2.06   1
  -4   0  -1    7.29    1.63   1
  -4   0  -1    9.12    1.66   1
  -4   0  -1    8.46    1.61   1
  -4   0  -1    7.48    1.24   1
  -4   0  -1    7.72    1.83   1
  -4   0  -1    7.17    2.12   1
  -4   0  -1    7.11    2.03   1
  -4   0  -1    6.37    1.83   1
  -4   0  -1    7.22    1.46   1
  -4   0  -1    7.03    1.20   1
   4   0   1    8.72    1.52   1
   4   0   1    7.77    1.57   1
   4   0   1   10.20    1.61   1
   4   0   1    8.49    1.81   1
  -5   0  -1   13.95    1.95   1
  -5   0  -1   10.83    2.25   1
  -5   0  -1   10.68    1.50   1
  -5   0  -1   10.33    1.87   1
  -5   0  -1   10.11    1.52   1
  -5   0  -1    9.59    1.50   1
  -5   0  -1   10.56    1.57   1
   5   0   1   11.91    1.85   1
  -6   0  -1    7.65    2.95   1
  -6   0  -1    5.46    2.89   1
  -6   0  -1    4.73    2.13   1
   6   0   1    8.96    2.10   1
  -7   0  -1    0.72    3.09   1
  -7   0  -1    1.69    2.39   1
  -7   0  -1    2.38    3.53   1
   7   0   1    1.93    2.26   1
  -8   0  -1    1.04    2.67   1
  -8   0  -1    0.60    4.04   1
   8   0   1    1.92    2.27   1
  -8   1   1    1.29    3.13   1
  -8   1   1   -0.36    5.12   1
   7  -1  -1   21.23    3.13   1
  -7   1   1   14.56    2.88   1
  -7   1   1   11.58    2.59   1
  -7   1   1   11.31    2.33   1
   6  -1  -1    9.55    1.85   1
   6  -1  -1   20.72    3.18   1
  -6   1   1   15.09    2.17   1
  -6   1   1   12.93    2.27   1
  -6   1   1   15.60    2.53   1
   5  -1  -1   67.88    3.18   1
   5  -1  -1   74.22    3.03   1
  -5   1   1   68.71    3.03   1
  -5   1   1   66.18    4.15   1
  -5   1   1   67.10    3.42   1
  -5   1   1   67.63    5.02   1
  -5   1   1   61.40    3.35   1
   4  -1  -1  150.99    3.62   1
   4  -1  -1  155.76    5.53   1
   4  -1  -1  145.04    3.62   1
   4  -1  -1  143.68    5.25   1
  -4   1   1  147.06    5.47   1
  -4   1   1  151.07    5.98   1
  -4   1   1  145.75    7.99   1
  -4   1   1  147.72    5.13   1
  -4   1   1  140.79    7.56   1
  -4   1   1  144.85    6.15   1
  -4   1   1  142.49    5.38   1
  -4   1   1  143.82    7.18   1
  -4   1   1  150.66    5.77   1
  -4   1   1  140.12    7.05   1
  -4   1   1  152.19    5.30   1
   3  -1  -1   41.25    3.54   1
   3  -1  -1   43.40    1.81   1
   3  -1  -1   41.29    3.33   1
   3  -1  -1   42.41    1.79   1
  -3   1   1   43.20    2.29   1
  -3   1   1   41.89    6.96   1
  -3   1   1   40.03    1.72   1
  -3   1   1   39.68    1.86   1
  -3   1   1   41.68    1.91   1
  -3   1   1   40.27    6.12   1
  -3   1   1   39.12    6.64   1
  -3   1   1   37.32    6.64   1
  -3   1   1   42.25    2.02   1
  -3   1   1   39.78    3.42   1
   2  -1  -1    8.86    0.96   1
   2  -1  -1   11.47    1.16   1
   2  -1  -1   12.35    1.05   1
   2  -1  -1   10.80    0.99   1
   2  -1  -1   10.26    1.10   1
  -2   1   1   11.27    1.19   1
  -2   1   1    9.17    1.16   1
  -2   1   1   10.43    1.16   1
  -2   1   1   11.02    1.22   1
  -2   1   1   10.97    0.94   1
  -2   1   1   11.57    0.74   1
  -2   1   1   10.52    1.13   1
  -2   1   1   10.80    0.88   1
  -2   1   1   11.79    0.94   1
   2  -1  -1    7.73    1.72   1
   2  -1  -1   10.85    2.08   1
  -2   1   1    5.85    2.22   1
  -2   1   1    6.00    1.99   1
   1  -1  -1  860.85   21.16   1
   1  -1  -1  871.71   32.41   1
   1  -1  -1  880.92   30.17   1
   1  -1  -1  865.45   29.59   1
  -1   1   1  905.83   25.98   1
  -1   1   1  876.41   28.48   1
  -1   1   1  876.20   20.14   1
  -1   1   1  883.01   20.00   1
  -1   1   1  905.03   33.30   1
  -1   1   1  908.82   25.50   1
  -1   1   1  910.08   23.89   1
   1  -1  -1  938.66   57.25   1
   1  -1  -1  903.63   54.74   1
  -1   1   1  987.19   58.17   1
  -1   1   1 1021.16   51.72   1
   0  -1  -1 1003.32   19.58   1
   0  -1  -1 1013.61   20.31   1
   0  -1  -1  965.56   29.19   1
   0  -1  -1 1020.43   23.66   1
   0  -1  -1  992.16   38.16   1
   0  -1  -1 1008.52   21.34   1
   0  -1  -1 1002.70   25.68   1
   0   1   1  976.75   16.89   1
   0   1   1  954.99   29.51   1
   0   1   1 1038.36   41.13   1
   0   1   1  966.26   16.98   1
   0   1   1  989.78   25.46   1
   0   1   1  976.16   16.62   1
   0   1   1  962.12   16.74   1
   0  -1  -1 1121.35   68.18   1
   0  -1  -1 1146.04   69.21   1
   0   1   1 1142.74   63.11   1
   0   1   1 1059.20   64.82   1
  -1  -1  -1   84.14    4.00   1
  -1  -1  -1   87.83    2.27   1
  -1  -1  -1   87.50    3.27   1
  -1  -1  -1   85.19    3.10   1
  -1  -1  -1   87.00    2.33   1
  -1  -1  -1   85.24    2.39   1
   1   1   1   84.80    4.06   1
   1   1   1   88.86    4.08   1
   1   1   1   82.51    3.03   1
   1   1   1   83.95    2.56   1
  -1  -1  -1   77.71    6.16   1
  -1  -1  -1   78.73    6.03   1
   1   1   1   90.80    6.20   1
   1   1   1   78.64    6.16   1
  -2  -1  -1 1136.87   29.52   1
  -2  -1  -1 1161.20   50.65   1
  -2  -1  -1 1131.39   40.21   1
  -2  -1  -1 1174.94   41.31   1
  -2  -1  -1 1185.58   85.81   1
  -2  -1  -1 1192.94   38.18   1
  -2  -1  -1 1101.42   45.15   1
   2   1   1 1143.12   42.65   1
   2   1   1 1144.11   36.90   1
   2   1   1 1126.79   29.24   1
  -3  -1  -1   36.24    1.51   1
  -3  -1  -1   35.64    2.14   1
  -3  -1  -1   34.98    1.91   1
  -3  -1  -1   32.66    2.00   1
  -3  -1  -1   37.49    2.45   1
  -3  -1  -1   34.20    2.47   1
  -3  -1  -1   32.97    1.56   1
  -3  -1  -1   38.56    1.45   1
   3   1   1   37.56    2.16   1
   3   1   1   34.06    2.29   1
   3   1   1   33.59    2.11   1
  -4  -1  -1   72.51    3.29   1
  -4  -1  -1   73.46    4.04   1
  -4  -1  -1   78.20    3.29   1
  -4  -1  -1   75.17    3.25   1
  -4  -1  -1   75.33    3.94   1
  -4  -1  -1   80.91    3.40   1
   4   1   1   82.74    3.57   1
   4   1   1   72.18    3.36   1
   4   1   1   79.28    3.70   1
  -5  -1  -1  153.08    8.23   1
  -5  -1  -1  154.78    6.13   1
  -5  -1  -1  164.98    6.28   1
  -5  -1  -1  155.38    9.68   1
  -5  -1  -1  151.90    8.56   1
  -5  -1  -1  155.50    8.83   1
  -5  -1  -1  153.65    9.79   1
   5   1   1  160.99    5.54   1
   5   1   1  147.88    8.19   1
  -6  -1  -1    0.79    3.35   1
  -6  -1  -1    3.50    2.42   1
  -6  -1  -1    3.62    2.08   1
   6   1   1    6.19    3.35   1
  -7  -1  -1    2.78    2.82   1
  -7  -1  -1    2.04    4.40   1
   7   1   1    3.22    3.68   1
  -8  -1  -1   -0.83    4.77   1
  -8  -1  -1    0.86    3.11   1
   8  -2  -1    9.15    3.53   1
  -8   2   1    3.53    3.58   1
  -8   2   1    3.47    4.53   1
   7  -2  -1   91.96    4.79   1
  -7   2   1   80.75    5.71   1
  -7   2   1   78.48    4.49   1
  -7   2   1   79.79    5.07   1
   6  -2  -1    4.70    2.97   1
   6  -2  -1    2.26    2.91   1
   6  -2  -1    2.44    3.00   1
  -6   2   1    1.70    2.07   1
  -6   2   1    1.20    2.32   1
  -6   2   1    3.37    2.29   1
   5  -2  -1  157.40    8.42   1
   5  -2  -1  164.51    4.83   1
   5  -2  -1  156.33    4.90   1
  -5   2   1  153.33    5.24   1
  -5   2   1  160.57   10.33   1
  -5   2   1  159.97    7.27   1
  -5   2   1  155.58    7.95   1
  -5   2   1  158.30    3.89   1
  -5   2   1  158.77    8.25   1
   4  -2  -1    9.14    1.65   1
   4  -2  -1   10.31    1.54   1
   4  -2  -1    9.31    1.54   1
   4  -2  -1    7.78    1.51   1
  -4   2   1    5.93    1.68   1
  -4   2   1    9.40    1.08   1
  -4   2   1    6.16    1.37   1
  -4   2   1    8.63    1.88   1
  -4   2   1    5.90    4.61   1
  -4   2   1    5.73    4.61   1
  -4   2   1    6.83    1.40   1
  -4   2   1    6.99    4.93   1
  -4   2   1    7.44    4.67   1
   3  -2  -1   12.22    1.24   1
   3  -2  -1    9.00    1.21   1
   3  -2  -1    8.47    1.27   1
   3  -2  -1   10.56    1.16   1
   3  -2  -1    9.87    1.53   1
  -3   2   1    8.14    1.29   1
  -3   2   1    9.87    0.97   1
  -3   2   1    8.65    1.27   1
  -3   2   1    6.23    1.40   1
  -3   2   1    8.98    1.27   1
  -3   2   1    7.36    1.35   1
  -3   2   1    9.79    1.32   1
  -3   2   1   10.49    1.03   1
  -3   2   1    9.17    0.84   1
   2  -2  -1    0.58    0.69   1
   2  -2  -1   -0.15    0.64   1
   2  -2  -1    0.31    0.39   1
   2  -2  -1    0.10    0.67   1
   2  -2  -1    0.21    0.36   1
   2  -2  -1    0.82    0.72   1
   2  -2  -1    0.51    0.79   1
  -2   2   1    0.99    0.73   1
  -2   2   1    0.26    0.69   1
  -2   2   1    0.77    0.69   1
  -2   2   1    0.47    0.21   1
  -2   2   1    0.31    0.33   1
  -2   2   1    0.23    1.16   1
  -2   2   1   -0.21    0.67   1
   1  -2  -1  137.67    3.06   1
   1  -2  -1  132.80    6.99   1
   1  -2  -1  141.30    2.93   1
   1  -2  -1  135.23    3.67   1
   1  -2  -1  138.93    3.98   1
   1  -2  -1  129.84    3.57   1
   1  -2  -1  140.78    5.88   1
   1  -2  -1  138.89    3.63   1
  -1   2   1  131.22    6.26   1
  -1   2   1  135.63    7.80   1
  -1   2   1  141.64    3.23   1
  -1   2   1  136.03    7.88   1
  -1   2   1  143.17    3.79   1
  -1   2   1  137.00    7.95   1
  -1   2   1  131.97    6.41   1
   1  -2  -1  133.49   10.15   1
   1  -2  -1  143.54    9.94   1
  -1   2   1  157.58   10.34   1
  -1   2   1  134.26   10.03   1
   0  -2  -1   84.99    3.63   1
   0  -2  -1   83.29    2.48   1
   0  -2  -1   84.84    3.59   1
   0  -2  -1   85.16    1.96   1
   0  -2  -1   83.96    2.05   1
   0  -2  -1   84.78    2.09   1
   0  -2  -1   82.16    2.65   1
   0   2   1   85.23    4.10   1
   0   2   1   86.56    2.48   1
   0   2   1   82.44    3.89   1
   0   2   1   80.13    3.10   1
   0   2   1   86.45    5.60   1
   0   2   1   83.54    3.27   1
   0   2   1   80.55    4.10   1
   0  -2  -1   82.92    7.61   1
   0  -2  -1   72.06    7.15   1
   0   2   1   73.85    6.94   1
  -1  -2  -1  625.53   12.98   1
  -1  -2  -1  620.57   12.61   1
  -1  -2  -1  627.28   13.56   1
  -1  -2  -1  572.92   16.36   1
  -1  -2  -1  626.85   13.18   1
  -1  -2  -1  619.94   16.36   1
  -1  -2  -1  617.09   19.03   1
   1   2   1  579.87   19.68   1
   1   2   1  628.89   15.50   1
   1   2   1  581.68   22.16   1
   1   2   1  609.40   20.86   1
  -2  -2  -1    1.32    0.42   1
  -2  -2  -1    1.12    0.90   1
  -2  -2  -1    2.52    1.52   1
  -2  -2  -1    1.74    0.73   1
  -2  -2  -1    0.45    1.09   1
  -2  -2  -1    0.48    0.42   1
  -2  -2  -1    0.92    0.42   1
  -2  -2  -1    1.43    0.45   1
   2   2   1    2.16    1.12   1
   2   2   1    1.18    1.07   1
   2   2   1    0.98    1.23   1
  -3  -2  -1   22.68    1.49   1
  -3  -2  -1   22.67    1.90   1
  -3  -2  -1   23.94    1.13   1
  -3  -2  -1   22.29    1.02   1
  -3  -2  -1   23.59    2.39   1
   3   2   1   22.44    2.32   1
   3   2   1   23.53    1.94   1
   3   2   1   20.95    2.32   1
  -4  -2  -1   -0.72    0.89   1
  -4  -2  -1    0.38    0.87   1
  -4  -2  -1   -0.77    0.86   1
  -4  -2  -1   -0.75    1.89   1
  -4  -2  -1   -0.37    0.89   1
  -4  -2  -1    0.35    0.97   1
   4   2   1   -0.77    1.40   1
   4   2   1    0.45    1.48   1
  -5  -2  -1   30.05    3.05   1
  -5  -2  -1   23.93    2.54   1
   5   2   1   26.42    3.09   1
   5   2   1   29.92    2.84   1
  -6  -2  -1   26.85    3.50   1
  -6  -2  -1   28.19    3.34   1
   6   2   1   33.77    3.27   1
   6   2   1   39.33    3.48   1
  -7  -2  -1    2.72    4.29   1
  -7  -2  -1    2.88    3.52   1
   7   2   1    8.29    3.39   1
   8  -3  -1    5.57    3.20   1
  -8   3   1    2.18    3.99   1
  -8   3   1    0.28    4.94   1
   7  -3  -1    1.47    2.10   1
   7  -3  -1    0.35    3.11   1
   7  -3  -1   -0.39    3.27   1
  -7   3   1    1.91    4.15   1
  -7   3   1   -0.83    1.54   1
  -7   3   1    0.98    2.39   1
   6  -3  -1    0.32    2.16   1
   6  -3  -1    0.10    2.16   1
   6  -3  -1    3.02    2.07   1
  -6   3   1    3.46    2.99   1
  -6   3   1    0.51    1.31   1
   5  -3  -1  143.41    4.74   1
   5  -3  -1  138.08    4.09   1
   5  -3  -1  131.10    5.17   1
   5  -3  -1  142.02    5.62   1
  -5   3   1  131.49    4.95   1
  -5   3   1  133.14    4.65   1
  -5   3   1  139.95    7.97   1
  -5   3   1  127.22    8.02   1
   4  -3  -1   52.36    4.11   1
   4  -3  -1   54.90    2.32   1
   4  -3  -1   55.99    2.80   1
   4  -3  -1   53.17    2.69   1
  -4   3   1   47.19    3.26   1
  -4   3   1   53.67    2.80   1
  -4   3   1   48.00    2.58   1
  -4   3   1   55.44    2.23   1
   3  -3  -1   24.93    2.38   1
   3  -3  -1   29.96    2.01   1
   3  -3  -1   32.41    2.08   1
   3  -3  -1   27.01    1.85   1
   3  -3  -1   27.04    1.81   1
   3  -3  -1   30.27    1.90   1
   3  -3  -1   32.32    1.62   1
  -3   3   1   33.04    1.90   1
  -3   3   1   36.19    2.24   1
  -3   3   1   31.82    1.94   1
  -3   3   1   33.51    1.92   1
  -3   3   1   33.17    2.47   1
  -3   3   1   34.28    2.31   1
  -3   3   1   32.68    1.85   1
  -3   3   1   26.44    1.99   1
   2  -3  -1  142.37    5.72   1
   2  -3  -1  140.87    8.67   1
   2  -3  -1  138.67    3.74   1
   2  -3  -1  141.35    5.21   1
   2  -3  -1  144.73    5.28   1
   2  -3  -1  139.74    5.47   1
   2  -3  -1  138.63    5.08   1
  -2   3   1  137.86    4.44   1
  -2   3   1  136.30    7.03   1
  -2   3   1  144.03    5.23   1
  -2   3   1  136.07    6.41   1
  -2   3   1  146.10    6.26   1
  -2   3   1  146.46    3.80   1
  -2   3   1  146.17    6.75   1
  -2   3   1  141.29    5.97   1
   1  -3  -1    5.42    1.22   1
   1  -3  -1    4.29    0.91   1
   1  -3  -1    5.22    0.97   1
   1  -3  -1    5.62    0.97   1
   1  -3  -1    6.04    0.76   1
   1  -3  -1    3.16    1.13   1
   1  -3  -1    4.75    1.19   1
   1  -3  -1    5.97    0.82   1
  -1   3   1    5.32    1.16   1
  -1   3   1    4.32    1.46   1
  -1   3   1    4.63    1.16   1
  -1   3   1    5.26    0.88   1
  -1   3   1    3.80    1.00   1
  -1   3   1    4.10    1.16   1
  -1   3   1    4.53    0.85   1
   0  -3  -1   89.88    2.74   1
   0  -3  -1   90.49    2.74   1
   0  -3  -1   98.11    2.95   1
   0  -3  -1   96.89    2.73   1
   0  -3  -1   90.92    4.21   1
   0  -3  -1   97.92    3.42   1
   0  -3  -1   92.45    3.91   1
   0   3   1   90.58    3.57   1
   0   3   1   93.23   12.00   1
   0   3   1   89.25    3.37   1
   0   3   1   91.90    3.31   1
   0   3   1   85.98    3.89   1
  -1  -3  -1  177.64    6.09   1
  -1  -3  -1  176.31    5.08   1
  -1  -3  -1  175.97    4.20   1
  -1  -3  -1  178.72    6.53   1
  -1  -3  -1  165.72    7.63   1
  -1  -3  -1  175.71    6.67   1
  -1  -3  -1  175.26    5.91   1
   1   3   1  161.70    3.28   1
   1   3   1  172.96    4.45   1
   1   3   1  159.08    3.26   1
   1   3   1  167.47    4.30   1
   1   3   1  161.98    5.96   1
  -2  -3  -1  283.20   12.75   1
  -2  -3  -1  304.20    6.27   1
  -2  -3  -1  300.61    6.14   1
  -2  -3  -1  294.77   11.72   1
  -2  -3  -1  288.27    8.93   1
   2   3   1  287.88    7.25   1
   2   3   1  274.12   11.22   1
   2   3   1  283.63    9.24   1
   2   3   1  274.46    8.19   1
  -3  -3  -1   58.02    2.67   1
  -3  -3  -1   53.27    2.37   1
  -3  -3  -1   54.34    2.80   1
  -3  -3  -1   54.72    1.34   1
  -3  -3  -1   52.09    2.21   1
  -3  -3  -1   55.44    1.64   1
   3   3   1   52.49    3.24   1
   3   3   1   55.23    3.11   1
  -4  -3  -1    9.86    0.90   1
  -4  -3  -1    7.96    2.55   1
  -4  -3  -1    8.80    0.85   1
   4   3   1    4.56    1.91   1
   4   3   1   12.89    2.36   1
  -5  -3  -1    3.41    2.52   1
  -5  -3  -1    4.01    2.96   1
   5   3   1    6.02    2.77   1
   5   3   1    2.70    2.48   1
  -6  -3  -1   -0.03    2.55   1
  -6  -3  -1    1.30    2.21   1
   6   3   1    1.88    3.23   1
   6   3   1    4.25    3.34   1
  -7  -3  -1   50.24    5.01   1
  -7  -3  -1   34.54    4.94   1
   7   3   1   40.59    4.45   1
   7   3   1   41.35    4.36   1
   8  -4  -1    3.46    3.58   1
   8  -4  -1    4.48    3.77   1
  -8   4   1    2.34    4.00   1
  -8   4   1   -0.71    4.32   1
   7  -4  -1    5.80    4.20   1
   7  -4  -1    3.14    3.08   1
   7  -4  -1    5.22    4.20   1
  -7   4   1    2.50    3.78   1
   6  -4  -1    9.76    2.00   1
   6  -4  -1    5.50    2.35   1
   6  -4  -1    4.49    2.40   1
  -6   4   1    5.89    4.15   1
   5  -4  -1   22.97    2.84   1
   5  -4  -1   24.50    2.11   1
   5  -4  -1   21.25    2.74   1
   5  -4  -1   27.87    2.25   1
  -5   4   1   22.40    1.63   1
  -5   4   1   24.13    3.57   1
  -5   4   1   23.70    1.78   1
   4  -4  -1   73.40    3.17   1
   4  -4  -1   73.45    7.16   1
   4  -4  -1   70.13    6.62   1
   4  -4  -1   70.18    2.59   1
  -4   4   1   72.29    3.67   1
  -4   4   1   78.64    3.52   1
  -4   4   1   69.51    3.82   1
   3  -4  -1  202.90    7.38   1
   3  -4  -1  205.28    6.59   1
   3  -4  -1  205.60    9.03   1
   3  -4  -1  212.36    8.47   1
   3  -4  -1  217.71   10.61   1
   3  -4  -1  205.28    8.19   1
   3  -4  -1  211.25   11.74   1
  -3   4   1  212.63    9.97   1
  -3   4   1  221.21    6.44   1
  -3   4   1  218.26   11.36   1
   2  -4  -1    5.78    1.32   1
   2  -4  -1    3.87    1.61   1
   2  -4  -1    4.05    1.64   1
   2  -4  -1    5.43    1.67   1
   2  -4  -1    6.81    0.59   1
   2  -4  -1    3.52    1.26   1
   2  -4  -1    7.54    1.38   1
   2  -4  -1    8.30    1.03   1
  -2   4   1    5.63    1.26   1
  -2   4   1    5.49    1.32   1
  -2   4   1    5.81    1.44   1
  -2   4   1    5.28    1.29   1
  -2   4   1    3.76    1.61   1
  -2   4   1    4.75    1.20   1
  -2   4   1    3.82    2.05   1
   1  -4  -1   30.22    1.72   1
   1  -4  -1   23.98    2.11   1
   1  -4  -1   28.73    1.58   1
   1  -4  -1   27.92    1.70   1
   1  -4  -1   30.89    1.61   1
   1  -4  -1   31.49    1.68   1
   1  -4  -1   28.07    1.65   1
  -1   4   1   30.23    2.07   1
  -1   4   1   34.14    1.56   1
  -1   4   1   28.76    1.49   1
  -1   4   1   29.19    1.84   1
  -1   4   1   29.23    2.02   1
  -1   4   1   28.80    1.47   1
  -1   4   1   31.33    1.49   1
   0  -4  -1   79.58    2.91   1
   0  -4  -1   72.90    4.72   1
   0  -4  -1   77.27    2.95   1
   0  -4  -1   76.86    2.99   1
   0  -4  -1   79.72    4.16   1
   0  -4  -1   77.10    2.84   1
   0  -4  -1   81.78    2.71   1
   0   4   1   72.46    3.96   1
   0   4   1   80.48    2.78   1
   0   4   1   78.56    2.93   1
   0   4   1   72.63    3.51   1
   0   4   1   80.43    3.14   1
  -1  -4  -1   12.18    1.10   1
  -1  -4  -1   12.43    1.97   1
  -1  -4  -1   10.97    1.97   1
  -1  -4  -1   10.81    1.04   1
  -1  -4  -1   12.29    1.10   1
  -1  -4  -1   10.48    1.51   1
  -1  -4  -1   11.49    1.04   1
   1   4   1   13.88    2.06   1
   1   4   1   12.84    1.37   1
   1   4   1   15.22    0.99   1
   1   4   1   11.50    0.91   1
  -2  -4  -1  102.03    3.83   1
  -2  -4  -1  100.61    2.87   1
  -2  -4  -1   98.17    3.90   1
  -2  -4  -1  103.86    2.95   1
  -2  -4  -1   97.37    3.71   1
  -2  -4  -1   99.22    3.56   1
   2   4   1   95.46    3.39   1
   2   4   1   96.90    4.42   1
   2   4   1  100.05    4.07   1
  -3  -4  -1  340.83   14.97   1
  -3  -4  -1  357.38   13.67   1
  -3  -4  -1  356.92   14.03   1
  -3  -4  -1  357.41   14.20   1
  -3  -4  -1  359.60   12.73   1
  -3  -4  -1  349.92   12.24   1
   3   4   1  340.16   11.46   1
   3   4   1  331.49   14.33   1
  -4  -4  -1    3.58    2.99   1
   4   4   1    6.13    2.58   1
   4   4   1    5.65    2.66   1
  -5  -4  -1   77.20    5.46   1
   5   4   1   74.74    6.06   1
   5   4   1   84.20    5.24   1
  -6  -4  -1    0.55    3.86   1
  -6  -4  -1   -0.75    4.73   1
   6   4   1   -0.83    4.16   1
   6   4   1    1.20    4.25   1
   8  -5  -1    4.78    5.64   1
   8  -5  -1    5.38    5.58   1
  -8   5   1    2.86    4.94   1
   7  -5  -1    8.17    3.14   1
   7  -5  -1    8.67    3.14   1
  -7   5   1    6.47    5.09   1
   6  -5  -1    8.67    1.98   1
   6  -5  -1    7.15    2.73   1
   6  -5  -1    8.90    2.30   1
   6  -5  -1    7.32    2.61   1
  -6   5   1    5.95    3.39   1
   5  -5  -1   74.81    3.97   1
   5  -5  -1   82.67    3.04   1
   5  -5  -1   78.46    3.43   1
   5  -5  -1   82.86    4.14   1
  -5   5   1   77.96    4.92   1
   4  -5  -1   14.31    1.47   1
   4  -5  -1   16.80    1.72   1
   4  -5  -1   12.07    2.02   1
   4  -5  -1   14.93    2.17   1
  -4   5   1   14.73    3.22   1
   3  -5  -1    0.00    2.46   1
   3  -5  -1    0.98    2.53   1
   3  -5  -1    2.93    1.18   1
   3  -5  -1    2.39    1.78   1
   3  -5  -1    2.96    0.51   1
   3  -5  -1    4.51    1.92   1
  -3   5   1    3.20    2.32   1
  -3   5   1   -0.47    1.85   1
   2  -5  -1  207.88    9.76   1
   2  -5  -1  196.79    8.24   1
   2  -5  -1  191.97    6.29   1
   2  -5  -1  194.14    7.04   1
   2  -5  -1  204.08    9.84   1
   2  -5  -1  199.53    6.86   1
   2  -5  -1  195.46   10.35   1
  -2   5   1  196.22    7.42   1
  -2   5   1  190.16    6.54   1
   1  -5  -1   12.67    1.52   1
   1  -5  -1   10.10    1.38   1
   1  -5  -1   11.35    2.02   1
   1  -5  -1    9.04    1.38   1
   1  -5  -1    7.57    1.36   1
   1  -5  -1   10.80    1.57   1
  -1   5   1   12.46    1.44   1
  -1   5   1   12.49    1.41   1
  -1   5   1    9.86    1.33   1
  -1   5   1   10.83    2.45   1
  -1   5   1   14.82    1.94   1
  -1   5   1    8.82    1.30   1
   0  -5  -1   32.65    1.87   1
   0  -5  -1   37.87    2.28   1
   0  -5  -1   32.25    2.21   1
   0  -5  -1   34.21    2.46   1
   0  -5  -1   38.66    1.98   1
   0  -5  -1   34.42    1.92   1
   0  -5  -1   37.92    1.90   1
   0   5   1   32.71    3.36   1
   0   5   1   41.89    1.81   1
   0   5   1   38.51    1.76   1
   0   5   1   36.21    2.48   1
  -1  -5  -1   88.31    2.68   1
  -1  -5  -1   88.29    2.81   1
  -1  -5  -1   88.05    3.56   1
  -1  -5  -1   90.31    3.94   1
  -1  -5  -1   88.98    3.06   1
  -1  -5  -1   91.36    3.00   1
   1   5   1   84.94    3.43   1
   1   5   1   79.33    4.16   1
   1   5   1   85.83    4.03   1
   1   5   1   79.47    3.94   1
  -2  -5  -1    0.15    0.81   1
  -2  -5  -1    0.58    0.85   1
  -2  -5  -1    0.06    1.73   1
  -2  -5  -1    0.25    0.88   1
  -2  -5  -1    0.52    0.88   1
   2   5   1    1.46    2.34   1
   2   5   1    1.73    1.34   1
   2   5   1    2.00    2.39   1
  -3  -5  -1   93.93    4.46   1
   3   5   1  100.92    5.36   1
   3   5   1   95.40    5.08   1
  -4  -5  -1    3.75    2.67   1
   4   5   1    1.30    2.99   1
   4   5   1    2.00    4.32   1
  -5  -5  -1   10.23    3.52   1
  -5  -5  -1   10.39    2.97   1
   5   5   1   14.49    4.42   1
   5   5   1   10.86    4.24   1
   7  -6  -1   68.97    5.55   1
   7  -6  -1   73.00    5.25   1
  -7   6   1   74.59    5.55   1
   6  -6  -1   17.40    3.00   1
   6  -6  -1   14.31    2.88   1
  -6   6   1   16.12    3.63   1
   5  -6  -1   -0.10    1.93   1
   5  -6  -1   -0.76    1.47   1
   5  -6  -1   -0.29    2.07   1
   5  -6  -1    0.42    1.45   1
  -5   6   1    0.50    2.73   1
   4  -6  -1    2.16    1.43   1
   4  -6  -1    2.82    1.46   1
   4  -6  -1    0.86    2.16   1
   4  -6  -1   -0.54    2.22   1
  -4   6   1   -0.22    3.30   1
  -4   6   1    1.72    2.86   1
   3  -6  -1    0.26    1.48   1
   3  -6  -1    1.47    1.60   1
   3  -6  -1    0.42    1.61   1
   3  -6  -1   -0.91    1.64   1
   3  -6  -1    0.19    0.43   1
   3  -6  -1   -0.16    0.66   1
  -3   6   1    1.26    2.05   1
  -3   6   1    0.78    1.87   1
   2  -6  -1   12.87    1.82   1
   2  -6  -1   17.81    1.55   1
   2  -6  -1   13.44    1.79   1
   2  -6  -1   16.57    1.15   1
   2  -6  -1   13.46    1.91   1
   2  -6  -1   18.23    2.06   1
   2  -6  -1   11.62    1.82   1
  -2   6   1   19.80    2.38   1
  -2   6   1   14.86    2.92   1
   1  -6  -1   36.04    2.24   1
   1  -6  -1   33.01    2.08   1
   1  -6  -1   36.95    2.24   1
   1  -6  -1   35.14    2.49   1
   1  -6  -1   37.81    2.35   1
   1  -6  -1   39.01    1.95   1
   1  -6  -1   38.31    2.31   1
  -1   6   1   38.69    2.76   1
  -1   6   1   39.85    3.55   1
   0  -6  -1    1.31    1.21   1
   0  -6  -1    1.03    1.27   1
   0  -6  -1    1.15    1.74   1
   0  -6  -1    0.31    1.21   1
   0  -6  -1    0.40    1.19   1
   0   6   1    0.69    1.62   1
   0   6   1   -0.31    1.59   1
   0   6   1    0.65    2.31   1
   0   6   1   -0.09    1.96   1
  -1  -6  -1   10.53    1.27   1
  -1  -6  -1   11.64    1.29   1
  -1  -6  -1   14.18    1.34   1
  -1  -6  -1   11.13    1.27   1
  -1  -6  -1   15.78    2.38   1
   1   6   1   16.46    1.95   1
   1   6   1   13.62    2.74   1
  -2  -6  -1    1.01    2.27   1
   2   6   1    4.66    1.71   1
   2   6   1    5.85    3.35   1
   2   6   1    3.86    3.13   1
  -3  -6  -1   -0.03    1.98   1
   3   6   1   -0.24    2.33   1
   3   6   1    0.59    3.23   1
  -4  -6  -1   68.41    4.45   1
   4   6   1   63.98    6.45   1
   4   6   1   70.92    5.60   1
   7  -7  -1    6.02    5.34   1
   7  -7  -1   -0.59    5.14   1
  -7   7   1    1.45    3.58   1
  -7   7   1    1.61    5.19   1
   6  -7  -1   22.06    3.34   1
   6  -7  -1   26.86    3.48   1
  -6   7   1   17.61    4.04   1
  -6   7   1   20.92    4.20   1
   5  -7  -1   31.02    3.22   1
   5  -7  -1   28.19    3.22   1
  -5   7   1   30.18    4.02   1
  -5   7   1   32.09    3.95   1
   4  -7  -1    5.73    2.49   1
   4  -7  -1    5.76    2.57   1
  -4   7   1    7.37    2.88   1
  -4   7   1   11.26    3.40   1
   3  -7  -1   -0.53    3.19   1
   3  -7  -1   -0.62    3.10   1
   3  -7  -1    2.00    1.44   1
   3  -7  -1   -2.09    3.03   1
   3  -7  -1    1.35    2.25   1
  -3   7   1    3.94    4.04   1
  -3   7   1    0.12    2.73   1
   2  -7  -1   55.89    3.30   1
   2  -7  -1   65.06    3.69   1
   2  -7  -1   62.39    3.13   1
   2  -7  -1   65.23    3.24   1
   2  -7  -1   68.88    3.78   1
   2  -7  -1   63.33    3.22   1
  -2   7   1   57.11    3.91   1
  -2   7   1   69.16    3.99   1
   1  -7  -1    0.33    1.69   1
   1  -7  -1    3.06    1.46   1
   1  -7  -1    1.72    1.72   1
   1  -7  -1    0.39    1.78   1
   1  -7  -1    1.20    2.17   1
   1  -7  -1    0.29    1.75   1
  -1   7   1    1.37    4.16   1
  -1   7   1    3.67    2.21   1
   0  -7  -1  101.32    6.60   1
   0  -7  -1  105.05    5.54   1
   0  -7  -1   93.16    6.71   1
   0  -7  -1   98.85    5.79   1
   0  -7  -1  103.23    7.16   1
   0   7   1  101.98    5.15   1
   0   7   1  105.86    5.32   1
  -1  -7  -1   11.83    2.58   1
   1   7   1    8.31    3.28   1
   1   7   1   12.61    2.26   1
  -2  -7  -1   46.06    3.75   1
   2   7   1   48.03    4.42   1
   2   7   1   50.96    5.32   1
  -3  -7  -1    1.36    2.43   1
   3   7   1   -2.28    4.11   1
   3   7   1    2.37    4.34   1
   6  -8  -1    1.99    3.98   1
   6  -8  -1   -1.33    3.94   1
  -6   8   1   -1.50    4.17   1
  -6   8   1   -0.26    7.66   1
   5  -8  -1   -0.92    4.13   1
   5  -8  -1   -0.67    3.95   1
  -5   8   1   -0.30    3.71   1
  -5   8   1   -2.77    4.11   1
   4  -8  -1    2.96    5.07   1
   4  -8  -1    0.52    5.51   1
  -4   8   1    1.93    3.35   1
  -4   8   1    0.46    2.93   1
   3  -8  -1    3.91    3.46   1
   3  -8  -1    4.28    2.63   1
   3  -8  -1    1.11    2.40   1
   3  -8  -1   -0.54    3.35   1
  -3   8   1    5.11    3.03   1
  -3   8   1    3.40    3.23   1
   2  -8  -1   17.00    3.01   1
   2  -8  -1   18.16    2.99   1
   2  -8  -1   20.48    3.11   1
   2  -8  -1   25.15    3.06   1
   2  -8  -1   23.25    3.25   1
  -2   8   1   26.08    3.83   1
  -2   8   1   23.02    3.01   1
   1  -8  -1   -0.25    2.06   1
   1  -8  -1    0.53    1.78   1
  -1   8   1   -0.39    2.72   1
  -1   8   1   -0.10    2.84   1
   0  -8  -1   30.98    3.22   1
   0   8   1   25.01    4.81   1
   0   8   1   30.55    2.64   1
  -1  -8  -1   42.24    3.77   1
   1   8   1   38.90    4.59   1
   1   8   1   35.64    4.45   1
  -2  -8  -1    0.73    3.22   1
   2   8   1   -0.73    6.61   1
   2   8   1   -5.02    6.08   1
   4  -9  -1   37.06    3.78   1
   4  -9  -1   44.14    4.13   1
  -4   9   1   48.61    5.64   1
  -4   9   1   44.43    6.03   1
   3  -9  -1   -2.87    2.87   1
   3  -9  -1    0.12    3.22   1
  -3   9   1    0.97    3.64   1
  -3   9   1    2.51    4.40   1
   2  -9  -1   -0.62    3.08   1
  -2   9   1    2.08    3.29   1
  -2   9   1   -0.50    4.45   1
   1  -9  -1    0.87    2.60   1
  -1   9   1   -1.43    3.64   1
   0   9  -2   48.47    5.21   1
   0  -9   2   54.33    4.98   1
  -1   9  -2    0.38    4.33   1
   1  -9   2   -0.67    2.95   1
  -2   9  -2   60.72    5.04   1
  -2   9  -2   54.14    5.11   1
   2  -9   2   44.53    4.33   1
   2  -9   2   37.53    3.95   1
   2  -9   2   54.88    4.15   1
   2  -9   2   47.14    4.28   1
   2  -9   2   50.34    4.33   1
  -3   9  -2   20.88    4.17   1
  -3   9  -2   29.46    5.01   1
   3  -9   2   20.07    3.43   1
   3  -9   2   18.12    3.31   1
   3  -9   2   20.26    3.36   1
   3  -9   2   23.39    3.31   1
   3  -9   2   15.31    3.05   1
  -4   9  -2    3.70    5.19   1
  -4   9  -2    7.27    5.20   1
   4  -9   2    5.09    5.77   1
   4  -9   2    4.34    5.83   1
   4  -9   2    3.26    5.50   1
   4  -9   2    2.04    5.47   1
   2   8  -2    2.90    4.00   1
   2   8  -2    2.78    4.06   1
  -2  -8   2    5.71    3.36   1
   1   8  -2   82.78    5.54   1
  -1  -8   2   70.91    5.76   1
   0   8  -2    2.63    3.76   1
   0  -8   2    2.21    2.66   1
  -1   8  -2   21.37    3.56   1
  -1   8  -2   28.51    3.12   1
   1  -8   2   22.75    2.62   1
   1  -8   2   23.43    2.60   1
   1  -8   2   15.79    2.30   1
   1  -8   2   27.07    2.88   1
   1  -8   2   19.34    2.51   1
  -2   8  -2   14.51    4.10   1
  -2   8  -2   18.15    2.78   1
   2  -8   2   10.70    3.00   1
   2  -8   2   14.14    3.22   1
   2  -8   2   13.77    3.20   1
   2  -8   2   10.57    3.03   1
   2  -8   2   18.02    2.69   1
  -3   8  -2   26.68    4.62   1
  -3   8  -2   28.01    3.50   1
   3  -8   2   25.29    3.06   1
   3  -8   2   30.05    3.29   1
   3  -8   2   25.79    2.96   1
   3  -8   2   22.83    3.58   1
   3  -8   2   22.31    3.48   1
  -4   8  -2   13.80    3.43   1
  -4   8  -2   14.98    3.71   1
   4  -8   2   14.51    3.13   1
   4  -8   2   15.63    3.00   1
   4  -8   2    9.62    2.95   1
   4  -8   2   12.02    2.95   1
  -5   8  -2   17.04    4.12   1
  -5   8  -2   17.01    3.60   1
   5  -8   2   12.04    4.10   1
   5  -8   2   11.99    3.15   1
   5  -8   2   23.04    4.46   1
   5  -8   2   14.15    3.32   1
  -6   8  -2   37.62    4.68   1
  -6   8  -2   29.24    6.34   1
   6  -8   2   35.26    4.86   1
   6  -8   2   33.85    5.03   1
   4   7  -2   32.73    4.59   1
   4   7  -2   29.50    4.38   1
  -4  -7   2   30.97    3.98   1
   3   7  -2   20.38    3.71   1
   3   7  -2   17.04    3.61   1
  -3  -7   2   16.02    3.15   1
   2   7  -2   -0.53    2.51   1
   2   7  -2   -1.65    2.62   1
  -2  -7   2    1.17    2.17   1
   1   7  -2  100.88    5.67   1
  -1  -7   2  115.54    5.99   1
  -1  -7   2  103.00    6.08   1
  -1  -7   2  112.21    4.24   1
  -1  -7   2  108.48    6.10   1
  -1  -7   2  114.17    4.00   1
   0   7  -2    7.87    2.17   1
   0   7  -2    3.53    3.92   1
   0  -7   2    3.23    1.75   1
   0  -7   2    2.44    2.35   1
   0  -7   2    1.99    2.35   1
   0  -7   2    5.40    1.84   1
  -1   7  -2   82.09    5.43   1
  -1   7  -2   92.85    5.98   1
   1  -7   2   92.17    3.89   1
   1  -7   2   92.77    3.55   1
   1  -7   2   87.20    3.91   1
   1  -7   2   96.60    4.31   1
   1  -7   2   86.93    3.67   1
  -2   7  -2   24.17    3.03   1
  -2   7  -2   32.81    2.96   1
   2  -7   2   24.32    2.45   1
   2  -7   2   24.42    2.96   1
   2  -7   2   27.82    3.08   1
   2  -7   2   25.80    2.52   1
   2  -7   2   33.59    2.01   1
   2  -7   2   27.86    2.82   1
  -3   7  -2    1.65    3.00   1
  -3   7  -2   -2.26    3.95   1
   3  -7   2   -1.89    2.36   1
   3  -7   2   -0.67    2.43   1
   3  -7   2    0.07    2.46   1
   3  -7   2    0.47    2.39   1
   3  -7   2    2.59    2.09   1
  -4   7  -2   28.37    3.31   1
  -4   7  -2   31.17    3.69   1
   4  -7   2   23.82    3.41   1
   4  -7   2   21.06    3.31   1
   4  -7   2   29.35    3.15   1
   4  -7   2   27.99    3.03   1
  -5   7  -2    0.21    3.76   1
   5  -7   2   -1.56    2.64   1
   5  -7   2   -0.34    2.73   1
   5  -7   2    1.81    4.07   1
   5  -7   2    1.01    4.10   1
  -6   7  -2    3.25    3.60   1
   6  -7   2   -1.70    2.41   1
   6  -7   2   -2.01    2.53   1
  -7   7  -2    2.70    5.78   1
   7  -7   2    1.05    3.85   1
   7  -7   2    1.55    3.81   1
   5   6  -2   -1.27    3.73   1
   5   6  -2   -0.09    5.13   1
  -5  -6   2    2.06    3.86   1
   4   6  -2    9.23    3.23   1
   4   6  -2    9.65    3.32   1
  -4  -6   2    8.31    3.07   1
   3   6  -2    1.09    2.62   1
   3   6  -2    1.09    3.68   1
  -3  -6   2    3.45    2.39   1
   2   6  -2   82.23    4.54   1
  -2  -6   2   91.43    4.80   1
  -2  -6   2   86.72    4.16   1
  -2  -6   2   88.66    3.41   1
  -2  -6   2   87.92    3.43   1
  -2  -6   2   87.96    3.96   1
   1   6  -2    0.25    0.70   1
   1   6  -2    1.20    1.81   1
  -1  -6   2   -0.99    0.99   1
  -1  -6   2   -0.66    1.52   1
  -1  -6   2   -0.10    1.08   1
  -1  -6   2   -0.17    0.98   1
  -1  -6   2    0.05    0.93   1
   0   6  -2  107.32    5.15   1
   0   6  -2   98.34    6.13   1
   0  -6   2  107.60    4.07   1
   0  -6   2  107.97    5.98   1
   0  -6   2  107.81    3.51   1
   0  -6   2  105.89    4.27   1
   0  -6   2   94.38    4.56   1
   0  -6   2  106.26    3.28   1
  -1   6  -2   45.29    3.38   1
  -1   6  -2   48.04    3.23   1
   1  -6   2   46.00    2.69   1
   1  -6   2   44.10    2.49   1
   1  -6   2   41.96   12.45   1
   1  -6   2   48.54    2.85   1
   1  -6   2   45.58    2.71   1
   1  -6   2   47.43    2.56   1
   1  -6   2   42.47    2.56   1
  -2   6  -2   29.80    2.94   1
  -2   6  -2   32.93    2.80   1
   2  -6   2   30.38    1.31   1
   2  -6   2   31.14    1.61   1
   2  -6   2   29.18    2.16   1
   2  -6   2   26.93    2.21   1
   2  -6   2   27.41    2.27   1
   2  -6   2   27.48    2.25   1
   2  -6   2   30.07    2.23   1
   2  -6   2   27.77    2.34   1
  -3   6  -2   57.58    2.37   1
  -3   6  -2   61.88    3.53   1
  -3   6  -2   57.81    3.64   1
   3  -6   2   55.28    3.06   1
   3  -6   2   53.49    3.28   1
   3  -6   2   54.77    3.39   1
   3  -6   2   55.08    3.13   1
   3  -6   2   49.36    3.53   1
   3  -6   2   56.79    3.19   1
   3  -6   2   57.46    2.46   1
   3  -6   2   55.47    2.95   1
  -4   6  -2    5.78    1.50   1
  -4   6  -2    8.07    3.16   1
   4  -6   2    6.49    2.33   1
   4  -6   2    5.31    2.99   1
   4  -6   2    5.03    2.27   1
   4  -6   2    4.05    2.32   1
  -5   6  -2   34.40    4.74   1
   5  -6   2   42.62    3.82   1
   5  -6   2   38.83    3.78   1
   5  -6   2   33.90    3.20   1
   5  -6   2   38.06    3.36   1
  -6   6  -2   46.49    5.66   1
   6  -6   2   43.32    3.70   1
   6  -6   2   41.76    3.57   1
  -7   6  -2    9.96    5.70   1
   7  -6   2    6.75    3.70   1
   7  -6   2    4.84    3.57   1
   6   5  -2    0.53    2.95   1
   6   5  -2    1.99    3.33   1
  -6  -5   2    0.46    3.49   1
   5   5  -2   31.96    3.50   1
   5   5  -2   30.31    3.59   1
  -5  -5   2   34.00    3.68   1
   4   5  -2    6.02    3.84   1
   4   5  -2    4.39    3.87   1
  -4  -5   2    4.71    2.82   1
   3   5  -2   87.63    4.66   1
   3   5  -2   83.51    4.17   1
  -3  -5   2   84.46    3.50   1
  -3  -5   2   86.99    4.19   1
  -3  -5   2   86.71    3.42   1
   2   5  -2  202.86    7.05   1
   2   5  -2  196.89    9.46   1
  -2  -5   2  218.15   10.82   1
  -2  -5   2  218.81    9.67   1
  -2  -5   2  202.89    9.65   1
  -2  -5   2  207.97    6.44   1
  -2  -5   2  212.84    6.40   1
   1   5  -2   70.14    3.98   1
   1   5  -2   72.96    2.59   1
   1   5  -2   78.45    4.88   1
   1   5  -2   68.90    3.45   1
  -1  -5   2   79.02    3.90   1
  -1  -5   2   80.03    3.43   1
  -1  -5   2   78.92    2.87   1
  -1  -5   2   81.07    3.08   1
  -1  -5   2   78.09    3.51   1
  -1  -5   2   71.60    3.92   1
   0   5  -2   56.85    4.14   1
   0   5  -2   54.22    2.63   1
   0   5  -2   55.20    3.18   1
   0   5  -2   55.68    2.61   1
   0  -5   2   60.78    2.94   1
   0  -5   2   54.23    2.37   1
   0  -5   2   54.49    2.33   1
   0  -5   2   56.86    2.70   1
   0  -5   2   59.39    2.76   1
   0  -5   2   55.98    2.72   1
   0  -5   2   54.85    3.62   1
   0  -5   2   54.39    2.26   1
  -1   5  -2   13.38    1.98   1
  -1   5  -2   14.93    2.01   1
  -1   5  -2   10.92    4.93   1
  -1   5  -2   11.63    4.85   1
   1  -5   2   12.78    1.50   1
   1  -5   2   14.51    1.47   1
   1  -5   2   10.95    1.78   1
   1  -5   2   15.42    1.91   1
   1  -5   2   10.62    1.47   1
   1  -5   2    9.68    1.70   1
   1  -5   2   15.70    1.40   1
   1  -5   2    8.03    2.01   1
  -2   5  -2   59.85    2.97   1
  -2   5  -2   60.72    3.29   1
  -2   5  -2   56.65    2.44   1
   2  -5   2   66.58    1.95   1
   2  -5   2   57.88    2.66   1
   2  -5   2   64.20    3.49   1
   2  -5   2   65.46    2.77   1
   2  -5   2   60.49    2.99   1
   2  -5   2   56.10    2.44   1
   2  -5   2   59.23    2.58   1
   2  -5   2   56.70    3.27   1
  -3   5  -2   32.08    2.82   1
  -3   5  -2   32.92    1.72   1
   3  -5   2   36.47    1.86   1
   3  -5   2   32.36    2.54   1
   3  -5   2   28.02    2.25   1
   3  -5   2   35.47    1.59   1
   3  -5   2   33.43    2.39   1
   3  -5   2   31.44    2.57   1
   3  -5   2   33.14    1.93   1
  -4   5  -2   44.43    3.44   1
  -4   5  -2   43.16    2.04   1
   4  -5   2   44.10    2.79   1
   4  -5   2   41.98    3.22   1
   4  -5   2   43.41    3.13   1
   4  -5   2   39.83    2.71   1
   4  -5   2   46.52    1.81   1
   4  -5   2   41.22    2.35   1
  -5   5  -2   10.31    3.11   1
  -5   5  -2    9.55    1.12   1
   5  -5   2   13.74    1.15   1
   5  -5   2   10.36    3.00   1
   5  -5   2    9.00    2.22   1
   5  -5   2   10.96    2.32   1
   5  -5   2   10.80    1.56   1
   5  -5   2   10.17    3.03   1
  -6   5  -2   53.89    4.59   1
   6  -5   2   46.51    3.38   1
   6  -5   2   45.61    3.31   1
  -7   5  -2    1.32    3.31   1
   7  -5   2   -0.12    2.41   1
   7  -5   2    2.82    2.55   1
  -8   5  -2   -2.03    3.07   1
  -8   5  -2   -0.26    4.95   1
   8  -5   2    6.31    5.10   1
   8  -5   2   -0.47    4.99   1
   6   4  -2    0.56    3.82   1
   6   4  -2    1.57    3.74   1
  -6  -4   2   -2.49    4.05   1
   5   4  -2    6.96    3.38   1
   5   4  -2    8.23    2.67   1
  -5  -4   2    2.84    2.58   1
   4   4  -2   18.68    3.03   1
   4   4  -2   24.68    2.72   1
  -4  -4   2   17.24    1.49   1
  -4  -4   2   15.29    2.50   1
  -4  -4   2   19.21    1.54   1
   3   4  -2   41.09    3.15   1
   3   4  -2   42.52    3.22   1
  -3  -4   2   40.45    2.88   1
  -3  -4   2   41.12    1.79   1
  -3  -4   2   36.94    1.72   1
   2   4  -2   -0.03    0.25   1
   2   4  -2   -1.04    1.71   1
  -2  -4   2    0.72    1.76   1
  -2  -4   2   -0.36    0.67   1
  -2  -4   2   -0.24    0.68   1
  -2  -4   2    0.05    0.48   1
   1   4  -2  226.83    8.17   1
   1   4  -2  226.59    7.75   1
   1   4  -2  242.46    7.60   1
   1   4  -2  226.39   10.85   1
  -1  -4   2  244.74    7.94   1
  -1  -4   2  244.97    7.49   1
  -1  -4   2  246.50   12.99   1
  -1  -4   2  223.72   13.01   1
  -1  -4   2  234.39    8.47   1
  -1  -4   2  252.08    7.92   1
  -1  -4   2  231.04    7.30   1
   0   4  -2  274.64    4.51   1
   0   4  -2  256.42   13.01   1
   0   4  -2  279.13    5.03   1
   0   4  -2  268.05    9.47   1
   0   4  -2  280.32    9.37   1
   0  -4   2  276.32   10.83   1
   0  -4   2  276.02   12.26   1
   0  -4   2  278.99    9.87   1
   0  -4   2  283.78    7.16   1
   0  -4   2  272.74    7.53   1
   0  -4   2  278.58    8.67   1
   0  -4   2  284.13   12.01   1
   0  -4   2  279.37    6.47   1
  -1   4  -2  550.55   14.07   1
  -1   4  -2  550.24   14.59   1
  -1   4  -2  520.36   17.27   1
  -1   4  -2  535.42   16.56   1
  -1   4  -2  544.70   34.59   1
  -1   4  -2  544.28   17.62   1
   1  -4   2  561.60   13.45   1
   1  -4   2  548.97   14.36   1
   1  -4   2  532.61   15.01   1
   1  -4   2  512.68   17.71   1
   1  -4   2  539.52   13.37   1
   1  -4   2  565.09   13.56   1
   1  -4   2  526.74   20.16   1
   1  -4   2  559.94   14.27   1
  -2   4  -2   29.42    2.02   1
  -2   4  -2   23.49    1.91   1
  -2   4  -2   33.10    2.60   1
  -2   4  -2   28.70    1.79   1
  -2   4  -2   25.21    1.31   1
  -2   4  -2   26.37    1.93   1
  -2   4  -2   26.99    1.70   1
   2  -4   2   25.62    1.73   1
   2  -4   2   25.58    2.07   1
   2  -4   2   26.83    0.90   1
   2  -4   2   26.76    1.79   1
   2  -4   2   30.83    1.84   1
   2  -4   2   27.88    1.66   1
   2  -4   2   24.82    1.75   1
   2  -4   2   27.70    1.22   1
  -3   4  -2   33.14    2.27   1
  -3   4  -2   36.92    1.50   1
  -3   4  -2   32.42    2.57   1
   3  -4   2   32.31    2.09   1
   3  -4   2   35.25    2.21   1
   3  -4   2   35.86    1.77   1
   3  -4   2   36.79    2.23   1
   3  -4   2   35.04    2.52   1
   3  -4   2   35.38    3.23   1
   3  -4   2   35.49    2.12   1
  -4   4  -2   82.65    3.62   1
  -4   4  -2   83.03    4.97   1
  -4   4  -2   78.07    4.28   1
   4  -4   2   80.85    3.23   1
   4  -4   2   82.20    3.32   1
   4  -4   2   77.52    3.83   1
   4  -4   2   84.24    3.28   1
   4  -4   2   83.27    3.23   1
   4  -4   2   79.89    3.98   1
  -5   4  -2  129.78    5.47   1
  -5   4  -2  126.33    6.88   1
   5  -4   2  120.98    4.89   1
   5  -4   2  113.80    4.18   1
   5  -4   2  124.84    4.39   1
   5  -4   2  124.23    4.88   1
   5  -4   2  118.74    4.44   1
  -6   4  -2    4.70    3.00   1
  -6   4  -2    6.96    1.38   1
   6  -4   2    8.61    2.26   1
   6  -4   2    8.87    2.39   1
  -7   4  -2   15.28    3.79   1
  -7   4  -2   11.00    2.81   1
   7  -4   2   20.63    7.19   1
   7  -4   2   19.99    6.90   1
  -8   4  -2   29.33    4.31   1
  -8   4  -2   26.15    5.58   1
   8  -4   2   34.50    3.68   1
   8  -4   2   40.18    3.86   1
   7   3  -2    8.16    3.46   1
   7   3  -2   10.65    4.95   1
  -7  -3   2    0.51    3.71   1
  -7  -3   2    4.35    4.44   1
   6   3  -2   97.31    5.51   1
   6   3  -2  102.36    5.69   1
  -6  -3   2  104.11    5.62   1
   5   3  -2   43.92    3.67   1
   5   3  -2   44.62    3.61   1
  -5  -3   2   37.34    3.27   1
   4   3  -2    9.42    2.06   1
   4   3  -2   10.17    2.06   1
  -4  -3   2    9.02    2.80   1
  -4  -3   2    9.49    1.40   1
  -4  -3   2    7.34    1.35   1
  -4  -3   2    7.78    0.63   1
  -4  -3   2    8.82    1.40   1
  -4  -3   2    8.63    1.37   1
  -4  -3   2    9.59    0.66   1
   3   3  -2   31.65    2.24   1
   3   3  -2   33.76    2.35   1
  -3  -3   2   38.43    2.61   1
  -3  -3   2   31.75    7.20   1
  -3  -3   2   39.57    1.77   1
  -3  -3   2   34.89    1.47   1
   2   3  -2   43.22    2.46   1
   2   3  -2   37.44    2.31   1
  -2  -3   2   41.42    1.96   1
  -2  -3   2   40.65    1.31   1
  -2  -3   2   43.28    2.53   1
  -2  -3   2   38.26    2.26   1
  -2  -3   2   42.98    1.67   1
  -2  -3   2   38.59    2.37   1
   1   3  -2    0.30    0.47   1
   1   3  -2    0.65    0.87   1
   1   3  -2   -0.47    0.90   1
   1   3  -2   -0.03    0.44   1
   1   3  -2    0.44    0.35   1
  -1  -3   2   -0.15    0.82   1
  -1  -3   2    0.75    0.50   1
  -1  -3   2   -0.22    1.05   1
  -1  -3   2    0.72    0.97   1
  -1  -3   2    1.45    0.95   1
  -1  -3   2    0.39    0.44   1
  -1  -3   2    0.42    0.51   1
   0   3  -2    8.12    1.15   1
   0   3  -2    7.48    1.09   1
   0   3  -2    7.33    1.24   1
   0   3  -2    5.88    1.15   1
   0   3  -2    7.18    1.15   1
   0  -3   2    7.36    1.27   1
   0  -3   2    6.94    0.94   1
   0  -3   2    8.26    1.15   1
   0  -3   2    6.67    0.94   1
   0  -3   2    6.85    0.96   1
   0  -3   2    6.40    1.15   1
   0  -3   2    6.31    1.24   1
   0  -3   2    6.67    1.18   1
  -1   3  -2   42.84    2.12   1
  -1   3  -2   41.93    1.65   1
  -1   3  -2   40.21    2.46   1
  -1   3  -2   44.50    1.90   1
  -1   3  -2   42.78    2.03   1
   1  -3   2   42.01    1.81   1
   1  -3   2   41.39    1.65   1
   1  -3   2   42.25    1.33   1
   1  -3   2   41.62    2.26   1
   1  -3   2   41.42    1.60   1
   1  -3   2   44.94    1.67   1
   1  -3   2   39.16    1.58   1
   1  -3   2   39.77    2.17   1
  -2   3  -2   34.48    1.67   1
  -2   3  -2   33.62    1.73   1
  -2   3  -2   29.91    2.19   1
  -2   3  -2   36.78    1.55   1
  -2   3  -2   34.50    1.62   1
  -2   3  -2   37.46    1.73   1
  -2   3  -2   35.39    1.67   1
   2  -3   2   34.52    6.88   1
   2  -3   2   34.49    6.28   1
   2  -3   2   33.95    6.51   1
   2  -3   2   35.23    1.60   1
   2  -3   2   34.81    1.28   1
   2  -3   2   35.29    1.67   1
   2  -3   2   34.33    6.37   1
   2  -3   2   34.28    1.62   1
  -3   3  -2  230.65    7.97   1
  -3   3  -2  227.83   16.53   1
  -3   3  -2  229.27    8.26   1
  -3   3  -2  217.97    7.48   1
  -3   3  -2  221.12    8.51   1
  -3   3  -2  228.14    8.56   1
  -3   3  -2  221.37    8.07   1
  -3   3  -2  235.02    8.75   1
   3  -3   2  217.90    5.41   1
   3  -3   2  218.36    8.75   1
   3  -3   2  219.61    5.93   1
   3  -3   2  215.52    5.58   1
   3  -3   2  218.58    6.67   1
   3  -3   2  222.84    5.69   1
  -4   3  -2   26.25    2.12   1
  -4   3  -2   28.71    1.87   1
  -4   3  -2   29.76    2.65   1
  -4   3  -2   26.82    2.08   1
  -4   3  -2   29.49    1.55   1
   4  -3   2   29.44    2.05   1
   4  -3   2   30.08    2.12   1
   4  -3   2   29.19    1.78   1
   4  -3   2   29.81    2.03   1
   4  -3   2   34.67    1.53   1
   4  -3   2   31.72    2.12   1
  -5   3  -2    3.18    1.28   1
  -5   3  -2    6.96    2.67   1
  -5   3  -2    3.86    1.69   1
  -5   3  -2    3.15    1.25   1
   5  -3   2    5.59    1.72   1
   5  -3   2    8.92    2.11   1
   5  -3   2    7.37    1.96   1
  -6   3  -2   63.31    4.24   1
  -6   3  -2   65.26    2.87   1
   6  -3   2   65.25    3.67   1
   6  -3   2   69.36    3.72   1
  -7   3  -2   11.19    2.05   1
  -7   3  -2   13.60    4.52   1
  -7   3  -2   12.55    2.67   1
   7  -3   2   18.54    2.85   1
   7  -3   2   14.49    2.70   1
  -8   3  -2    7.98    4.07   1
  -8   3  -2    9.20    4.02   1
   8  -3   2   15.54    3.23   1
   8  -3   2   16.69    3.23   1
   7   2  -2   21.75    3.74   1
  -7  -2   2   12.72    4.55   1
  -7  -2   2   13.76    3.31   1
   6   2  -2    3.47    2.39   1
   6   2  -2    3.27    2.39   1
  -6  -2   2    0.79    2.71   1
   5   2  -2   31.87    2.58   1
   5   2  -2   36.83    2.72   1
   5   2  -2   32.31    3.28   1
  -5  -2   2   22.12    2.40   1
  -5  -2   2   27.48    2.63   1
  -5  -2   2   27.64    3.16   1
   4   2  -2   52.50    3.24   1
   4   2  -2   56.20    3.02   1
   4   2  -2   56.25    3.06   1
  -4  -2   2   55.61    3.33   1
  -4  -2   2   48.96    3.00   1
  -4  -2   2   52.74    2.34   1
  -4  -2   2   49.24    2.56   1
  -4  -2   2   51.34    2.62   1
  -4  -2   2   53.07    2.14   1
   3   2  -2   23.50    2.50   1
   3   2  -2   28.20    2.10   1
   3   2  -2   28.36    2.15   1
   3   2  -2   24.83    1.80   1
  -3  -2   2   28.55    1.19   1
  -3  -2   2   26.90    1.14   1
  -3  -2   2   22.97    1.77   1
  -3  -2   2   26.90    2.05   1
   2   2  -2   35.50    1.84   1
   2   2  -2   34.10    2.72   1
   2   2  -2   35.41    1.82   1
   2   2  -2   31.65    1.96   1
  -2  -2   2   26.31    0.95   1
  -2  -2   2   35.63    3.69   1
  -2  -2   2   29.45    3.93   1
  -2  -2   2   34.13    1.96   1
  -2  -2   2   36.02    1.82   1
   1   2  -2  263.02   11.04   1
   1   2  -2  294.07   10.59   1
   1   2  -2  279.96   11.40   1
   1   2  -2  289.46   11.77   1
  -1  -2   2  290.43    9.34   1
  -1  -2   2  289.57   25.53   1
  -1  -2   2  277.85   12.77   1
  -1  -2   2  293.72   20.67   1
  -1  -2   2  298.10    8.93   1
  -1  -2   2  300.47   12.89   1
  -1  -2   2  287.45    8.31   1
   0   2  -2    1.51    0.57   1
   0   2  -2    1.61    0.50   1
   0   2  -2    1.17    0.66   1
   0   2  -2    1.51    0.82   1
   0   2  -2    2.76    1.01   1
   0   2  -2    1.83    0.57   1
   0   2  -2    1.45    0.76   1
   0  -2   2    1.89    0.79   1
   0  -2   2    2.34    2.27   1
   0  -2   2    0.73    0.51   1
   0  -2   2    1.33    1.61   1
   0  -2   2    1.49    1.51   1
   0   2  -2    2.33    4.27   1
   0   2  -2    1.96    4.23   1
   0  -2   2    1.32    4.20   1
   0  -2   2    3.77    4.36   1
  -1   2  -2 9259.28  501.27   1
  -1   2  -2 9576.50  494.07   1
   1  -2   2 9136.88  508.62   1
   1  -2   2 9092.07  504.50   1
  -2   2  -2  134.52    4.32   1
  -2   2  -2  133.90    3.42   1
  -2   2  -2  140.13    5.34   1
  -2   2  -2  140.70    9.44   1
  -2   2  -2  140.62    7.65   1
  -2   2  -2  135.77    3.57   1
  -2   2  -2  133.69    4.68   1
  -2   2  -2  138.31    6.91   1
  -2   2  -2  142.38    3.59   1
   2  -2   2  138.41    4.43   1
   2  -2   2  132.94    3.44   1
   2  -2   2  128.97    4.64   1
   2  -2   2  138.93    3.70   1
   2  -2   2  133.95    2.86   1
   2  -2   2  133.23    4.45   1
  -3   2  -2  260.93    7.64   1
  -3   2  -2  259.86    7.83   1
  -3   2  -2  258.61    6.17   1
  -3   2  -2  251.91    7.24   1
  -3   2  -2  268.06    6.89   1
  -3   2  -2  258.42    7.85   1
  -3   2  -2  255.98    6.30   1
  -3   2  -2  264.14    8.55   1
  -3   2  -2  266.77    6.73   1
   3  -2   2  248.96   10.35   1
   3  -2   2  253.55    8.55   1
   3  -2   2  255.41    6.57   1
   3  -2   2  239.59    5.79   1
   3  -2   2  247.45    5.36   1
   3  -2   2  259.42    5.83   1
  -4   2  -2   -0.08    1.21   1
  -4   2  -2    1.88    1.14   1
  -4   2  -2    2.06    2.06   1
  -4   2  -2    0.95    1.72   1
  -4   2  -2    2.19    1.15   1
  -4   2  -2    2.31    1.17   1
  -4   2  -2    1.98    1.20   1
  -4   2  -2    0.74    1.23   1
  -4   2  -2    1.23    1.08   1
   4  -2   2    0.74    1.07   1
   4  -2   2    0.31    1.39   1
   4  -2   2    0.18    0.81   1
   4  -2   2    0.46    1.45   1
   4  -2   2    0.63    1.04   1
  -5   2  -2    1.39    1.54   1
  -5   2  -2    3.59    2.35   1
  -5   2  -2    4.08    1.45   1
  -5   2  -2    3.49    1.64   1
   5  -2   2    3.00    2.23   1
   5  -2   2    4.30    2.23   1
  -6   2  -2    3.80    1.76   1
  -6   2  -2    4.20    1.90   1
  -6   2  -2    2.77    2.56   1
   6  -2   2    9.33    2.19   1
   6  -2   2    4.32    1.93   1
  -7   2  -2    5.79    2.87   1
  -7   2  -2    6.04    2.43   1
  -7   2  -2    4.23    3.06   1
   7  -2   2   11.72    3.28   1
   7  -2   2   10.77    3.25   1
  -8   2  -2   -2.66    3.27   1
  -8   2  -2   -0.09    3.93   1
  -8   2  -2    0.82    2.91   1
  -8  -1   2   -0.92    2.86   1
  -8  -1   2    1.52    2.74   1
   7   1  -2   16.62    3.46   1
  -7  -1   2    7.44    3.20   1
  -7  -1   2    6.87    3.20   1
   6   1  -2   17.17    2.22   1
   6   1  -2   16.59    3.03   1
  -6  -1   2   14.54    3.36   1
  -6  -1   2   14.32    2.23   1
   5   1  -2    1.09    1.52   1
   5   1  -2    2.71    1.59   1
   5   1  -2    3.77    2.48   1
  -5  -1   2    0.30    2.15   1
  -5  -1   2    1.16    1.79   1
   4   1  -2    2.29    1.27   1
   4   1  -2    2.95    2.03   1
   4   1  -2    1.02    1.18   1
  -4  -1   2    0.13    1.21   1
  -4  -1   2    2.13    1.02   1
  -4  -1   2    2.03    1.48   1
  -4  -1   2    1.44    1.71   1
  -4  -1   2    1.44    1.25   1
  -4  -1   2    0.75    1.34   1
   3   1  -2   25.27    1.85   1
   3   1  -2   32.28    2.17   1
   3   1  -2   32.39    1.82   1
   3   1  -2   34.35    1.87   1
  -3  -1   2   27.77    2.31   1
  -3  -1   2   34.70    1.78   1
  -3  -1   2   31.66    1.75   1
  -3  -1   2   29.84    1.41   1
  -3  -1   2   36.35    1.62   1
  -3  -1   2   29.73    1.99   1
  -3  -1   2   30.77    2.40   1
  -3  -1   2   29.25    1.48   1
   2   1  -2    4.01    1.30   1
   2   1  -2    1.60    0.98   1
   2   1  -2    3.32    0.78   1
   2   1  -2    5.31    0.91   1
  -2  -1   2    4.66    1.14   1
  -2  -1   2    3.59    0.56   1
  -2  -1   2    3.78    1.30   1
  -2  -1   2    2.77    1.40   1
  -2  -1   2    3.26    1.24   1
   1   1  -2   33.88    1.42   1
   1   1  -2   34.94    2.64   1
   1   1  -2   36.04    1.19   1
   1   1  -2   34.98    2.03   1
   1   1  -2   37.73    1.46   1
  -1  -1   2   34.55    1.69   1
  -1  -1   2   38.41    1.65   1
  -1  -1   2   35.21    3.67   1
  -1  -1   2   39.15    1.96   1
  -1  -1   2   37.08    1.44   1
  -1  -1   2   36.20    1.62   1
   1   1  -2   23.86    3.04   1
  -1  -1   2   30.04    3.27   1
   0   1  -2   17.57    0.74   1
   0   1  -2   18.34    0.82   1
   0   1  -2   16.32    0.72   1
   0   1  -2   16.60    0.66   1
   0   1  -2   16.45    0.77   1
   0   1  -2   17.24    0.92   1
   0  -1   2   16.45    0.69   1
   0  -1   2   14.97    0.79   1
   0  -1   2   16.73    0.74   1
   0  -1   2   16.45    0.94   1
   0  -1   2   17.34    0.72   1
   0  -1   2   15.84    0.74   1
   0   1  -2   13.52    2.70   1
   0   1  -2   10.61    2.31   1
   0  -1   2   17.83    2.90   1
   0  -1   2    9.83    2.22   1
  -1   1  -2    0.85    0.57   1
  -1   1  -2    0.40    0.48   1
  -1   1  -2    0.17    0.54   1
  -1   1  -2    0.37    0.56   1
  -1   1  -2    0.06    0.29   1
  -1   1  -2    0.14    0.31   1
  -1   1  -2    0.54    0.57   1
   1  -1   2    0.03    0.39   1
   1  -1   2    0.93    0.45   1
   1  -1   2    0.76    0.42   1
   1  -1   2    0.09    0.43   1
   1  -1   2    0.11    0.36   1
  -1   1  -2    0.78    1.65   1
  -1   1  -2    0.13    2.58   1
   1  -1   2    0.48    2.17   1
   1  -1   2    1.00    1.59   1
  -2   1  -2  119.53    4.39   1
  -2   1  -2  117.71    6.77   1
  -2   1  -2  117.80    3.10   1
  -2   1  -2  121.09    3.36   1
  -2   1  -2  124.38    5.20   1
  -2   1  -2  121.89    3.24   1
  -2   1  -2  120.55    4.97   1
   2  -1   2  123.79    3.71   1
   2  -1   2  120.38    3.71   1
   2  -1   2  121.64    3.09   1
   2  -1   2  118.34    2.95   1
   2  -1   2  124.72    5.97   1
   2  -1   2  118.41    3.76   1
  -3   1  -2    2.43    1.33   1
  -3   1  -2    2.00    1.00   1
  -3   1  -2    2.94    0.97   1
  -3   1  -2    1.88    0.94   1
  -3   1  -2    1.68    1.17   1
  -3   1  -2    2.26    1.00   1
  -3   1  -2    2.10    0.97   1
  -3   1  -2    2.19    1.19   1
  -3   1  -2    3.10    1.39   1
  -3   1  -2    2.13    1.23   1
   3  -1   2    2.42    1.13   1
   3  -1   2    2.36    0.97   1
   3  -1   2    2.97    1.03   1
   3  -1   2    3.20    1.03   1
   3  -1   2    2.91    1.03   1
  -4   1  -2   95.80    3.76   1
  -4   1  -2  104.80    4.62   1
  -4   1  -2  105.61    5.11   1
  -4   1  -2  107.08    5.82   1
  -4   1  -2   91.26    6.64   1
  -4   1  -2  104.84    4.69   1
  -4   1  -2  108.11    4.92   1
  -4   1  -2  108.14    5.01   1
  -4   1  -2  104.43    3.94   1
  -4   1  -2  109.95    7.84   1
  -4   1  -2  102.80    3.81   1
   4  -1   2  108.30    3.94   1
   4  -1   2  101.52    2.85   1
   4  -1   2  104.32    2.93   1
  -5   1  -2   20.62    2.01   1
  -5   1  -2   17.59    2.70   1
  -5   1  -2   21.02    2.41   1
   5  -1   2   19.22    1.77   1
   5  -1   2   24.29    2.17   1
   5  -1   2   20.65    1.80   1
  -6   1  -2   13.94    2.60   1
  -6   1  -2   13.15    2.15   1
  -6   1  -2   14.09    2.23   1
   6  -1   2   15.40    2.00   1
   6  -1   2   17.35    2.38   1
  -7   1  -2   44.96    3.55   1
  -7   1  -2   38.23    4.24   1
  -7   1  -2   47.34   10.03   1
   7  -1   2   49.64    3.75   1
  -8   1  -2   38.69    4.34   1
  -8   1  -2   28.50    4.12   1
  -8   1  -2   30.09    3.81   1
  -8   0   2   13.43    3.42   1
  -8   0   2   12.22    4.08   1
   7   0  -2    2.18    3.14   1
   7   0  -2   -0.22    1.91   1
  -7   0   2    4.90    7.61   1
  -7   0   2    1.57    2.10   1
  -7   0   2   -2.65    4.12   1
   6   0  -2  223.55    8.31   1
   6   0  -2  228.88    9.28   1
  -6   0   2  211.05    8.10   1
  -6   0   2  226.76   14.88   1
  -6   0   2  233.48    8.20   1
   5   0  -2  121.35    4.61   1
   5   0  -2  109.92    4.24   1
  -5   0   2  118.11    3.88   1
  -5   0   2  120.60    4.64   1
  -5   0   2  114.51    4.99   1
  -5   0   2  109.89    4.67   1
   4   0  -2   26.84    2.49   1
   4   0  -2   32.13    1.92   1
  -4   0   2   25.31    2.21   1
  -4   0   2   26.56    1.92   1
  -4   0   2   26.35    2.17   1
  -4   0   2   26.79    2.05   1
  -4   0   2   21.04    1.96   1
  -4   0   2   28.93    1.89   1
  -4   0   2   28.40    1.76   1
  -4   0   2   25.57    1.98   1
   3   0  -2 1514.13  109.83   1
   3   0  -2 1606.01  105.62   1
   3   0  -2 1534.60   46.62   1
  -3   0   2 1564.98   34.83   1
  -3   0   2 1582.44   69.60   1
  -3   0   2 1581.42   70.03   1
  -3   0   2 1613.12   60.35   1
  -3   0   2 1589.97   58.32   1
  -3   0   2 1627.19   37.33   1
  -3   0   2 1588.05   52.15   1
  -3   0   2 1594.59   47.64   1
   2   0  -2  111.99    6.75   1
   2   0  -2  106.38    5.53   1
   2   0  -2  107.85    8.53   1
   2   0  -2  101.90    3.63   1
   2   0  -2  110.78    4.35   1
  -2   0   2  109.47    3.26   1
  -2   0   2  109.12    4.76   1
  -2   0   2  109.36    3.19   1
  -2   0   2  112.15    5.06   1
  -2   0   2  112.32    4.46   1
  -2   0   2  102.73    4.29   1
  -2   0   2  109.21    4.48   1
  -2   0   2  111.74    3.92   1
   2   0  -2  105.73    6.36   1
   2   0  -2  101.06    6.76   1
  -2   0   2   99.01    6.53   1
  -2   0   2  104.41    6.80   1
   1   0  -2  115.36    3.95   1
   1   0  -2  113.78    2.79   1
   1   0  -2  115.01    4.53   1
   1   0  -2  108.91    3.88   1
  -1   0   2  111.96    5.02   1
  -1   0   2  110.44    4.86   1
  -1   0   2  113.29    3.32   1
  -1   0   2  113.35    5.23   1
  -1   0   2  113.43    3.71   1
  -1   0   2  108.35    2.94   1
  -1   0   2  119.58    3.80   1
   1   0  -2  109.97    6.82   1
   1   0  -2   99.28    7.06   1
  -1   0   2  114.70    7.90   1
  -1   0   2  115.27    7.29   1
   0   0  -2   -0.15    0.17   1
   0   0  -2   -0.20    0.20   1
   0   0  -2   -0.15    0.15   1
   0   0  -2   -0.17    0.17   1
   0   0  -2   -0.17    0.17   1
   0   0   2   -0.20    0.20   1
   0   0   2   -0.17    0.17   1
   0   0   2   -0.22    0.22   1
   0   0   2   -0.25    0.25   1
   0   0  -2   -0.39    1.06   1
   0   0  -2    0.26    1.07   1
   0   0   2   -1.03    1.03   1
   0   0   2    0.70    1.07   1
  -1   0  -2   30.81    1.07   1
  -1   0  -2   30.30    0.87   1
  -1   0  -2   32.65    0.91   1
  -1   0  -2   30.98    0.75   1
  -1   0  -2   30.76    1.21   1
  -1   0  -2   29.69    1.23   1
  -1   0  -2   28.89    1.51   1
  -1   0  -2   31.41    0.84   1
   1   0   2   31.06    1.28   1
   1   0   2   28.58    1.51   1
   1   0   2   29.90    0.71   1
   1   0   2   30.07    0.75   1
   1   0   2   29.70    0.85   1
   1   0   2   30.05    0.91   1
   1   0   2   29.75    1.23   1
   1   0   2   29.67    1.92   1
  -1   0  -2   26.94    2.38   1
  -1   0  -2   27.60    2.74   1
   1   0   2   21.29    2.55   1
   1   0   2   26.38    2.62   1
  -2   0  -2   64.89    1.73   1
  -2   0  -2   58.24    3.20   1
  -2   0  -2   58.77    2.92   1
  -2   0  -2   62.04    1.73   1
  -2   0  -2   61.59    3.16   1
  -2   0  -2   60.11    1.69   1
  -2   0  -2   58.49    3.27   1
  -2   0  -2   61.04    2.14   1
  -2   0  -2   62.55    1.86   1
   2   0   2   63.85    2.47   1
   2   0   2   64.92    1.78   1
   2   0   2   61.34    2.30   1
   2   0   2   62.58    1.99   1
   2   0   2   62.03    2.44   1
   2   0   2   60.75    2.16   1
   2   0   2   63.67    1.88   1
  -3   0  -2    8.99    1.63   1
  -3   0  -2    7.90    1.15   1
  -3   0  -2    9.35    1.77   1
  -3   0  -2    5.45    1.35   1
  -3   0  -2    7.13    1.09   1
  -3   0  -2    6.72    1.10   1
  -3   0  -2    7.71    1.32   1
  -3   0  -2    9.12    1.47   1
  -3   0  -2    7.57    1.07   1
   3   0   2    8.07    1.69   1
   3   0   2    8.12    0.93   1
   3   0   2    8.14    1.35   1
   3   0   2   10.03    0.99   1
  -4   0  -2   22.35    4.07   1
  -4   0  -2   20.07    2.22   1
  -4   0  -2   23.39    1.68   1
  -4   0  -2   20.62    1.68   1
  -4   0  -2   18.94    1.61   1
  -4   0  -2   21.28    1.96   1
  -4   0  -2   23.39    1.99   1
  -4   0  -2   22.04    1.73   1
  -4   0  -2   18.01    1.99   1
  -4   0  -2   18.79    2.37   1
   4   0   2   26.18    1.49   1
   4   0   2   25.68    2.37   1
   4   0   2   26.63    1.51   1
  -5   0  -2    5.16    2.00   1
  -5   0  -2    4.67    1.46   1
  -5   0  -2    5.37    1.49   1
  -5   0  -2    7.28    2.15   1
  -5   0  -2    3.94    1.94   1
  -5   0  -2    5.04    1.97   1
  -5   0  -2    6.02    1.91   1
   5   0   2   10.20    2.67   1
  -6   0  -2    5.20    2.30   1
  -6   0  -2    4.59    2.12   1
  -6   0  -2    4.44    3.17   1
   6   0   2    7.96    2.85   1
  -7   0  -2   -0.83    2.48   1
  -7   0  -2    8.74    4.19   1
  -7   0  -2    1.30    3.82   1
   7   0   2   -1.18    2.44   1
  -8   0  -2    2.68    3.44   1
   8   0   2    8.17    3.08   1
   8  -1  -2    8.64    3.83   1
  -8   1   2    2.08    3.42   1
  -8   1   2    2.38    2.73   1
   7  -1  -2    6.39    2.73   1
  -7   1   2    2.13    2.78   1
  -7   1   2    4.07    2.59   1
  -7   1   2    3.03    2.35   1
   6  -1  -2    4.56    3.33   1
  -6   1   2    0.43    2.47   1
  -6   1   2    1.39    2.25   1
  -6   1   2    0.06    2.90   1
   5  -1  -2    7.21    1.98   1
  -5   1   2    5.67    1.90   1
  -5   1   2    3.80    1.40   1
  -5   1   2    5.86    1.54   1
  -5   1   2    6.47    2.28   1
  -5   1   2    6.42    1.93   1
   4  -1  -2    0.42    1.33   1
   4  -1  -2   -1.13    1.32   1
   4  -1  -2    0.30    1.12   1
   4  -1  -2    0.38    1.06   1
  -4   1   2   -0.47    1.10   1
  -4   1   2    0.49    1.21   1
  -4   1   2    0.19    1.67   1
  -4   1   2   -0.11    1.55   1
  -4   1   2    1.47    1.20   1
  -4   1   2   -0.14    1.29   1
  -4   1   2    0.19    1.12   1
  -4   1   2   -0.30    1.21   1
  -4   1   2    0.33    1.16   1
  -4   1   2   -0.22    1.17   1
   3  -1  -2    2.01    1.12   1
   3  -1  -2    0.59    1.02   1
   3  -1  -2    0.47    1.02   1
   3  -1  -2    1.94    1.05   1
   3  -1  -2   -0.40    0.93   1
  -3   1   2    0.09    0.68   1
  -3   1   2   -0.06    1.48   1
  -3   1   2    1.26    1.02   1
  -3   1   2    1.05    1.46   1
  -3   1   2    1.23    1.02   1
  -3   1   2    0.68    0.71   1
  -3   1   2   -0.16    0.99   1
   2  -1  -2    0.51    0.59   1
   2  -1  -2   -0.24    0.84   1
   2  -1  -2    0.29    0.68   1
   2  -1  -2    0.11    0.52   1
   2  -1  -2   -0.13    0.57   1
  -2   1   2   -0.10    0.64   1
  -2   1   2    0.37    0.51   1
  -2   1   2    0.34    0.55   1
  -2   1   2    0.16    0.37   1
  -2   1   2    0.31    0.62   1
  -2   1   2    0.26    0.60   1
   2  -1  -2   -0.35    1.62   1
   2  -1  -2    0.65    2.06   1
  -2   1   2   -0.72    2.25   1
  -2   1   2    0.11    2.40   1
   1  -1  -2 1313.04   48.46   1
   1  -1  -2 1361.55   26.08   1
   1  -1  -2 1401.68   28.01   1
   1  -1  -2 1332.48   56.80   1
   1  -1  -2 1387.93   26.34   1
  -1   1   2 1405.71   34.82   1
  -1   1   2 1387.17   35.19   1
  -1   1   2 1430.87   35.93   1
  -1   1   2 1377.26   43.33   1
  -1   1   2 1361.67   39.93   1
   1  -1  -2 1428.19   83.62   1
  -1   1   2 1490.50   77.15   1
  -1   1   2 1419.07   92.28   1
   0  -1  -2   59.68    2.34   1
   0  -1  -2   51.63    1.41   1
   0  -1  -2   54.17    1.82   1
   0  -1  -2   52.12    1.80   1
   0   1   2   55.54    1.32   1
   0   1   2   51.70    1.80   1
   0   1   2   59.17    2.16   1
   0   1   2   56.26    1.26   1
   0   1   2   53.98    1.78   1
   0  -1  -2   54.18    4.72   1
   0  -1  -2   49.68    4.58   1
   0   1   2   56.26    4.68   1
   0   1   2   58.15    4.75   1
  -1  -1  -2  957.43   30.40   1
  -1  -1  -2  959.48   24.48   1
  -1  -1  -2  968.29   18.19   1
  -1  -1  -2 1007.94   28.84   1
  -1  -1  -2  982.41   36.74   1
   1   1   2  980.04   36.38   1
   1   1   2  974.41   40.52   1
   1   1   2  941.81   33.75   1
   1   1   2  976.00   46.78   1
  -1  -1  -2 1075.61   61.74   1
  -1  -1  -2 1069.41   70.68   1
   1   1   2 1088.92   58.64   1
  -2  -1  -2   73.14    3.34   1
  -2  -1  -2   72.63    5.93   1
  -2  -1  -2   71.76    4.90   1
  -2  -1  -2   76.98    2.85   1
  -2  -1  -2   76.98    2.80   1
  -2  -1  -2   73.37    2.46   1
  -2  -1  -2   76.76    2.12   1
  -2  -1  -2   75.19    2.76   1
  -2  -1  -2   75.83    2.52   1
  -2  -1  -2   75.76    2.37   1
   2   1   2   75.03    2.18   1
   2   1   2   74.53    3.38   1
   2   1   2   71.88    2.59   1
  -3  -1  -2  534.14   20.02   1
  -3  -1  -2  506.71   10.20   1
  -3  -1  -2  517.89   21.03   1
  -3  -1  -2  506.57   15.94   1
  -3  -1  -2  502.35   16.13   1
  -3  -1  -2  516.51   10.49   1
  -3  -1  -2  515.13   10.71   1
  -3  -1  -2  502.54   14.32   1
  -3  -1  -2  518.92   26.43   1
  -3  -1  -2  510.93   11.36   1
   3   1   2  515.72   19.24   1
   3   1   2  509.44   19.73   1
   3   1   2  484.36   16.23   1
  -4  -1  -2  314.48   11.03   1
  -4  -1  -2  321.10    9.77   1
  -4  -1  -2  310.66    8.91   1
  -4  -1  -2  312.85    9.77   1
  -4  -1  -2  319.35   11.92   1
  -4  -1  -2  317.77    9.38   1
   4   1   2  303.09   17.03   1
   4   1   2  303.27   10.97   1
   4   1   2  305.46   13.75   1
  -5  -1  -2   29.81    2.26   1
  -5  -1  -2   29.93    2.76   1
  -5  -1  -2   27.69    1.87   1
  -5  -1  -2   29.34    2.26   1
  -5  -1  -2   29.41    3.13   1
  -5  -1  -2   29.39    2.21   1
   5   1   2   31.60    3.04   1
   5   1   2   35.28    2.79   1
  -6  -1  -2    8.96    3.07   1
  -6  -1  -2    4.46    2.44   1
  -6  -1  -2    2.98    2.28   1
   6   1   2    9.21    3.73   1
  -7  -1  -2   25.35    3.49   1
   7   1   2   31.11    3.66   1
   8  -2  -2    0.46    4.00   1
  -8   2   2    0.80    3.13   1
  -8   2   2    2.05    3.23   1
   7  -2  -2   27.96    3.68   1
  -7   2   2   28.99    3.92   1
  -7   2   2   22.27    2.30   1
  -7   2   2   17.40    3.59   1
   6  -2  -2  192.29    9.28   1
  -6   2   2  170.79    9.00   1
  -6   2   2  197.69    6.45   1
  -6   2   2  182.17    7.78   1
   5  -2  -2    4.49    1.77   1
   5  -2  -2    4.43    2.40   1
   5  -2  -2    4.49    2.43   1
   5  -2  -2    3.54    1.80   1
  -5   2   2    2.69    1.14   1
  -5   2   2    2.85    2.07   1
  -5   2   2    2.43    1.50   1
  -5   2   2    1.35    1.41   1
   4  -2  -2  170.51    9.74   1
   4  -2  -2  167.12    5.17   1
   4  -2  -2  170.93    5.51   1
   4  -2  -2  169.02   14.52   1
   4  -2  -2  171.15   10.85   1
  -4   2   2  172.63    5.98   1
  -4   2   2  170.39    5.30   1
  -4   2   2  186.46    9.09   1
  -4   2   2  184.06    6.05   1
  -4   2   2  180.98    7.12   1
   3  -2  -2  115.03    3.49   1
   3  -2  -2  112.65    5.40   1
   3  -2  -2  120.28    3.62   1
   3  -2  -2  117.83    4.88   1
   3  -2  -2  115.51    3.74   1
  -3   2   2  118.03    3.51   1
  -3   2   2  122.05    4.32   1
  -3   2   2  116.75    4.97   1
  -3   2   2  124.52    4.54   1
  -3   2   2  129.32    3.83   1
  -3   2   2  120.35    5.03   1
  -3   2   2  114.92    4.80   1
  -3   2   2  112.91    5.29   1
   2  -2  -2   25.19    4.55   1
   2  -2  -2   24.32    1.61   1
   2  -2  -2   26.48    4.80   1
   2  -2  -2   22.73    1.15   1
   2  -2  -2   27.63    1.24   1
  -2   2   2   25.97    1.58   1
  -2   2   2   24.12    1.40   1
  -2   2   2   25.03    1.42   1
  -2   2   2   27.70    0.85   1
  -2   2   2   25.41    1.38   1
  -2   2   2   28.40    1.15   1
  -2   2   2   27.94    1.17   1
  -2   2   2   25.69    1.61   1
   1  -2  -2   36.75    1.57   1
   1  -2  -2   39.86    1.41   1
   1  -2  -2   39.32    1.63   1
   1  -2  -2   35.52    2.26   1
   1  -2  -2   39.91    1.84   1
   1  -2  -2   39.55    1.50   1
  -1   2   2   37.72    1.41   1
  -1   2   2   41.52    2.68   1
  -1   2   2   40.19    1.72   1
  -1   2   2   38.23    1.70   1
  -1   2   2   38.27    1.43   1
  -1   2   2   39.26    2.10   1
  -1   2   2   41.28    1.52   1
   1  -2  -2   31.00    5.39   1
   1  -2  -2   31.27    5.27   1
  -1   2   2   29.81    5.61   1
  -1   2   2   36.27    5.80   1
   0  -2  -2  243.19    9.75   1
   0  -2  -2  242.36   13.19   1
   0  -2  -2  247.05    6.18   1
   0  -2  -2  243.59    7.01   1
   0  -2  -2  257.62    8.39   1
   0  -2  -2  252.98    8.12   1
   0  -2  -2  256.61    7.52   1
   0   2   2  245.85   11.63   1
   0   2   2  243.62    4.88   1
   0   2   2  255.18    5.54   1
   0   2   2  249.64    6.08   1
   0   2   2  246.74    6.14   1
   0   2   2  237.25    9.55   1
   0   2   2  243.79   11.17   1
   0  -2  -2  254.54   16.16   1
   0  -2  -2  251.33   16.50   1
   0   2   2  260.35   16.33   1
   0   2   2  252.60   16.28   1
  -1  -2  -2  476.76   28.00   1
  -1  -2  -2  480.30   12.78   1
  -1  -2  -2  485.41   13.64   1
  -1  -2  -2  494.19   16.31   1
  -1  -2  -2  495.08   16.24   1
  -1  -2  -2  488.23   17.31   1
  -1  -2  -2  490.11   15.24   1
   1   2   2  508.10   29.93   1
   1   2   2  490.87   20.06   1
   1   2   2  460.91   20.78   1
   1   2   2  458.56   19.73   1
  -2  -2  -2    0.09    0.21   1
  -2  -2  -2    0.60    1.26   1
  -2  -2  -2   -0.22    0.22   1
  -2  -2  -2   -0.19    0.19   1
  -2  -2  -2    0.35    1.31   1
  -2  -2  -2   -0.16    0.19   1
  -2  -2  -2   -0.09    0.22   1
  -2  -2  -2   -0.28    1.23   1
  -2  -2  -2   -0.12    0.22   1
  -2  -2  -2    0.39    0.73   1
   2   2   2    0.48    1.27   1
   2   2   2   -0.06    1.80   1
   2   2   2    0.15    0.89   1
  -3  -2  -2  179.32    4.74   1
  -3  -2  -2  167.77    4.36   1
  -3  -2  -2  174.57    5.72   1
  -3  -2  -2  164.48    7.82   1
  -3  -2  -2  177.93    5.83   1
  -3  -2  -2  173.04    4.36   1
   3   2   2  169.78    5.89   1
   3   2   2  178.27    5.86   1
   3   2   2  170.61    6.73   1
  -4  -2  -2  278.43    7.30   1
  -4  -2  -2  281.34    8.17   1
  -4  -2  -2  286.27    8.03   1
  -4  -2  -2  279.09    8.85   1
  -4  -2  -2  294.99   13.36   1
  -4  -2  -2  276.14    9.15   1
  -4  -2  -2  292.44    8.81   1
   4   2   2  275.51   11.71   1
   4   2   2  295.71   12.18   1
  -5  -2  -2   59.93    3.76   1
  -5  -2  -2   55.28    3.24   1
   5   2   2   62.59    3.74   1
   5   2   2   63.42    3.85   1
  -6  -2  -2    2.08    2.34   1
  -6  -2  -2    5.91    2.91   1
   6   2   2    4.41    2.68   1
   6   2   2    7.18    2.83   1
  -7  -2  -2    1.24    3.52   1
  -7  -2  -2    1.08    2.90   1
   7   2   2    4.57    4.39   1
   8  -3  -2    8.48    3.12   1
  -8   3   2    3.88    5.09   1
  -8   3   2    2.38    3.36   1
   7  -3  -2   13.82    3.03   1
  -7   3   2   15.89    4.02   1
  -7   3   2   17.77    3.85   1
   6  -3  -2   24.04    2.59   1
   6  -3  -2   25.92    2.87   1
   6  -3  -2   26.00    2.61   1
  -6   3   2   17.84    2.80   1
  -6   3   2   19.80    1.81   1
   5  -3  -2   93.75    4.74   1
   5  -3  -2  104.79    4.20   1
   5  -3  -2  101.43    4.00   1
   5  -3  -2  102.93    3.68   1
  -5   3   2   92.18   11.42   1
  -5   3   2   92.93    4.18   1
  -5   3   2   98.32    6.20   1
  -5   3   2   94.43    4.22   1
   4  -3  -2    6.30    2.19   1
   4  -3  -2    8.01    2.31   1
   4  -3  -2    8.97    1.53   1
   4  -3  -2    7.65    1.44   1
  -4   3   2    8.07    0.72   1
  -4   3   2    7.50    2.13   1
  -4   3   2    5.10    1.53   1
  -4   3   2    5.79    1.20   1
   3  -3  -2  143.09    6.96   1
   3  -3  -2  133.95    6.66   1
   3  -3  -2  135.90    4.61   1
   3  -3  -2  135.11    4.49   1
   3  -3  -2  136.69    7.12   1
  -3   3   2  147.74    7.48   1
  -3   3   2  137.49    4.12   1
  -3   3   2  141.55    3.91   1
  -3   3   2  145.69    5.30   1
  -3   3   2  143.28    4.46   1
  -3   3   2  145.72   10.09   1
  -3   3   2  145.84    4.06   1
  -3   3   2  139.14   10.96   1
   2  -3  -2   42.88    1.82   1
   2  -3  -2   42.99    1.44   1
   2  -3  -2   40.88    1.82   1
   2  -3  -2   38.70    3.28   1
  -2   3   2   39.54    2.35   1
  -2   3   2   42.18    2.26   1
  -2   3   2   40.57    1.78   1
  -2   3   2   41.13    1.86   1
  -2   3   2   40.87    1.82   1
  -2   3   2   40.20    1.73   1
  -2   3   2   43.26    2.17   1
  -2   3   2   42.51    1.82   1
   1  -3  -2   15.19    1.70   1
   1  -3  -2   18.97    1.11   1
   1  -3  -2   15.39    1.29   1
   1  -3  -2   19.23    1.34   1
   1  -3  -2   18.43    1.06   1
   1  -3  -2   16.97    1.34   1
   1  -3  -2   17.51    1.21   1
   1  -3  -2   17.09    1.19   1
  -1   3   2   15.57    1.47   1
  -1   3   2   19.91    1.29   1
  -1   3   2   16.48    1.68   1
  -1   3   2   17.05    1.13   1
  -1   3   2   16.28    1.13   1
  -1   3   2   15.35    1.11   1
  -1   3   2   19.02    1.52   1
   0  -3  -2  371.15   12.12   1
   0  -3  -2  368.30   11.67   1
   0  -3  -2  367.73   10.50   1
   0  -3  -2  361.90   12.47   1
   0  -3  -2  374.73   13.42   1
   0  -3  -2  373.36   11.15   1
   0  -3  -2  380.94    7.75   1
   0   3   2  392.73    8.90   1
   0   3   2  380.48   10.06   1
   0   3   2  369.44    7.95   1
   0   3   2  375.68    9.74   1
   0   3   2  360.07    8.01   1
   0   3   2  381.40    8.87   1
   0   3   2  366.10   15.67   1
  -1  -3  -2  564.99   23.00   1
  -1  -3  -2  559.55   22.30   1
  -1  -3  -2  564.38   15.99   1
  -1  -3  -2  557.07   14.81   1
  -1  -3  -2  558.41   18.89   1
  -1  -3  -2  560.62   22.25   1
  -1  -3  -2  568.58   19.56   1
   1   3   2  512.55   15.55   1
   1   3   2  520.13   17.05   1
   1   3   2  513.28   15.85   1
   1   3   2  563.54   11.45   1
   1   3   2  523.97   13.44   1
   1   3   2  561.58   11.19   1
  -2  -3  -2   65.80    1.88   1
  -2  -3  -2   64.07    2.81   1
  -2  -3  -2   66.26    1.40   1
  -2  -3  -2   64.80    1.96   1
  -2  -3  -2   66.12    1.40   1
  -2  -3  -2   64.84    1.92   1
  -2  -3  -2   58.94    2.98   1
  -2  -3  -2   65.40    1.81   1
   2   3   2   62.35    2.81   1
   2   3   2   60.24    3.73   1
   2   3   2   65.46    3.08   1
   2   3   2   63.97    2.09   1
  -3  -3  -2  389.92    9.31   1
  -3  -3  -2  369.10   17.34   1
  -3  -3  -2  364.92   10.98   1
  -3  -3  -2  374.17   11.00   1
  -3  -3  -2  368.39   10.60   1
  -3  -3  -2  348.42   21.31   1
  -3  -3  -2  365.80   10.71   1
  -3  -3  -2  381.97    8.05   1
   3   3   2  343.49   12.92   1
   3   3   2  371.03   11.88   1
  -4  -3  -2   26.10    2.43   1
   4   3   2   25.54    3.20   1
   4   3   2   27.12    3.17   1
  -5  -3  -2    5.41    2.31   1
  -5  -3  -2    4.73    2.79   1
   5   3   2    7.49    2.74   1
   5   3   2    6.95    3.45   1
  -6  -3  -2    3.82    3.62   1
  -6  -3  -2    0.13    2.79   1
   6   3   2    1.02    3.29   1
   6   3   2    7.85    3.68   1
  -7  -3  -2   25.82    3.77   1
  -7  -3  -2   37.51    4.60   1
   7   3   2   37.42    4.34   1
   7   3   2   33.70    4.34   1
  -8   4   2   20.12    5.03   1
  -8   4   2   18.67    4.77   1
   7  -4  -2    6.12    2.96   1
   7  -4  -2    7.97    2.51   1
   7  -4  -2    7.52    3.04   1
  -7   4   2    4.78    3.55   1
   6  -4  -2    8.33    3.13   1
   6  -4  -2    6.00    3.08   1
  -6   4   2    7.12    2.76   1
   5  -4  -2   26.80    2.55   1
   5  -4  -2   24.83    2.38   1
   5  -4  -2   28.96    2.29   1
   5  -4  -2   28.18    2.34   1
  -5   4   2   25.05    1.33   1
  -5   4   2   23.81    2.06   1
  -5   4   2   23.51    3.44   1
   4  -4  -2   39.72    2.95   1
   4  -4  -2   38.37    2.44   1
   4  -4  -2   34.81    2.40   1
   4  -4  -2   36.88    2.40   1
  -4   4   2   39.84    8.33   1
  -4   4   2   34.25    1.57   1
  -4   4   2   35.84    2.65   1
   3  -4  -2   80.58    3.08   1
   3  -4  -2   79.35    3.57   1
   3  -4  -2   79.58    2.73   1
   3  -4  -2   81.78    3.14   1
  -3   4   2   80.73    3.06   1
  -3   4   2   78.01    3.38   1
   2  -4  -2    8.67    1.04   1
   2  -4  -2    3.58    2.26   1
   2  -4  -2    4.29    1.31   1
   2  -4  -2    4.65    1.34   1
   2  -4  -2    5.43    1.73   1
   2  -4  -2    6.56    0.48   1
   2  -4  -2    2.41    1.58   1
  -2   4   2    7.01    1.58   1
  -2   4   2    6.05    1.37   1
  -2   4   2    4.18    1.22   1
  -2   4   2    8.56    1.43   1
  -2   4   2    6.38    2.15   1
  -2   4   2    4.77    1.31   1
   1  -4  -2   31.54    1.67   1
   1  -4  -2   31.87    1.89   1
   1  -4  -2   29.29    2.28   1
   1  -4  -2   35.52    2.05   1
   1  -4  -2   32.26    1.80   1
   1  -4  -2   35.35    1.67   1
   1  -4  -2   28.82    1.94   1
   1  -4  -2   32.23    1.62   1
  -1   4   2   33.53    1.55   1
  -1   4   2   31.11    1.64   1
  -1   4   2   32.85    1.69   1
  -1   4   2   30.36    1.67   1
  -1   4   2   31.41    1.98   1
  -1   4   2   29.97    2.31   1
  -1   4   2   32.12    2.12   1
   0  -4  -2  287.29   13.45   1
   0  -4  -2  273.88   11.44   1
   0  -4  -2  288.75   11.76   1
   0  -4  -2  283.66   10.20   1
   0  -4  -2  278.79   11.52   1
   0  -4  -2  283.13   10.43   1
   0   4   2  255.47   31.26   1
   0   4   2  276.96   19.18   1
   0   4   2  282.13   13.03   1
   0   4   2  285.77   12.81   1
   0   4   2  273.66    7.38   1
  -1  -4  -2    6.93    0.81   1
  -1  -4  -2    9.01    1.60   1
  -1  -4  -2    7.95    0.86   1
  -1  -4  -2    7.71    0.86   1
  -1  -4  -2    9.06    1.54   1
  -1  -4  -2    7.68    0.84   1
   1   4   2    9.47    2.00   1
   1   4   2   10.22    0.76   1
   1   4   2   10.04    1.24   1
   1   4   2   10.17    0.76   1
  -2  -4  -2   28.20    0.84   1
  -2  -4  -2   25.56    0.96   1
  -2  -4  -2   27.92    0.86   1
  -2  -4  -2   26.52    1.28   1
  -2  -4  -2   22.61    1.68   1
  -2  -4  -2   28.20    2.17   1
   2   4   2   30.51    2.76   1
   2   4   2   27.87    1.78   1
   2   4   2   25.30    2.55   1
  -3  -4  -2   71.53    3.38   1
  -3  -4  -2   65.39    5.69   1
   3   4   2   68.15    4.12   1
   3   4   2   79.37    4.50   1
  -4  -4  -2   42.13    3.51   1
  -4  -4  -2   36.63    2.95   1
   4   4   2   37.26    3.38   1
   4   4   2   48.18    4.23   1
  -5  -4  -2    4.26    3.68   1
  -5  -4  -2   -1.38    2.59   1
   5   4   2    0.67    3.13   1
   5   4   2    1.68    4.38   1
  -6  -4  -2   47.61    4.66   1
  -6  -4  -2   55.24    4.28   1
   6   4   2   45.19    4.44   1
   6   4   2   42.46    4.35   1
   8  -5  -2    1.83    3.80   1
   8  -5  -2    3.53    4.02   1
  -8   5   2    3.19    4.82   1
   7  -5  -2    9.57    4.41   1
   7  -5  -2    2.45    4.17   1
  -7   5   2    8.79    4.03   1
   6  -5  -2   45.61    3.47   1
   6  -5  -2   56.29    3.20   1
   6  -5  -2   40.11    3.27   1
   6  -5  -2   44.39    3.00   1
  -6   5   2   41.88    3.96   1
   5  -5  -2    9.62    2.01   1
   5  -5  -2   12.04    2.20   1
   5  -5  -2    6.83    2.31   1
   5  -5  -2   10.09    2.48   1
  -5   5   2   12.30    3.99   1
   4  -5  -2  250.46    8.55   1
   4  -5  -2  246.70   16.04   1
   4  -5  -2  253.01    9.04   1
   4  -5  -2  241.99   25.17   1
  -4   5   2  253.95   12.61   1
  -4   5   2  256.62    8.73   1
   3  -5  -2  132.01    5.35   1
   3  -5  -2  128.62    4.63   1
   3  -5  -2  139.29    5.62   1
  -3   5   2  139.25    7.29   1
  -3   5   2  134.20    7.29   1
   2  -5  -2   58.20    3.00   1
   2  -5  -2   57.66    3.15   1
   2  -5  -2   59.07    2.76   1
   2  -5  -2   60.62    2.20   1
   2  -5  -2   60.45    2.37   1
   2  -5  -2   64.15    2.87   1
   2  -5  -2   65.99    2.98   1
  -2   5   2   62.15    3.13   1
  -2   5   2   59.00    2.93   1
   1  -5  -2  344.83   13.80   1
   1  -5  -2  338.43   10.37   1
   1  -5  -2  319.51   24.06   1
   1  -5  -2  326.06   15.93   1
   1  -5  -2  335.20   14.07   1
   1  -5  -2  332.74   15.05   1
   1  -5  -2  338.04   10.33   1
  -1   5   2  319.89   14.57   1
  -1   5   2  336.70   20.18   1
  -1   5   2  353.38   11.87   1
  -1   5   2  356.45   13.10   1
  -1   5   2  357.53   18.92   1
  -1   5   2  357.15   20.23   1
   0  -5  -2   72.62    2.68   1
   0  -5  -2   67.15    2.61   1
   0  -5  -2   66.69    2.98   1
   0  -5  -2   67.15    3.39   1
   0  -5  -2   72.50    3.86   1
   0  -5  -2   65.06    3.00   1
   0  -5  -2   65.21    3.30   1
   0   5   2   68.39    4.58   1
   0   5   2   70.64    5.14   1
   0   5   2   79.03    3.71   1
   0   5   2   68.41    2.81   1
  -1  -5  -2   11.55    1.90   1
  -1  -5  -2    8.42    1.09   1
  -1  -5  -2    8.11    1.07   1
  -1  -5  -2    8.19    1.93   1
  -1  -5  -2    8.46    1.07   1
  -1  -5  -2    7.88    1.04   1
   1   5   2   11.93    1.50   1
   1   5   2   11.48    0.99   1
   1   5   2   11.75    2.47   1
  -2  -5  -2   12.63    2.18   1
   2   5   2    8.79    3.35   1
   2   5   2   15.47    1.59   1
   2   5   2    7.73    2.47   1
  -3  -5  -2    6.16    2.30   1
   3   5   2    8.17    3.98   1
   3   5   2    2.36    3.74   1
  -4  -5  -2    1.23    2.53   1
   4   5   2    1.87    4.38   1
   4   5   2    3.39    4.50   1
  -5  -5  -2    9.22    3.79   1
  -5  -5  -2    8.81    4.01   1
   5   5   2   11.37    3.68   1
   5   5   2    5.52    3.26   1
   7  -6  -2   33.79    4.64   1
   7  -6  -2   26.39    4.48   1
  -7   6   2   28.95    4.41   1
   6  -6  -2   -1.90    3.21   1
   6  -6  -2   -0.15    3.11   1
  -6   6   2    2.87    3.09   1
   5  -6  -2   -0.08    1.03   1
   5  -6  -2   -0.80    1.49   1
   5  -6  -2   -1.54    2.80   1
   5  -6  -2   -2.34    2.84   1
  -5   6   2    0.71    3.66   1
  -5   6   2    2.11    2.86   1
   4  -6  -2   41.72    3.89   1
   4  -6  -2   38.38    2.80   1
   4  -6  -2   46.44    2.47   1
   4  -6  -2   32.09    2.74   1
  -4   6   2   42.11    3.54   1
  -4   6   2   38.80    3.01   1
   3  -6  -2    1.26    2.17   1
   3  -6  -2    1.05    1.09   1
   3  -6  -2    2.72    2.14   1
  -3   6   2    1.84    3.43   1
  -3   6   2    0.00    2.55   1
   2  -6  -2   25.58    1.45   1
   2  -6  -2   26.40    1.83   1
   2  -6  -2   21.17    2.34   1
   2  -6  -2   23.45    2.11   1
   2  -6  -2   19.40    2.09   1
   2  -6  -2   22.98    2.46   1
   2  -6  -2   19.98    2.34   1
  -2   6   2   25.81    2.48   1
  -2   6   2   22.49    2.58   1
   1  -6  -2   23.87    1.95   1
   1  -6  -2   29.31    1.85   1
   1  -6  -2   28.13    1.94   1
   1  -6  -2   25.30    1.94   1
   1  -6  -2   21.89    2.09   1
   1  -6  -2   29.67    2.42   1
   1  -6  -2   22.78    2.11   1
  -1   6   2   30.02    2.76   1
  -1   6   2   27.75    2.93   1
   0  -6  -2   71.69    3.58   1
   0  -6  -2   64.79    2.89   1
   0  -6  -2   63.97    2.59   1
   0  -6  -2   65.53    2.81   1
   0  -6  -2   63.45    2.53   1
   0   6   2   68.57    3.60   1
   0   6   2   64.94    3.24   1
   0   6   2   66.73    3.86   1
   0   6   2   68.24    4.01   1
  -1  -6  -2   14.80    2.36   1
   1   6   2   14.65    2.95   1
   1   6   2   21.47    1.94   1
  -2  -6  -2   23.82    3.21   1
   2   6   2   34.95    4.18   1
   2   6   2   34.05    2.30   1
   2   6   2   27.84    3.48   1
  -3  -6  -2  126.56    5.85   1
   3   6   2  119.43    8.08   1
   3   6   2  113.99    6.55   1
  -4  -6  -2    8.89    3.16   1
  -4  -6  -2    7.75    3.76   1
   4   6   2    6.84    3.82   1
   4   6   2   12.26    3.99   1
   7  -7  -2   51.48    4.74   1
   7  -7  -2   49.79    4.67   1
  -7   7   2   47.87    6.65   1
  -7   7   2   34.24    4.06   1
   6  -7  -2    1.01    2.49   1
   6  -7  -2    0.57    2.68   1
  -6   7   2   -1.71    3.46   1
  -6   7   2    1.20    2.55   1
   5  -7  -2   14.20    3.80   1
   5  -7  -2    8.13    3.65   1
  -5   7   2   10.87    4.85   1
  -5   7   2   10.79    3.00   1
   4  -7  -2   23.61    2.84   1
   4  -7  -2   23.48    2.75   1
  -4   7   2   23.87    3.82   1
  -4   7   2   34.53    3.70   1
   3  -7  -2    1.11    2.36   1
   3  -7  -2    0.81    0.86   1
   3  -7  -2   -1.16    2.28   1
  -3   7   2    0.36    2.16   1
  -3   7   2    1.38    2.23   1
   2  -7  -2    6.92    2.62   1
   2  -7  -2    6.57    2.64   1
   2  -7  -2   13.01    3.00   1
   2  -7  -2    6.92    2.03   1
   2  -7  -2    9.15    2.20   1
   2  -7  -2   10.90    1.92   1
  -2   7   2   14.63    3.42   1
  -2   7   2    4.81    3.65   1
   1  -7  -2   42.10    2.47   1
   1  -7  -2   42.31    3.10   1
   1  -7  -2   36.61    2.74   1
   1  -7  -2   47.13    2.79   1
   1  -7  -2   36.08    2.65   1
   1  -7  -2   38.43    2.43   1
  -1   7   2   39.94    3.71   1
  -1   7   2   40.11    3.21   1
   0  -7  -2    8.82    2.32   1
   0   7   2   13.66    2.68   1
   0   7   2    6.68    3.79   1
  -1  -7  -2   12.76    2.66   1
   1   7   2   14.23    2.55   1
   1   7   2   12.94    3.48   1
   1   7   2   10.36    3.37   1
  -2  -7  -2    0.61    2.16   1
   2   7   2   -2.17    4.02   1
   2   7   2   -0.28    2.97   1
  -3  -7  -2    1.02    2.44   1
   3   7   2    0.64    3.09   1
   3   7   2   -0.17    4.34   1
   6  -8  -2    6.76    4.65   1
  -6   8   2    7.30    3.84   1
   5  -8  -2   -2.06    2.53   1
   5  -8  -2    0.20    2.59   1
  -5   8   2   -2.93    3.32   1
  -5   8   2   -1.80    3.01   1
   4  -8  -2    0.32    4.10   1
   4  -8  -2   -1.85    4.15   1
  -4   8   2    3.83    4.09   1
  -4   8   2    1.79    5.34   1
   3  -8  -2    0.87    3.16   1
   3  -8  -2    2.99    3.19   1
  -3   8   2   -0.35    4.44   1
  -3   8   2    1.59    4.20   1
   2  -8  -2   -1.47    2.12   1
   2  -8  -2   -1.85    2.15   1
   2  -8  -2    1.65    2.33   1
   2  -8  -2   -0.46    2.54   1
  -2   8   2    0.77    5.05   1
  -2   8   2   -0.09    2.70   1
   1  -8  -2   28.93    3.21   1
   1  -8  -2   35.65    2.88   1
  -1   8   2   33.85    3.16   1
  -1   8   2   32.52    5.11   1
   0  -8  -2   92.01    4.67   1
   0   8   2   78.08    5.56   1
   0   8   2   92.14    4.71   1
  -1  -8  -2    1.24    3.20   1
   1   8   2   -0.33    4.28   1
   1   8   2    2.09    4.48   1
  -2  -8  -2   42.41    4.11   1
   2   8   2   34.49    5.04   1
   2   8   2   36.92    6.14   1
   3  -9  -2   -1.83    3.26   1
   3  -9  -2   -0.73    2.77   1
  -3   9   2   -2.49    4.59   1
  -3   9   2   -1.42    3.75   1
   2  -9  -2    8.40    3.55   1
  -2   9   2    4.95    6.26   1
  -2   9   2   12.24    4.77   1
   1  -9  -2    0.13    3.46   1
  -1   9   2    2.19    4.94   1
   0   9  -3   11.05    4.10   1
   0  -9   3   10.65    3.16   1
  -1   9  -3   27.17    4.40   1
   1  -9   3   29.21    4.10   1
  -2   9  -3    0.23    2.85   1
  -2   9  -3   -1.31    3.85   1
   2  -9   3    0.28    2.63   1
   2  -9   3   -1.48    2.79   1
   2  -9   3    1.12    2.74   1
   2  -9   3   -1.81    3.59   1
   2  -9   3   -0.42    2.74   1
  -3   9  -3    0.52    3.81   1
  -3   9  -3   -1.16    3.45   1
   3  -9   3   -2.32    3.12   1
   3  -9   3   -0.53    4.06   1
   3  -9   3   -0.19    2.52   1
   3  -9   3    1.66    4.26   1
   3  -9   3    0.25    2.93   1
  -4   9  -3   -0.65    4.88   1
  -4   9  -3    3.27    5.01   1
   4  -9   3    0.85    3.57   1
   4  -9   3    3.11    4.00   1
   4  -9   3    2.32    3.93   1
   4  -9   3    1.54    3.76   1
   2   8  -3    0.31    2.99   1
   2   8  -3    1.89    2.99   1
  -2  -8   3   -2.30    3.32   1
   1   8  -3   28.38    3.94   1
  -1  -8   3   29.64    3.92   1
   0   8  -3    6.73    3.51   1
   0  -8   3    0.80    2.77   1
   0  -8   3    4.19    2.96   1
   0  -8   3    2.00    2.71   1
   0  -8   3    1.00    2.62   1
  -1   8  -3    5.80    3.31   1
  -1   8  -3    9.79    2.44   1
   1  -8   3    3.82    2.30   1
   1  -8   3    3.42    2.21   1
   1  -8   3    3.94    2.41   1
   1  -8   3    7.38    2.50   1
   1  -8   3    3.91    2.24   1
  -2   8  -3  215.99   14.45   1
  -2   8  -3  210.98   10.13   1
   2  -8   3  205.47    8.73   1
   2  -8   3  194.96   13.42   1
   2  -8   3  196.62    8.73   1
   2  -8   3  209.53    8.78   1
   2  -8   3  202.90    9.20   1
  -3   8  -3    7.24    5.01   1
  -3   8  -3    7.22    4.79   1
   3  -8   3    4.06    3.47   1
   3  -8   3    2.05    2.90   1
   3  -8   3    4.22    2.83   1
   3  -8   3    9.20    3.28   1
   3  -8   3    2.11    2.71   1
  -4   8  -3   39.07    4.25   1
  -4   8  -3   41.83    4.21   1
   4  -8   3   43.71    3.91   1
   4  -8   3   42.06    3.73   1
   4  -8   3   32.42    3.48   1
   4  -8   3   45.07    3.82   1
  -5   8  -3  100.85    7.00   1
  -5   8  -3  103.48    7.42   1
   5  -8   3  123.38    6.19   1
   5  -8   3  115.98    6.91   1
   5  -8   3  119.44    5.82   1
   5  -8   3  113.79    6.89   1
  -6   8  -3   -2.07    5.75   1
   6  -8   3    2.57    4.30   1
   6  -8   3   -1.70    5.86   1
   6  -8   3   -1.08    5.83   1
   6  -8   3   -0.51    4.37   1
   4   7  -3   -1.27    4.91   1
   4   7  -3   -1.05    4.89   1
  -4  -7   3   -0.63    3.04   1
   3   7  -3   21.00    3.53   1
   3   7  -3   24.04    3.80   1
  -3  -7   3   17.59    3.24   1
   2   7  -3   10.93    3.42   1
  -2  -7   3   10.18    2.93   1
   1   7  -3    3.47    4.21   1
  -1  -7   3    2.70    2.35   1
  -1  -7   3    3.99    2.66   1
  -1  -7   3    1.40    2.51   1
  -1  -7   3    2.54    2.32   1
  -1  -7   3    2.85    2.41   1
   0   7  -3   32.92    3.34   1
   0   7  -3   35.89    2.50   1
   0  -7   3   27.99    2.56   1
   0  -7   3   32.23    2.77   1
   0  -7   3   31.19    2.63   1
   0  -7   3   37.30    2.91   1
   0  -7   3   32.42    2.72   1
  -1   7  -3   12.15    2.84   1
  -1   7  -3   15.13    2.24   1
   1  -7   3   16.67    2.35   1
   1  -7   3    9.92    2.03   1
   1  -7   3   10.67    2.06   1
   1  -7   3   12.65    2.69   1
   1  -7   3    9.42    2.58   1
  -2   7  -3    3.00    3.62   1
  -2   7  -3    7.98    2.58   1
   2  -7   3    4.36    2.17   1
   2  -7   3    2.25    2.10   1
   2  -7   3    2.67    2.19   1
   2  -7   3    6.25    1.99   1
   2  -7   3    4.89    2.23   1
  -3   7  -3    0.74    2.27   1
  -3   7  -3    0.22    2.39   1
   3  -7   3    1.31    2.06   1
   3  -7   3   -2.20    2.86   1
   3  -7   3    0.35    2.86   1
   3  -7   3   -1.05    2.07   1
   3  -7   3    0.69    2.16   1
  -4   7  -3    8.57    4.45   1
   4  -7   3    6.24    2.66   1
   4  -7   3    4.78    2.58   1
   4  -7   3    6.73    2.52   1
   4  -7   3    9.75    2.78   1
  -5   7  -3    3.32    4.32   1
   5  -7   3    7.77    4.52   1
   5  -7   3    3.39    4.23   1
   5  -7   3    5.61    3.39   1
   5  -7   3    6.94    3.48   1
  -6   7  -3   16.31    5.85   1
   6  -7   3   18.78    3.58   1
   6  -7   3   17.66    3.43   1
   6  -7   3   18.93    3.41   1
   6  -7   3   10.36    3.09   1
  -7   7  -3    3.30    5.80   1
   7  -7   3   -1.09    5.13   1
   7  -7   3   -2.24    5.38   1
   5   6  -3    2.43    4.81   1
   5   6  -3    0.40    3.29   1
  -5  -6   3    1.03    4.93   1
   4   6  -3    4.54    3.14   1
   4   6  -3    4.33    4.12   1
  -4  -6   3    3.65    2.99   1
   3   6  -3    3.66    2.84   1
   3   6  -3    4.84    2.94   1
  -3  -6   3    4.47    2.68   1
   2   6  -3  106.29    4.91   1
  -2  -6   3  108.35    5.54   1
  -2  -6   3  114.40    5.57   1
  -2  -6   3  109.55    4.93   1
  -2  -6   3  113.35    6.16   1
  -2  -6   3  114.30    6.13   1
   1   6  -3   33.15    3.02   1
   1   6  -3   34.68    2.50   1
  -1  -6   3   32.91    2.06   1
  -1  -6   3   40.54    2.54   1
  -1  -6   3   37.70    2.36   1
  -1  -6   3   40.95    2.95   1
  -1  -6   3   33.26    2.36   1
   0   6  -3    5.68    2.52   1
   0   6  -3    5.68    1.98   1
   0  -6   3    3.99    2.55   1
   0  -6   3    4.88    1.98   1
   0  -6   3    5.23    2.17   1
   0  -6   3    2.42    2.07   1
   0  -6   3    2.55    1.69   1
   0  -6   3    3.38    1.63   1
  -1   6  -3  148.60    5.52   1
  -1   6  -3  157.83    8.54   1
   1  -6   3  148.02    5.75   1
   1  -6   3  152.89    6.31   1
   1  -6   3  143.77    6.37   1
   1  -6   3  158.67    7.75   1
   1  -6   3  141.03    4.87   1
   1  -6   3  146.67    5.29   1
  -2   6  -3   70.17    3.48   1
  -2   6  -3   73.30    3.67   1
   2  -6   3   77.65    3.39   1
   2  -6   3   70.66    3.26   1
   2  -6   3   64.18    4.04   1
   2  -6   3   67.59    3.19   1
   2  -6   3   65.21    3.11   1
   2  -6   3   63.54    4.68   1
   2  -6   3   68.07    3.08   1
   2  -6   3   70.20    3.13   1
  -3   6  -3   41.70    3.37   1
  -3   6  -3   29.34    2.26   1
   3  -6   3   33.90    2.87   1
   3  -6   3   33.39    2.62   1
   3  -6   3   33.21    2.69   1
   3  -6   3   39.94    2.82   1
   3  -6   3   35.87    2.69   1
   3  -6   3   40.45    2.53   1
  -4   6  -3   27.13    1.93   1
  -4   6  -3   32.17    4.23   1
   4  -6   3   26.78    2.68   1
   4  -6   3   32.49    2.88   1
   4  -6   3   24.56    2.58   1
   4  -6   3   28.13    2.77   1
  -5   6  -3   10.83    3.79   1
   5  -6   3    8.72    2.74   1
   5  -6   3   11.22    2.71   1
   5  -6   3   12.33    2.96   1
   5  -6   3    9.18    2.79   1
  -6   6  -3   11.24    4.26   1
   6  -6   3   10.03    2.94   1
   6  -6   3    9.32    3.02   1
   6  -6   3    7.61    2.91   1
   6  -6   3    6.10    2.94   1
  -7   6  -3   17.58    8.18   1
   7  -6   3   12.37    3.21   1
   7  -6   3   10.95    3.29   1
   6   5  -3    0.15    2.90   1
   6   5  -3   -2.10    2.57   1
  -6  -5   3    0.21    3.12   1
   5   5  -3    7.41    4.33   1
   5   5  -3    5.12    4.17   1
  -5  -5   3    1.43    3.15   1
   4   5  -3    8.37    2.73   1
   4   5  -3   10.39    2.79   1
  -4  -5   3    4.13    2.53   1
   3   5  -3   65.82    3.82   1
   3   5  -3   72.23    3.91   1
  -3  -5   3   76.24    3.95   1
  -3  -5   3   68.99    3.26   1
  -3  -5   3   75.13    3.48   1
   2   5  -3   35.76    3.17   1
   2   5  -3   31.65    1.53   1
  -2  -5   3   37.95    2.83   1
  -2  -5   3   32.36    1.98   1
  -2  -5   3   32.08    1.96   1
   1   5  -3    0.77    1.42   1
   1   5  -3    0.87    1.46   1
   1   5  -3   -0.93    2.51   1
   1   5  -3    1.24    0.83   1
  -1  -5   3    0.31    1.12   1
  -1  -5   3    1.48    1.58   1
  -1  -5   3    0.06    1.55   1
  -1  -5   3    0.99    1.55   1
  -1  -5   3    0.31    1.15   1
   0   5  -3    3.04    1.33   1
   0   5  -3    1.49    1.74   1
   0   5  -3    1.05    1.08   1
   0   5  -3    2.77    1.34   1
   0  -5   3    2.13    1.40   1
   0  -5   3    1.72    1.18   1
   0  -5   3    1.56    1.18   1
   0  -5   3    0.99    1.21   1
   0  -5   3    0.60    1.37   1
   0  -5   3    0.92    1.21   1
  -1   5  -3   24.32    2.51   1
  -1   5  -3   27.67    2.32   1
   1  -5   3   23.43    1.76   1
   1  -5   3   27.02    1.69   1
   1  -5   3   26.30    1.88   1
   1  -5   3   27.57    1.69   1
   1  -5   3   23.39    1.78   1
   1  -5   3   21.68    1.76   1
   1  -5   3   24.78    2.06   1
  -2   5  -3   31.18    2.02   1
  -2   5  -3   33.46    2.54   1
   2  -5   3   33.39    2.13   1
   2  -5   3   33.03    1.97   1
   2  -5   3   32.69    2.70   1
   2  -5   3   38.74    1.56   1
   2  -5   3   30.28    2.09   1
   2  -5   3   30.92    2.11   1
   2  -5   3   35.28    1.23   1
  -3   5  -3   21.86    2.61   1
  -3   5  -3   23.47    1.66   1
   3  -5   3   24.35    1.63   1
   3  -5   3   23.28    2.53   1
   3  -5   3   22.09    2.41   1
   3  -5   3   24.51    2.53   1
   3  -5   3   23.56    2.46   1
  -4   5  -3   29.36    1.72   1
  -4   5  -3   30.03    3.15   1
   4  -5   3   27.12    2.44   1
   4  -5   3   26.75    1.84   1
   4  -5   3   26.71    2.41   1
   4  -5   3   27.17    2.39   1
   4  -5   3   27.21    2.41   1
  -5   5  -3   44.53    3.91   1
  -5   5  -3   49.09    2.07   1
   5  -5   3   42.54    3.07   1
   5  -5   3   40.04    3.07   1
   5  -5   3   40.76    3.69   1
   5  -5   3   47.66    3.13   1
   5  -5   3   43.25    2.98   1
  -6   5  -3   26.66    3.93   1
   6  -5   3   23.81    3.48   1
   6  -5   3   23.39    3.02   1
   6  -5   3   22.30    3.48   1
   6  -5   3   27.03    3.02   1
  -7   5  -3   28.40    5.54   1
   7  -5   3   29.51    4.15   1
   7  -5   3   26.97    4.06   1
  -8   5  -3   30.75    5.05   1
   8  -5   3   47.67    4.94   1
   8  -5   3   39.25    4.99   1
   6   4  -3   25.47    4.09   1
   6   4  -3   27.27    4.00   1
  -6  -4   3   18.45    4.22   1
   5   4  -3   37.01    3.54   1
   5   4  -3   43.50    3.43   1
  -5  -4   3   40.77    4.15   1
   4   4  -3   18.62    2.49   1
   4   4  -3   14.38    2.36   1
  -4  -4   3   10.99    1.29   1
  -4  -4   3   12.00    1.29   1
  -4  -4   3    9.01    2.36   1
   3   4  -3   88.30    4.04   1
   3   4  -3   90.26    4.04   1
  -3  -4   3   90.76    3.27   1
  -3  -4   3   91.14    3.96   1
  -3  -4   3   84.38    3.44   1
   2   4  -3  122.44    4.42   1
  -2  -4   3  132.16    3.45   1
  -2  -4   3  132.24    3.13   1
  -2  -4   3  139.11    5.72   1
   1   4  -3   18.57    1.46   1
   1   4  -3   20.50    1.12   1
   1   4  -3   21.11    1.92   1
   1   4  -3   21.46    1.39   1
  -1  -4   3   22.04    1.46   1
  -1  -4   3   20.43    1.87   1
  -1  -4   3   20.20    1.87   1
  -1  -4   3   22.09    1.44   1
  -1  -4   3   23.24    2.04   1
  -1  -4   3   19.25    1.72   1
  -1  -4   3   20.47    1.89   1
   0   4  -3  293.91    7.31   1
   0   4  -3  298.66    8.20   1
   0   4  -3  286.03    8.39   1
   0   4  -3  286.47   11.12   1
   0   4  -3  289.52   16.33   1
   0  -4   3  309.90    8.75   1
   0  -4   3  300.53   14.80   1
   0  -4   3  295.01    6.72   1
   0  -4   3  297.61   10.28   1
   0  -4   3  299.58    8.95   1
   0  -4   3  298.97    6.91   1
   0  -4   3  294.15    9.81   1
  -1   4  -3   97.59    3.74   1
  -1   4  -3   94.21    3.85   1
  -1   4  -3  104.40    4.11   1
  -1   4  -3  102.33    3.55   1
  -1   4  -3   94.66    3.29   1
   1  -4   3  110.27    3.12   1
   1  -4   3  102.97    5.42   1
   1  -4   3   92.58    4.24   1
   1  -4   3  101.04    3.40   1
   1  -4   3  106.88    3.42   1
   1  -4   3  111.77    3.73   1
   1  -4   3  107.35    3.19   1
  -2   4  -3  803.24   35.66   1
  -2   4  -3  786.42   34.79   1
  -2   4  -3  767.99   26.45   1
  -2   4  -3  780.43   36.31   1
  -2   4  -3  787.84   22.81   1
   2  -4   3  740.55   24.00   1
   2  -4   3  774.65   21.53   1
   2  -4   3  772.49   22.51   1
   2  -4   3  792.97   18.64   1
   2  -4   3  806.99   22.77   1
   2  -4   3  740.20   13.18   1
  -3   4  -3   46.62    2.84   1
  -3   4  -3   49.32    3.99   1
  -3   4  -3   53.80    3.12   1
   3  -4   3   50.61    2.46   1
   3  -4   3   49.28    1.90   1
   3  -4   3   49.57    2.39   1
   3  -4   3   51.27    2.53   1
   3  -4   3   51.78    2.48   1
  -4   4  -3   35.61    3.05   1
  -4   4  -3   45.18    1.62   1
  -4   4  -3   40.95    1.87   1
   4  -4   3   39.78    2.49   1
   4  -4   3   43.03    2.49   1
   4  -4   3   39.18    2.22   1
   4  -4   3   36.34    2.36   1
   4  -4   3   45.57    2.60   1
  -5   4  -3   60.74    3.27   1
  -5   4  -3   51.16    4.39   1
   5  -4   3   58.84    3.42   1
   5  -4   3   59.88    3.15   1
   5  -4   3   48.35    2.91   1
   5  -4   3   55.37    3.26   1
   5  -4   3   56.93    3.84   1
  -6   4  -3    2.27    1.91   1
  -6   4  -3    2.77    4.54   1
   6  -4   3    2.50    3.03   1
   6  -4   3    6.24    3.24   1
  -7   4  -3    2.38    2.41   1
  -7   4  -3    6.11    5.34   1
   7  -4   3    7.25    2.95   1
   7  -4   3    5.33    2.84   1
  -8   4  -3   16.13    4.43   1
   8  -4   3   20.69    3.37   1
   8  -4   3   21.48    3.39   1
   7   3  -3   36.74    3.77   1
   7   3  -3   35.32    3.57   1
  -7  -3   3   24.89    4.72   1
   6   3  -3    3.24    3.59   1
   6   3  -3    4.36    2.66   1
  -6  -3   3    2.50    4.36   1
   5   3  -3    0.81    1.54   1
   5   3  -3    0.22    2.02   1
  -5  -3   3    0.42    1.96   1
   4   3  -3   10.25    2.05   1
   4   3  -3   10.65    2.82   1
   4   3  -3   11.72    2.19   1
  -4  -3   3   12.24    3.04   1
  -4  -3   3    8.45    1.31   1
  -4  -3   3    6.49    1.23   1
   3   3  -3   21.66    1.94   1
   3   3  -3   21.83    2.39   1
   3   3  -3   22.33    1.96   1
  -3  -3   3   19.38    2.46   1
  -3  -3   3   17.39    1.80   1
  -3  -3   3   18.11    1.28   1
  -3  -3   3   20.02    1.35   1
   2   3  -3  106.02    6.11   1
   2   3  -3  105.11    7.33   1
   2   3  -3   97.69    3.20   1
  -2  -3   3  103.24    3.01   1
  -2  -3   3  107.64    4.93   1
  -2  -3   3  109.75    6.11   1
  -2  -3   3  102.12    5.52   1
  -2  -3   3  104.10    3.10   1
  -2  -3   3  103.69    4.43   1
  -2  -3   3  108.50    6.26   1
   1   3  -3    3.83    0.51   1
   1   3  -3    3.83    2.15   1
   1   3  -3    3.44    1.11   1
   1   3  -3    3.32    1.62   1
   1   3  -3    4.22    1.26   1
   1   3  -3    3.35    2.09   1
  -1  -3   3    3.02    1.68   1
  -1  -3   3    3.71    1.05   1
  -1  -3   3    2.90    1.56   1
  -1  -3   3    2.12    1.37   1
  -1  -3   3    3.56    1.22   1
  -1  -3   3    3.86    1.05   1
  -1  -3   3    3.62    1.20   1
   0   3  -3    0.33    0.86   1
   0   3  -3   -0.11    0.67   1
   0   3  -3    0.22    0.80   1
   0   3  -3    0.05    0.58   1
   0   3  -3    0.69    0.67   1
   0   3  -3    0.78    0.83   1
   0  -3   3    1.22    0.97   1
   0  -3   3    0.97    0.97   1
   0  -3   3   -0.53    0.94   1
   0  -3   3    1.00    0.89   1
   0  -3   3    0.67    0.64   1
   0  -3   3    0.53    0.69   1
  -1   3  -3    0.32    1.09   1
  -1   3  -3   -0.13    0.77   1
  -1   3  -3    1.27    0.73   1
  -1   3  -3    1.55    1.17   1
  -1   3  -3    0.37    0.82   1
   1  -3   3   -0.27    0.64   1
   1  -3   3    0.38    0.46   1
   1  -3   3    1.57    0.41   1
   1  -3   3    0.41    0.76   1
   1  -3   3    0.56    0.70   1
   1  -3   3    0.19    0.69   1
   1  -3   3    0.30    0.67   1
  -2   3  -3  689.27   21.08   1
  -2   3  -3  702.75   17.87   1
  -2   3  -3  686.72   17.24   1
  -2   3  -3  689.77   16.22   1
  -2   3  -3  713.79   20.39   1
  -2   3  -3  722.87   30.11   1
  -2   3  -3  714.97   20.61   1
   2  -3   3  692.80   15.63   1
   2  -3   3  667.84   23.92   1
   2  -3   3  687.46   16.44   1
   2  -3   3  652.58   18.62   1
   2  -3   3  687.39   16.37   1
   2  -3   3  704.77   18.50   1
  -3   3  -3  115.24    7.73   1
  -3   3  -3  118.94    3.77   1
  -3   3  -3  120.05    4.07   1
  -3   3  -3  117.76    4.76   1
  -3   3  -3  112.17    3.17   1
  -3   3  -3  120.74    5.25   1
  -3   3  -3  109.33    4.39   1
  -3   3  -3  114.00    5.16   1
  -3   3  -3  104.14    3.85   1
   3  -3   3  107.12    3.34   1
   3  -3   3  114.14    3.21   1
   3  -3   3  117.32    3.19   1
   3  -3   3  113.93    3.53   1
   3  -3   3  112.60    3.49   1
  -4   3  -3  446.38   14.95   1
  -4   3  -3  443.45   18.40   1
  -4   3  -3  448.45   12.70   1
  -4   3  -3  453.42   24.37   1
  -4   3  -3  450.08   12.56   1
   4  -3   3  418.62   27.92   1
   4  -3   3  426.24   13.02   1
   4  -3   3  407.89   11.48   1
   4  -3   3  421.60   10.59   1
   4  -3   3  422.58   11.72   1
  -5   3  -3   -1.49    2.39   1
  -5   3  -3    1.31    1.65   1
  -5   3  -3   -0.78    1.15   1
  -5   3  -3    0.62    1.31   1
   5  -3   3   -0.50    2.42   1
   5  -3   3    1.36    2.39   1
   5  -3   3    1.03    1.77   1
   5  -3   3    1.15    1.80   1
  -6   3  -3   83.35    4.28   1
  -6   3  -3   91.31    5.41   1
  -6   3  -3   91.49    4.99   1
   6  -3   3   98.89    3.85   1
   6  -3   3   92.36    3.81   1
  -7   3  -3   49.98    3.77   1
  -7   3  -3   61.66    4.75   1
  -7   3  -3   57.48    3.31   1
   7  -3   3   61.79    3.68   1
   7  -3   3   60.33    3.59   1
  -8   3  -3   -2.19    3.63   1
   8  -3   3    1.76    2.43   1
   8  -3   3    0.96    2.45   1
   7   2  -3   10.29    2.86   1
  -7  -2   3    8.39    4.67   1
   6   2  -3   82.21    4.84   1
   6   2  -3   83.26    5.27   1
   6   2  -3   70.92    4.69   1
  -6  -2   3   70.42    4.34   1
   5   2  -3    6.47    3.87   1
   5   2  -3    5.01    1.82   1
   5   2  -3    3.22    1.79   1
  -5  -2   3    3.13    1.01   1
  -5  -2   3    1.73    3.10   1
   4   2  -3  314.69   19.67   1
   4   2  -3  305.19    8.83   1
   4   2  -3  311.34   19.26   1
  -4  -2   3  333.84   11.13   1
  -4  -2   3  311.42   11.80   1
  -4  -2   3  319.67   10.70   1
  -4  -2   3  312.39    9.56   1
  -4  -2   3  292.07    9.33   1
  -4  -2   3  321.31   10.70   1
   3   2  -3   20.05    1.60   1
   3   2  -3   17.97    2.04   1
   3   2  -3   18.70    1.79   1
  -3  -2   3   20.62    1.96   1
  -3  -2   3   20.31    0.92   1
  -3  -2   3   20.14    0.92   1
  -3  -2   3   17.67    1.82   1
   2   2  -3   77.03    2.37   1
   2   2  -3   73.83    2.80   1
   2   2  -3   74.38    3.21   1
   2   2  -3   73.60    2.87   1
  -2  -2   3   79.30    7.71   1
  -2  -2   3   75.70    2.91   1
  -2  -2   3   73.26    5.71   1
  -2  -2   3   82.48   11.18   1
  -2  -2   3   86.68    3.23   1
   1   2  -3    1.55    0.71   1
   1   2  -3    1.52    0.90   1
   1   2  -3    2.60    0.31   1
   1   2  -3    1.64    0.96   1
   1   2  -3    2.02    0.25   1
  -1  -2   3    1.70    0.93   1
  -1  -2   3    0.68    0.93   1
  -1  -2   3    0.99    0.87   1
  -1  -2   3    2.57    0.99   1
  -1  -2   3    1.33    0.62   1
  -1  -2   3    1.42    0.62   1
  -1  -2   3    0.96    1.12   1
   0   2  -3  608.81   15.21   1
   0   2  -3  633.75   17.09   1
   0   2  -3  620.24   21.09   1
   0   2  -3  618.05   14.08   1
   0   2  -3  612.38   18.62   1
   0  -2   3  625.35   29.86   1
   0  -2   3  635.88   17.15   1
   0  -2   3  622.51   27.95   1
   0  -2   3  596.99   30.45   1
   0  -2   3  612.32   24.43   1
   0  -2   3  639.97   17.62   1
   0   2  -3  668.45   39.67   1
   0   2  -3  587.18   36.02   1
   0  -2   3  696.87   39.70   1
   0  -2   3  580.17   36.60   1
  -1   2  -3 2173.48  119.80   1
  -1   2  -3 2119.54   40.60   1
  -1   2  -3 2078.18   38.69   1
  -1   2  -3 1979.03   46.60   1
   1  -2   3 2166.48   61.29   1
   1  -2   3 2157.31   61.61   1
   1  -2   3 2083.47   43.09   1
   1  -2   3 1921.99   97.55   1
   1  -2   3 2133.23   43.26   1
   1  -2   3 1965.95   73.99   1
  -1   2  -3 2327.53  125.95   1
  -1   2  -3 2211.94  144.29   1
   1  -2   3 2117.58  137.22   1
   1  -2   3 2377.02  143.31   1
  -2   2  -3  342.48   14.65   1
  -2   2  -3  342.14   12.82   1
  -2   2  -3  347.63   11.19   1
  -2   2  -3  333.93    9.40   1
  -2   2  -3  345.61   15.02   1
  -2   2  -3  336.72   11.03   1
  -2   2  -3  340.35    9.24   1
  -2   2  -3  327.65   12.68   1
  -2   2  -3  315.85   13.76   1
   2  -2   3  330.17    7.72   1
   2  -2   3  324.16    6.00   1
   2  -2   3  334.55    8.46   1
   2  -2   3  327.69    8.49   1
   2  -2   3  333.88    8.44   1
  -3   2  -3   24.58    1.43   1
  -3   2  -3   24.15    1.78   1
  -3   2  -3   28.12    1.64   1
  -3   2  -3   27.07    1.57   1
  -3   2  -3   26.91    1.41   1
  -3   2  -3   24.01    1.85   1
  -3   2  -3   26.44    1.76   1
  -3   2  -3   27.10    2.35   1
   3  -2   3   26.31    1.62   1
   3  -2   3   27.98    1.60   1
   3  -2   3   25.63    1.57   1
   3  -2   3   26.04    1.62   1
   3  -2   3   26.93    1.50   1
  -4   2  -3  302.25   11.01   1
  -4   2  -3  287.68    9.29   1
  -4   2  -3  307.41    8.01   1
  -4   2  -3  299.59    9.76   1
  -4   2  -3  304.89   12.99   1
  -4   2  -3  299.49    9.63   1
  -4   2  -3  293.00   10.60   1
  -4   2  -3  311.90   11.49   1
   4  -2   3  294.30    7.35   1
   4  -2   3  288.64    7.39   1
   4  -2   3  287.06    7.79   1
   4  -2   3  300.30    7.58   1
   4  -2   3  296.89   10.22   1
  -5   2  -3   18.38    2.29   1
  -5   2  -3   23.60    2.25   1
  -5   2  -3   24.66    2.73   1
  -5   2  -3   24.85    2.08   1
  -5   2  -3   26.45    2.78   1
   5  -2   3   27.56    2.08   1
   5  -2   3   28.70    2.08   1
  -6   2  -3    3.87    2.49   1
  -6   2  -3    6.34    2.92   1
   6  -2   3    9.69    2.20   1
   6  -2   3    8.01    2.05   1
  -7   2  -3    7.76    3.03   1
  -7   2  -3    8.09    2.42   1
  -7   2  -3    7.11    3.24   1
   7  -2   3   11.43    3.16   1
   7  -2   3   12.89    3.16   1
  -8   2  -3    4.89    3.70   1
  -8   2  -3    5.49    5.46   1
  -8  -1   3   -1.43    3.46   1
  -8  -1   3    0.75    3.76   1
   7   1  -3   -1.07    1.54   1
   7   1  -3   -0.88    2.74   1
  -7  -1   3   -0.37    2.31   1
  -7  -1   3   -1.05    2.37   1
   6   1  -3    2.50    4.14   1
   6   1  -3    1.35    1.70   1
  -6  -1   3    1.86    2.70   1
  -6  -1   3    1.03    1.41   1
   5   1  -3    3.59    2.33   1
   5   1  -3    6.94    1.98   1
  -5  -1   3    2.60    1.64   1
  -5  -1   3    5.20    3.02   1
  -5  -1   3    2.24    1.11   1
  -5  -1   3    4.90    1.73   1
   4   1  -3   17.67    2.23   1
   4   1  -3   18.26    1.74   1
   4   1  -3   18.56    1.59   1
  -4  -1   3   15.91    1.54   1
  -4  -1   3   17.32    1.67   1
  -4  -1   3   19.32    1.69   1
  -4  -1   3   17.95    1.42   1
  -4  -1   3   14.74    1.96   1
  -4  -1   3   17.75    1.67   1
   3   1  -3   71.89    2.27   1
   3   1  -3   72.17    3.45   1
   3   1  -3   79.02    3.37   1
   3   1  -3   70.15    2.59   1
  -3  -1   3   77.52    2.93   1
  -3  -1   3   69.34    3.84   1
  -3  -1   3   71.02    3.48   1
  -3  -1   3   70.81    3.93   1
  -3  -1   3   75.33    3.17   1
   2   1  -3   18.63    1.42   1
   2   1  -3   21.38    1.25   1
   2   1  -3   19.02    0.84   1
   2   1  -3   18.61    1.01   1
   2   1  -3   17.86    1.90   1
   2   1  -3   17.17    2.02   1
  -2  -1   3   17.63    1.08   1
  -2  -1   3   19.70    1.49   1
  -2  -1   3   18.05    1.68   1
  -2  -1   3   19.75    0.79   1
  -2  -1   3   16.82    1.42   1
  -2  -1   3   21.97    1.52   1
   1   1  -3  120.20    4.22   1
   1   1  -3  123.10    4.90   1
   1   1  -3  118.68    6.29   1
   1   1  -3  115.45    3.36   1
   1   1  -3  122.97    5.61   1
   1   1  -3  112.83    4.44   1
  -1  -1   3  119.37    7.34   1
  -1  -1   3  118.73    6.10   1
  -1  -1   3  117.49    5.76   1
  -1  -1   3  121.85    3.36   1
  -1  -1   3  117.69    4.59   1
  -1  -1   3  120.90    3.71   1
   1   1  -3  126.45    8.67   1
   1   1  -3  104.45    7.98   1
  -1  -1   3  135.54   10.70   1
  -1  -1   3  107.51    8.25   1
   0   1  -3 1435.29   26.50   1
   0   1  -3 1396.49   43.65   1
   0   1  -3 1435.91   26.22   1
   0   1  -3 1458.95   38.33   1
   0   1  -3 1433.21   33.82   1
   0   1  -3 1486.19   35.72   1
   0  -1   3 1374.46   55.67   1
   0  -1   3 1403.23   44.28   1
   0  -1   3 1436.62   44.58   1
   0  -1   3 1403.94   54.18   1
   0  -1   3 1401.71   39.70   1
   0  -1   3 1402.13   52.01   1
   0   1  -3 1462.78  100.67   1
   0   1  -3 1536.41   84.27   1
   0  -1   3 1385.23   91.09   1
   0  -1   3 1472.26   85.43   1
  -1   1  -3  720.74   30.18   1
  -1   1  -3  731.28   34.34   1
  -1   1  -3  729.99   25.86   1
  -1   1  -3  751.53   27.53   1
  -1   1  -3  750.41   27.29   1
   1  -1   3  686.55   14.07   1
   1  -1   3  702.32   17.78   1
   1  -1   3  707.80   29.07   1
   1  -1   3  719.66   18.28   1
   1  -1   3  719.08   18.82   1
   1  -1   3  714.62   16.62   1
  -1   1  -3  787.64   47.92   1
  -1   1  -3  805.83   47.29   1
   1  -1   3  779.03   43.68   1
   1  -1   3  685.86   52.73   1
  -2   1  -3   26.17    1.31   1
  -2   1  -3   27.34    1.61   1
  -2   1  -3   27.36    1.61   1
  -2   1  -3   29.47    1.22   1
  -2   1  -3   30.26    1.70   1
  -2   1  -3   26.33    1.24   1
  -2   1  -3   29.32    1.22   1
   2  -1   3   26.47    1.52   1
   2  -1   3   28.61    1.22   1
   2  -1   3   28.02    1.74   1
   2  -1   3   28.55    1.17   1
   2  -1   3   27.49    1.20   1
   2  -1   3   28.98    1.17   1
  -3   1  -3  724.73   16.71   1
  -3   1  -3  719.61   32.82   1
  -3   1  -3  738.39   16.09   1
  -3   1  -3  724.52   20.19   1
  -3   1  -3  744.11   39.23   1
  -3   1  -3  755.55   26.61   1
  -3   1  -3  745.48   21.29   1
  -3   1  -3  728.17   29.07   1
  -3   1  -3  750.60   24.03   1
   3  -1   3  701.14   20.76   1
   3  -1   3  698.27   19.56   1
   3  -1   3  707.66   19.75   1
   3  -1   3  698.68   19.84   1
   3  -1   3  709.83   22.03   1
   3  -1   3  697.35   18.67   1
  -4   1  -3   29.08    1.94   1
  -4   1  -3   27.20    1.69   1
  -4   1  -3   27.22    1.89   1
  -4   1  -3   25.35    2.19   1
  -4   1  -3   28.84    2.10   1
  -4   1  -3   29.02    1.89   1
  -4   1  -3   27.70    1.89   1
  -4   1  -3   29.30    1.69   1
   4  -1   3   29.30    1.69   1
   4  -1   3   26.53    1.62   1
   4  -1   3   30.26    2.17   1
  -5   1  -3   24.83    4.30   1
  -5   1  -3   27.32    2.30   1
  -5   1  -3   30.22    2.35   1
   5  -1   3   27.42    2.37   1
   5  -1   3   28.74    2.23   1
   5  -1   3   27.72    2.23   1
  -6   1  -3   80.81    4.24   1
  -6   1  -3   74.30    3.83   1
  -6   1  -3   77.74    4.01   1
   6  -1   3   81.83    3.41   1
   6  -1   3   77.42    3.49   1
   6  -1   3   80.74    3.92   1
  -7   1  -3    0.42    2.63   1
  -7   1  -3    0.98    2.57   1
  -7   1  -3   -1.14    3.22   1
   7  -1   3    1.53    2.64   1
  -8   1  -3    3.20    5.52   1
  -8   1  -3   -0.36    4.80   1
   8   0  -3   37.95    4.45   1
  -8   0   3   26.61    4.07   1
  -8   0   3   23.56    3.40   1
   7   0  -3   23.77    2.49   1
   7   0  -3   21.07    4.28   1
  -7   0   3   18.54    3.33   1
  -7   0   3   16.20    3.58   1
  -7   0   3   12.54    2.66   1
   6   0  -3   74.13    3.71   1
   6   0  -3   65.20    3.93   1
  -6   0   3   63.17    3.80   1
  -6   0   3   60.92    3.86   1
   5   0  -3    9.24    2.24   1
   5   0  -3   11.61    1.80   1
  -5   0   3    7.49    1.88   1
  -5   0   3    8.88    2.10   1
  -5   0   3    7.19    1.56   1
  -5   0   3    6.21    1.89   1
   4   0  -3  188.40    8.47   1
   4   0  -3  189.61    6.86   1
  -4   0   3  186.64    7.51   1
  -4   0   3  190.88    8.90   1
  -4   0   3  195.12    7.06   1
  -4   0   3  191.67    6.91   1
  -4   0   3  188.98   11.14   1
  -4   0   3  204.61    8.19   1
   3   0  -3   11.20    1.16   1
   3   0  -3   16.75    1.93   1
   3   0  -3   13.14    1.14   1
   3   0  -3   11.46    2.05   1
  -3   0   3   10.61    1.34   1
  -3   0   3   11.46    1.56   1
  -3   0   3    8.84    1.48   1
  -3   0   3   12.99    1.39   1
  -3   0   3   13.02    1.11   1
  -3   0   3    9.47    1.88   1
  -3   0   3   12.34    1.19   1
  -3   0   3   11.18    1.31   1
   2   0  -3    4.78    0.78   1
   2   0  -3    3.42    1.41   1
   2   0  -3    4.24    1.10   1
   2   0  -3    5.34    0.60   1
  -2   0   3    3.04    1.07   1
  -2   0   3    3.71    1.00   1
  -2   0   3    4.50    1.22   1
  -2   0   3    4.02    1.23   1
  -2   0   3    5.66    0.98   1
  -2   0   3    4.87    0.60   1
  -2   0   3    4.84    0.56   1
   1   0  -3  201.13    6.62   1
   1   0  -3  208.15    6.32   1
   1   0  -3  198.88    5.92   1
   1   0  -3  204.63    6.59   1
  -1   0   3  211.46    6.00   1
  -1   0   3  215.47    8.64   1
  -1   0   3  204.48    5.85   1
  -1   0   3  198.99    7.15   1
   1   0  -3  186.56   14.77   1
  -1   0   3  197.76   12.92   1
  -1   0   3  214.13   12.59   1
   0   0  -3  336.61   11.84   1
   0   0  -3  336.71   12.73   1
   0   0  -3  337.73    7.86   1
   0   0  -3  325.81   19.27   1
   0   0  -3  338.63    8.17   1
   0   0   3  325.38   15.44   1
   0   0   3  333.02    9.03   1
   0   0   3  343.91   10.39   1
   0   0   3  334.22    9.96   1
   0   0   3  342.99   23.77   1
   0   0  -3  344.29   24.35   1
   0   0  -3  355.08   22.33   1
   0   0   3  352.98   23.93   1
   0   0   3  350.83   22.18   1
  -1   0  -3  261.16    9.54   1
  -1   0  -3  269.58    7.46   1
  -1   0  -3  273.39    7.67   1
  -1   0  -3  266.33    7.43   1
  -1   0  -3  282.67    7.80   1
  -1   0  -3  273.70    7.41   1
  -1   0  -3  253.35    9.02   1
   1   0   3  247.56   11.74   1
   1   0   3  253.02    8.02   1
   1   0   3  264.23    8.38   1
   1   0   3  255.87    8.66   1
   1   0   3  267.91    9.41   1
   1   0   3  258.72    7.33   1
   1   0   3  260.83    7.72   1
   1   0   3  269.29    7.16   1
  -1   0  -3  271.72   20.39   1
  -1   0  -3  282.93   17.17   1
   1   0   3  272.70   17.49   1
   1   0   3  264.18   21.03   1
  -2   0  -3    8.01    0.68   1
  -2   0  -3    7.98    0.71   1
  -2   0  -3    5.30    1.15   1
  -2   0  -3    6.86    1.44   1
  -2   0  -3    8.18    0.77   1
  -2   0  -3    7.18    1.06   1
  -2   0  -3    6.83    0.74   1
  -2   0  -3    8.51    0.79   1
   2   0   3    8.25    0.82   1
   2   0   3    8.25    0.74   1
   2   0   3    7.92    0.73   1
   2   0   3    7.72    0.86   1
   2   0   3    7.37    1.21   1
   2   0   3    8.28    1.21   1
   2   0   3    7.31    1.18   1
   2   0   3    8.58    0.79   1
  -3   0  -3   33.71    1.46   1
  -3   0  -3   34.56    1.69   1
  -3   0  -3   32.00    2.35   1
  -3   0  -3   33.23    2.33   1
  -3   0  -3   37.00    1.48   1
  -3   0  -3   31.25    1.87   1
  -3   0  -3   34.70    1.46   1
  -3   0  -3   35.61    2.03   1
  -3   0  -3   31.96    1.78   1
   3   0   3   30.77    2.19   1
   3   0   3   34.88    1.37   1
   3   0   3   34.56    1.35   1
   3   0   3   31.87    2.01   1
  -4   0  -3   28.40    1.62   1
  -4   0  -3   23.53    2.25   1
  -4   0  -3   26.29    1.85   1
  -4   0  -3   24.63    2.06   1
  -4   0  -3   25.78    1.64   1
  -4   0  -3   24.06    1.48   1
  -4   0  -3   26.62    1.69   1
   4   0   3   27.48    1.52   1
   4   0   3   26.29    2.46   1
   4   0   3   29.40    1.52   1
  -5   0  -3    3.81    1.48   1
  -5   0  -3    0.64    1.55   1
  -5   0  -3    3.88    1.49   1
  -5   0  -3    0.84    1.87   1
  -5   0  -3    2.06    1.45   1
  -5   0  -3    0.68    1.32   1
   5   0   3    2.39    1.29   1
   5   0   3    4.01    1.39   1
   5   0   3    0.29    2.58   1
  -6   0  -3   24.13    2.79   1
  -6   0  -3   29.93    3.56   1
  -6   0  -3   27.57    3.22   1
   6   0   3   30.68    3.31   1
  -7   0  -3   45.70    3.81   1
  -7   0  -3   33.00    4.01   1
  -7   0  -3   35.90    3.55   1
   7   0   3   49.34    4.28   1
  -8   0  -3    7.17    4.90   1
   8   0   3   13.71    3.50   1
   8  -1  -3    8.23    4.31   1
  -8   1   3    1.10    3.66   1
  -8   1   3   -1.85    4.02   1
   7  -1  -3   11.00    3.61   1
  -7   1   3   12.84    3.66   1
  -7   1   3    6.53    1.99   1
  -7   1   3    9.19    2.90   1
   6  -1  -3   54.59    3.51   1
  -6   1   3   48.59    3.07   1
  -6   1   3   47.40    3.46   1
  -6   1   3   41.99    3.02   1
   5  -1  -3   -0.51    1.92   1
   5  -1  -3    1.98    1.92   1
  -5   1   3    4.10    2.14   1
  -5   1   3    3.01    1.76   1
  -5   1   3    2.66    1.96   1
  -5   1   3    2.02    1.89   1
   4  -1  -3  392.58   19.36   1
   4  -1  -3  385.87    8.70   1
   4  -1  -3  387.67   29.64   1
  -4   1   3  407.15   13.85   1
  -4   1   3  413.78   14.79   1
  -4   1   3  424.28   14.31   1
  -4   1   3  420.07   22.34   1
  -4   1   3  401.37   15.42   1
  -4   1   3  422.12   20.81   1
  -4   1   3  407.58   25.38   1
  -4   1   3  422.97   15.25   1
   3  -1  -3  222.01    9.44   1
   3  -1  -3  236.76    6.46   1
   3  -1  -3  226.78    7.61   1
  -3   1   3  237.07    7.77   1
  -3   1   3  236.44   11.70   1
  -3   1   3  233.94    6.78   1
  -3   1   3  227.69    7.99   1
  -3   1   3  236.37    8.91   1
  -3   1   3  228.62    8.39   1
   2  -1  -3   79.39    3.51   1
   2  -1  -3   83.60    3.75   1
   2  -1  -3   77.91    4.09   1
  -2   1   3   86.02    2.89   1
  -2   1   3   82.31    3.87   1
  -2   1   3   83.02    3.04   1
  -2   1   3   82.59    3.17   1
  -2   1   3   82.93    3.15   1
  -2   1   3   82.49    2.42   1
   1  -1  -3 1060.46   29.09   1
   1  -1  -3 1094.92   59.11   1
   1  -1  -3 1097.72   33.62   1
   1  -1  -3 1070.35   33.46   1
  -1   1   3 1139.11   41.50   1
  -1   1   3 1151.13   19.73   1
  -1   1   3 1127.82   34.65   1
  -1   1   3 1146.78   59.92   1
  -1   1   3 1162.53   47.46   1
  -1   1   3 1116.31   16.57   1
   1  -1  -3 1137.45   64.70   1
   1  -1  -3 1133.16   79.39   1
  -1   1   3 1180.54   67.04   1
  -1   1   3 1167.64   65.32   1
   0  -1  -3   67.98    2.10   1
   0  -1  -3   71.70    3.44   1
   0  -1  -3   69.92    2.62   1
   0  -1  -3   65.93    4.29   1
   0  -1  -3   69.94    2.47   1
   0   1   3   69.17    4.27   1
   0   1   3   66.85    4.17   1
   0   1   3   67.78    2.71   1
   0   1   3   69.11    2.58   1
   0   1   3   70.05    2.56   1
   0  -1  -3   65.53    6.92   1
   0  -1  -3   56.91    5.59   1
   0   1   3   61.78    5.68   1
   0   1   3   51.59    5.31   1
  -1  -1  -3   20.61    1.50   1
  -1  -1  -3   22.99    1.46   1
  -1  -1  -3   21.14    1.02   1
  -1  -1  -3   19.79    1.53   1
  -1  -1  -3   22.36    1.39   1
   1   1   3   20.76    0.88   1
   1   1   3   19.93    1.12   1
   1   1   3   19.25    1.14   1
   1   1   3   19.89    1.41   1
   1   1   3   21.13    1.43   1
   1   1   3   21.14    0.56   1
   1   1   3   21.63    0.65   1
   1   1   3   20.52    0.73   1
  -1  -1  -3   19.24    3.57   1
  -1  -1  -3   12.08    4.05   1
   1   1   3    9.99    4.06   1
  -2  -1  -3  454.63   23.98   1
  -2  -1  -3  463.98   19.85   1
  -2  -1  -3  468.62   13.86   1
  -2  -1  -3  456.89   12.30   1
  -2  -1  -3  463.93   10.87   1
  -2  -1  -3  446.41   14.51   1
  -2  -1  -3  465.15   11.29   1
  -2  -1  -3  470.61   12.27   1
  -2  -1  -3  474.26   14.11   1
   2   1   3  457.63   26.70   1
   2   1   3  435.12   14.57   1
   2   1   3  444.73   15.05   1
   2   1   3  441.08   16.11   1
   2   1   3  443.56   20.36   1
  -3  -1  -3  131.24    3.51   1
  -3  -1  -3  124.27    4.27   1
  -3  -1  -3  138.20    3.90   1
  -3  -1  -3  131.33    4.27   1
  -3  -1  -3  128.17    5.97   1
  -3  -1  -3  133.86    5.35   1
  -3  -1  -3  119.49    5.31   1
  -3  -1  -3  124.26    4.45   1
  -3  -1  -3  128.78    3.66   1
  -3  -1  -3  120.62    5.18   1
   3   1   3  126.95    5.33   1
   3   1   3  122.77    3.71   1
   3   1   3  117.84    4.92   1
  -4  -1  -3   63.37    3.52   1
  -4  -1  -3   61.95    3.14   1
  -4  -1  -3   66.59    2.55   1
  -4  -1  -3   65.08    3.03   1
  -4  -1  -3   65.14    2.27   1
  -4  -1  -3   67.04    2.08   1
  -4  -1  -3   66.99    2.23   1
   4   1   3   61.59    3.80   1
   4   1   3   68.60    3.42   1
   4   1   3   67.89    3.33   1
  -5  -1  -3   60.72    3.56   1
  -5  -1  -3   58.50    3.22   1
   5   1   3   56.74    3.43   1
   5   1   3   59.57    3.65   1
  -6  -1  -3    0.94    2.31   1
  -6  -1  -3    0.27    2.71   1
  -6  -1  -3    1.60    2.54   1
   6   1   3    2.04    2.78   1
  -7  -1  -3   -0.35    3.01   1
  -7  -1  -3    0.03    2.63   1
   7   1   3   -0.51    2.69   1
   8  -2  -3   64.05    4.40   1
  -8   2   3   52.15    4.36   1
  -8   2   3   56.95    5.01   1
   7  -2  -3    5.49    3.81   1
  -7   2   3    2.45    2.82   1
  -7   2   3    5.52    3.91   1
  -7   2   3    1.98    1.83   1
   6  -2  -3    0.37    1.71   1
  -6   2   3   -1.07    1.07   1
  -6   2   3   -1.05    1.84   1
  -6   2   3   -0.03    1.79   1
   5  -2  -3   -0.55    1.84   1
   5  -2  -3    0.10    1.39   1
   5  -2  -3    0.08    1.31   1
   5  -2  -3    0.57    1.32   1
  -5   2   3   -0.17    0.97   1
  -5   2   3   -0.42    1.49   1
  -5   2   3    1.06    1.14   1
  -5   2   3    0.57    1.01   1
   4  -2  -3    2.30    1.51   1
   4  -2  -3    2.60    1.34   1
   4  -2  -3   -0.33    1.73   1
   4  -2  -3    1.23    1.72   1
   4  -2  -3   -0.33    1.69   1
  -4   2   3    0.41    0.60   1
  -4   2   3    0.57    0.85   1
  -4   2   3    0.47    1.45   1
  -4   2   3    0.87    1.88   1
  -4   2   3   -0.11    1.01   1
   3  -2  -3   17.57    1.56   1
   3  -2  -3   19.84    1.61   1
   3  -2  -3   18.96    1.39   1
   3  -2  -3   19.90    1.41   1
   3  -2  -3   17.28    1.98   1
  -3   2   3   15.71    1.56   1
  -3   2   3   15.64    1.78   1
  -3   2   3   19.38    1.88   1
  -3   2   3   18.25    0.96   1
  -3   2   3   17.93    1.61   1
  -3   2   3   17.80    1.96   1
  -3   2   3   20.38    1.51   1
  -3   2   3   18.06    0.89   1
   2  -2  -3   99.86    2.83   1
   2  -2  -3   98.47    3.19   1
   2  -2  -3  102.09    3.28   1
   2  -2  -3   89.11    4.39   1
  -2   2   3  101.30    4.07   1
  -2   2   3  101.64    3.80   1
  -2   2   3  105.63    2.85   1
  -2   2   3   94.17    2.57   1
  -2   2   3   97.18    2.85   1
  -2   2   3  103.58    3.43   1
  -2   2   3   99.00    3.09   1
   1  -2  -3   44.29    2.76   1
   1  -2  -3   46.08    2.18   1
   1  -2  -3   43.12    1.51   1
   1  -2  -3   46.58    1.87   1
   1  -2  -3   46.36    1.83   1
   1  -2  -3   44.82    1.96   1
  -1   2   3   45.28    3.14   1
  -1   2   3   45.12    2.78   1
  -1   2   3   42.27    1.74   1
  -1   2   3   42.96    1.63   1
  -1   2   3   46.29    2.65   1
  -1   2   3   43.98    2.43   1
  -1   2   3   46.11    2.25   1
  -1   2   3   44.02    2.34   1
   0  -2  -3  146.64    3.70   1
   0  -2  -3  159.18    4.28   1
   0  -2  -3  153.45    5.73   1
   0  -2  -3  156.25    5.48   1
   0  -2  -3  150.87    4.35   1
   0  -2  -3  154.61    4.19   1
   0   2   3  146.13    6.18   1
   0   2   3  157.66    3.94   1
   0   2   3  155.02    4.73   1
   0   2   3  146.79    4.73   1
   0   2   3  156.16    5.93   1
   0   2   3  160.83    4.49   1
   0   2   3  146.48    5.49   1
  -1  -2  -3   26.18    1.41   1
  -1  -2  -3   29.18    1.44   1
  -1  -2  -3   28.21    1.63   1
  -1  -2  -3   27.07    1.83   1
   1   2   3   27.58    1.90   1
   1   2   3   29.49    1.95   1
   1   2   3   31.78    2.00   1
   1   2   3   26.88    1.42   1
  -2  -2  -3    0.46    1.60   1
  -2  -2  -3    0.51    0.80   1
  -2  -2  -3    0.26    1.29   1
  -2  -2  -3    0.03    0.74   1
   2   2   3    0.37    1.23   1
   2   2   3    0.85    1.31   1
   2   2   3   -0.11    0.83   1
  -3  -2  -3  352.56   10.22   1
  -3  -2  -3  361.72    9.43   1
  -3  -2  -3  346.95   12.62   1
  -3  -2  -3  353.44   10.00   1
  -3  -2  -3  349.46   15.24   1
  -3  -2  -3  364.42    9.46   1
  -3  -2  -3  338.84   12.30   1
   3   2   3  345.35   15.43   1
   3   2   3  342.63   12.94   1
   3   2   3  363.16   10.71   1
  -4  -2  -3  738.95   16.30   1
  -4  -2  -3  748.75   19.10   1
  -4  -2  -3  745.63   18.78   1
  -4  -2  -3  746.88   21.89   1
  -4  -2  -3  715.84   25.25   1
  -4  -2  -3  725.08   22.80   1
  -4  -2  -3  726.12   17.52   1
   4   2   3  720.60   30.44   1
   4   2   3  730.52   29.70   1
  -5  -2  -3   77.13    4.11   1
  -5  -2  -3   69.79    3.76   1
   5   2   3   61.63    4.28   1
   5   2   3   71.38    4.48   1
  -6  -2  -3  131.56    7.54   1
  -6  -2  -3  129.58    6.69   1
   6   2   3  144.51    7.32   1
   6   2   3  133.68    6.60   1
  -7  -2  -3    0.40    3.02   1
  -7  -2  -3    1.19    3.76   1
   7   2   3   -0.33    4.68   1
   8  -3  -3    1.27    2.44   1
  -8   3   3    1.93    4.10   1
  -8   3   3    0.27    4.00   1
   7  -3  -3   25.54    3.47   1
  -7   3   3   22.10    3.92   1
  -7   3   3   18.23    3.11   1
   6  -3  -3   40.04    3.00   1
   6  -3  -3   54.15    3.20   1
   6  -3  -3   47.35    3.18   1
   6  -3  -3   48.11    3.20   1
  -6   3   3   42.37    3.38   1
  -6   3   3   40.79    2.25   1
   5  -3  -3   95.40    3.50   1
   5  -3  -3   92.15    3.86   1
   5  -3  -3   95.95    3.70   1
   5  -3  -3   97.82    3.54   1
  -5   3   3   93.55    4.50   1
  -5   3   3   89.32    5.89   1
  -5   3   3   94.69    3.84   1
   4  -3  -3  261.47   10.62   1
   4  -3  -3  249.96    7.76   1
   4  -3  -3  232.73    9.49   1
   4  -3  -3  255.38    6.18   1
  -4   3   3  260.70   14.16   1
  -4   3   3  257.21    8.08   1
  -4   3   3  261.16   13.28   1
   3  -3  -3    0.77    0.93   1
   3  -3  -3    0.86    1.04   1
   3  -3  -3    0.57    0.75   1
   3  -3  -3   -0.11    1.09   1
   3  -3  -3    0.39    1.31   1
  -3   3   3    1.22    1.20   1
  -3   3   3    0.82    1.09   1
  -3   3   3    1.05    1.16   1
  -3   3   3    0.03    1.04   1
  -3   3   3    0.81    1.29   1
  -3   3   3    0.13    0.63   1
  -3   3   3    1.93    1.36   1
   2  -3  -3    2.43    1.44   1
   2  -3  -3    3.13    0.77   1
   2  -3  -3   -0.26    1.44   1
   2  -3  -3    1.06    1.44   1
  -2   3   3    2.58    0.77   1
  -2   3   3    4.02    1.22   1
  -2   3   3    3.16    1.22   1
  -2   3   3    3.74    1.18   1
  -2   3   3    3.64    1.24   1
  -2   3   3    1.98    1.85   1
  -2   3   3    1.53    1.05   1
  -2   3   3    2.74    1.44   1
   1  -3  -3  157.03    6.99   1
   1  -3  -3  156.62    5.86   1
   1  -3  -3  144.81    8.26   1
   1  -3  -3  152.78    5.62   1
   1  -3  -3  153.42    4.36   1
   1  -3  -3  154.38    5.61   1
   1  -3  -3  149.18    4.26   1
  -1   3   3  159.21    7.59   1
  -1   3   3  151.73    6.77   1
  -1   3   3  152.21    7.16   1
  -1   3   3  164.50    3.91   1
  -1   3   3  151.51    5.33   1
  -1   3   3  158.25    5.17   1
  -1   3   3  160.91    7.76   1
   0  -3  -3    1.94    1.74   1
   0  -3  -3    2.04    0.64   1
   0  -3  -3    1.77    0.94   1
   0  -3  -3    2.64    0.67   1
   0  -3  -3    3.96    1.54   1
   0   3   3    3.02    0.60   1
   0   3   3    3.87    1.18   1
   0   3   3    1.81    0.60   1
   0   3   3    3.36    1.14   1
   0   3   3    3.71    0.67   1
   0   3   3    2.08    0.57   1
   0   3   3    0.37    1.31   1
  -1  -3  -3    3.83    1.17   1
  -1  -3  -3    3.80    1.97   1
  -1  -3  -3    3.09    0.37   1
  -1  -3  -3    3.37    0.43   1
  -1  -3  -3    2.53    1.30   1
   1   3   3    4.05    0.40   1
   1   3   3    3.34    1.17   1
   1   3   3    2.87    1.30   1
   1   3   3    4.16    0.40   1
   1   3   3    3.92    1.67   1
   1   3   3    2.93    1.61   1
  -2  -3  -3   90.67    4.94   1
  -2  -3  -3   96.29    3.44   1
   2   3   3   97.52    3.81   1
   2   3   3   90.58    5.13   1
   2   3   3   88.57    3.40   1
   2   3   3   95.04    3.83   1
  -3  -3  -3    6.47    1.64   1
  -3  -3  -3    2.83    1.44   1
  -3  -3  -3    6.72    2.08   1
   3   3   3    2.83    2.74   1
   3   3   3    5.62    2.80   1
  -4  -3  -3   51.12    2.96   1
  -4  -3  -3   53.69    3.95   1
   4   3   3   50.71    3.86   1
   4   3   3   52.74    3.64   1
  -5  -3  -3    4.31    2.80   1
  -5  -3  -3    2.97    2.09   1
   5   3   3    5.97    2.69   1
   5   3   3   11.28    3.03   1
  -6  -3  -3    9.25    2.69   1
  -6  -3  -3   10.87    3.26   1
   6   3   3   16.20    3.54   1
   6   3   3   14.00    3.39   1
  -8   4   3   -1.29    3.46   1
  -8   4   3   -1.17    3.76   1
   7  -4  -3   11.11    3.23   1
   7  -4  -3   14.51    2.83   1
   7  -4  -3   11.08    3.12   1
  -7   4   3   11.57    4.84   1
   6  -4  -3   36.61    3.07   1
   6  -4  -3   49.88    3.00   1
   6  -4  -3   44.04    3.22   1
   6  -4  -3   51.25    3.04   1
  -6   4   3   43.12    3.67   1
   5  -4  -3    5.22    2.52   1
   5  -4  -3    4.45    1.86   1
   5  -4  -3    4.35    2.39   1
   5  -4  -3    2.12    2.29   1
  -5   4   3    4.31    3.79   1
   4  -4  -3    0.42    1.03   1
   4  -4  -3    0.28    1.45   1
   4  -4  -3    1.38    1.09   1
   4  -4  -3    0.81    1.57   1
  -4   4   3    1.79    1.07   1
  -4   4   3    2.55    5.27   1
   3  -4  -3  138.63    3.85   1
   3  -4  -3  139.36    4.93   1
   3  -4  -3  138.53    4.76   1
   3  -4  -3  137.01    3.77   1
  -3   4   3  145.55    6.30   1
  -3   4   3  133.28    4.18   1
  -3   4   3  146.25    5.49   1
   2  -4  -3    6.69    1.36   1
   2  -4  -3    9.41    0.56   1
   2  -4  -3    8.76    0.47   1
   2  -4  -3    6.84    1.39   1
   2  -4  -3    7.29    1.06   1
  -2   4   3    9.53    1.80   1
  -2   4   3    6.49    1.45   1
  -2   4   3    5.04    1.71   1
  -2   4   3    7.88    1.80   1
  -2   4   3    8.55    1.50   1
  -2   4   3    5.13    1.98   1
   1  -4  -3  265.22    9.34   1
   1  -4  -3  251.81    9.54   1
   1  -4  -3  250.45   15.39   1
   1  -4  -3  276.09   12.66   1
   1  -4  -3  276.06   12.43   1
   1  -4  -3  263.82    8.87   1
  -1   4   3  272.11   11.13   1
  -1   4   3  278.50    8.30   1
  -1   4   3  261.10    8.23   1
  -1   4   3  267.86    9.30   1
  -1   4   3  270.84    7.76   1
  -1   4   3  269.63    7.58   1
   0  -4  -3  213.52    9.00   1
   0  -4  -3  207.46    8.32   1
   0  -4  -3  215.19   11.42   1
   0  -4  -3  210.23    8.39   1
   0   4   3  209.74    6.67   1
   0   4   3  202.14   10.07   1
   0   4   3  208.25   10.64   1
   0   4   3  208.42    4.60   1
   0   4   3  211.28    6.67   1
   0   4   3  213.18    8.08   1
  -1  -4  -3   13.70    0.91   1
  -1  -4  -3   12.23    0.86   1
  -1  -4  -3   12.03    1.57   1
  -1  -4  -3    9.88    1.37   1
   1   4   3   12.26    1.60   1
   1   4   3   13.96    0.73   1
   1   4   3    9.65    1.97   1
   1   4   3   15.48    0.76   1
   1   4   3    9.88    1.97   1
  -2  -4  -3   64.69    4.18   1
  -2  -4  -3   77.35    3.60   1
   2   4   3   76.41    5.03   1
   2   4   3   78.44    3.23   1
   2   4   3   70.66    3.71   1
  -3  -4  -3    0.29    1.43   1
  -3  -4  -3   -0.58    1.77   1
   3   4   3    0.29    2.74   1
   3   4   3    1.06    1.96   1
  -4  -4  -3   -0.98    2.16   1
  -4  -4  -3    1.24    2.45   1
   4   4   3   -0.50    2.95   1
   4   4   3   -0.19    2.25   1
  -5  -4  -3   92.97    4.90   1
  -5  -4  -3  101.81    6.46   1
   5   4   3   93.98    6.95   1
   5   4   3   98.42    6.20   1
  -6  -4  -3   34.82    3.94   1
  -6  -4  -3   30.44    4.27   1
   6   4   3   36.20    4.52   1
   6   4   3   31.46    5.27   1
  -8   5   3   25.68    4.49   1
   7  -5  -3   17.69    3.17   1
   7  -5  -3   20.31    3.24   1
  -7   5   3   14.47    3.62   1
   6  -5  -3    6.69    2.85   1
   6  -5  -3   11.48    2.77   1
   6  -5  -3    7.79    2.85   1
   6  -5  -3    6.69    2.05   1
  -6   5   3    5.63    3.35   1
   5  -5  -3  104.59    4.67   1
   5  -5  -3   99.52    4.59   1
   5  -5  -3   99.25    3.45   1
   5  -5  -3   98.41    4.24   1
  -5   5   3  109.37    5.38   1
   4  -5  -3   89.06    6.89   1
   4  -5  -3   85.83    4.06   1
   4  -5  -3   91.53    4.04   1
   4  -5  -3   90.13    3.68   1
  -4   5   3   92.66    5.11   1
  -4   5   3   84.71    4.47   1
  -4   5   3  101.18    4.77   1
   3  -5  -3   59.79    3.02   1
   3  -5  -3   59.79    2.24   1
   3  -5  -3   55.25    2.98   1
  -3   5   3   50.90    3.48   1
  -3   5   3   56.75    3.31   1
   2  -5  -3    7.95    4.75   1
   2  -5  -3    4.40    1.44   1
   2  -5  -3    9.13    0.76   1
   2  -5  -3    9.19    1.29   1
   2  -5  -3    9.04    0.91   1
   2  -5  -3    8.04    1.64   1
  -2   5   3    6.63    1.88   1
  -2   5   3    7.31    1.91   1
   1  -5  -3    7.26    1.34   1
   1  -5  -3    6.68    1.57   1
   1  -5  -3   10.28    1.31   1
   1  -5  -3    7.63    1.37   1
   1  -5  -3   11.72    1.46   1
  -1   5   3    7.35    1.26   1
  -1   5   3    8.15    1.35   1
  -1   5   3    7.77    2.69   1
  -1   5   3   10.52    2.23   1
  -1   5   3   11.93    1.43   1
  -1   5   3    9.09    1.37   1
   0  -5  -3    0.26    1.41   1
   0  -5  -3    1.04    0.95   1
   0  -5  -3   -0.06    0.88   1
   0  -5  -3    0.42    0.92   1
   0  -5  -3    1.60    0.95   1
   0   5   3    1.27    2.16   1
   0   5   3    2.55    0.88   1
   0   5   3    2.68    0.85   1
   0   5   3    1.60    1.47   1
  -1  -5  -3    7.11    0.91   1
  -1  -5  -3    7.22    0.94   1
  -1  -5  -3    9.44    1.85   1
  -1  -5  -3    5.38    1.65   1
   1   5   3   10.54    0.88   1
   1   5   3   10.58    3.27   1
   1   5   3   11.06    3.27   1
   1   5   3    8.62    1.85   1
   1   5   3   10.61    0.88   1
  -2  -5  -3   17.05    2.59   1
   2   5   3   22.09    3.00   1
   2   5   3   20.49    1.79   1
   2   5   3   16.45    3.32   1
  -3  -5  -3   14.64    2.35   1
  -3  -5  -3   17.08    2.79   1
   3   5   3   16.60    2.96   1
   3   5   3   15.67    3.74   1
  -4  -5  -3    1.59    3.32   1
  -4  -5  -3    2.15    2.70   1
   4   5   3    3.88    3.45   1
   4   5   3    8.69    4.95   1
  -5  -5  -3   -0.03    3.55   1
  -5  -5  -3    0.75    2.79   1
   5   5   3    0.55    3.28   1
   5   5   3   -0.29    3.20   1
   7  -6  -3    9.67    3.05   1
   7  -6  -3   16.77    3.39   1
  -7   6   3   17.57    4.12   1
   6  -6  -3    5.74    3.03   1
   6  -6  -3    7.06    3.14   1
  -6   6   3    7.68    3.74   1
  -6   6   3   12.52    5.34   1
   5  -6  -3   13.88    2.19   1
   5  -6  -3   13.17    1.80   1
   5  -6  -3    9.43    2.69   1
   5  -6  -3   11.19    2.58   1
  -5   6   3   10.87    3.29   1
  -5   6   3    7.92    3.05   1
   4  -6  -3    6.55    1.40   1
   4  -6  -3   10.63    1.94   1
   4  -6  -3    4.75    2.91   1
   4  -6  -3    3.55    2.83   1
  -4   6   3   10.18    3.97   1
  -4   6   3    4.66    2.29   1
   3  -6  -3    8.44    1.65   1
   3  -6  -3    7.67    2.02   1
   3  -6  -3    3.99    1.91   1
  -3   6   3    4.79    3.02   1
  -3   6   3    9.71    2.62   1
   2  -6  -3   47.00    2.49   1
   2  -6  -3   47.45    2.56   1
   2  -6  -3   47.06    2.34   1
   2  -6  -3   51.70    2.47   1
   2  -6  -3   38.64    3.33   1
   2  -6  -3   48.46    2.56   1
  -2   6   3   52.31    3.13   1
  -2   6   3   43.09    3.15   1
   1  -6  -3  122.72    4.15   1
   1  -6  -3  138.86    4.97   1
   1  -6  -3  124.20    5.63   1
   1  -6  -3  123.19    3.64   1
   1  -6  -3  140.49    7.15   1
  -1   6   3  141.72    6.08   1
  -1   6   3  134.43    5.70   1
   0  -6  -3    1.30    1.16   1
   0  -6  -3    1.06    1.12   1
   0  -6  -3    2.14    2.04   1
   0   6   3    2.14    2.82   1
   0   6   3    4.16    1.70   1
   0   6   3    6.19    2.11   1
  -1  -6  -3  138.81    5.10   1
   1   6   3  118.79    6.62   1
   1   6   3  133.81    7.31   1
   1   6   3  134.07    6.79   1
  -2  -6  -3   97.63    6.50   1
   2   6   3   88.51    5.53   1
   2   6   3   91.05    5.68   1
   2   6   3   85.16    5.85   1
  -3  -6  -3    7.77    2.80   1
  -3  -6  -3   13.65    4.53   1
   3   6   3    9.11    3.71   1
   3   6   3    7.36    3.59   1
  -4  -6  -3   17.95    4.07   1
  -4  -6  -3   16.01    3.66   1
   4   6   3   19.96    3.95   1
   4   6   3   18.67    4.89   1
   7  -7  -3   -0.37    6.10   1
   7  -7  -3    1.50    6.17   1
   6  -7  -3    6.28    3.39   1
   6  -7  -3    9.77    3.55   1
  -6   7   3    6.77    3.05   1
  -6   7   3   10.57    4.32   1
   5  -7  -3    1.17    2.70   1
   5  -7  -3    1.42    2.51   1
  -5   7   3    0.50    3.34   1
  -5   7   3    0.97    3.69   1
   4  -7  -3    1.36    2.63   1
   4  -7  -3    2.09    2.68   1
   4  -7  -3    4.90    2.05   1
   4  -7  -3    5.12    1.52   1
  -4   7   3    1.49    3.04   1
  -4   7   3    7.81    3.67   1
   3  -7  -3   12.27    2.70   1
   3  -7  -3   24.75    2.03   1
   3  -7  -3   17.56    2.89   1
  -3   7   3   20.39    3.01   1
  -3   7   3   16.06    3.04   1
   2  -7  -3    4.95    2.06   1
   2  -7  -3    6.35    1.65   1
   2  -7  -3    2.09    1.99   1
   2  -7  -3    5.76    3.18   1
  -2   7   3    5.80    2.74   1
  -2   7   3    4.02    3.18   1
   1  -7  -3    2.63    2.33   1
   1  -7  -3    0.99    2.20   1
   1  -7  -3    2.01    2.33   1
   1  -7  -3    5.63    1.87   1
  -1   7   3    4.71    3.36   1
  -1   7   3    1.84    3.26   1
   0  -7  -3    0.90    2.16   1
   0   7   3    1.29    3.24   1
   0   7   3    3.24    2.83   1
  -1  -7  -3    4.95    2.57   1
  -1  -7  -3    3.88    2.51   1
   1   7   3    9.97    2.94   1
   1   7   3    2.26    4.92   1
   1   7   3    7.79    3.88   1
  -2  -7  -3   27.57    3.44   1
  -2  -7  -3   18.27    3.10   1
   2   7   3   23.33    4.15   1
   2   7   3   19.63    3.80   1
  -3  -7  -3    3.64    4.00   1
  -3  -7  -3   -0.19    3.37   1
   3   7   3    3.77    4.66   1
   3   7   3    1.25    4.49   1
   5  -8  -3   28.55    4.18   1
   5  -8  -3   26.86    4.34   1
  -5   8   3   33.96    5.20   1
  -5   8   3   39.55    4.59   1
   4  -8  -3    1.84    4.09   1
   4  -8  -3    1.09    4.15   1
  -4   8   3    1.25    3.71   1
  -4   8   3    4.52    5.48   1
   3  -8  -3   48.97    3.92   1
   3  -8  -3   54.71    4.12   1
  -3   8   3   57.21    4.65   1
  -3   8   3   59.95    4.32   1
   2  -8  -3   38.33    2.92   1
   2  -8  -3   31.88    2.67   1
   2  -8  -3   39.49    2.95   1
   2  -8  -3   41.41    3.60   1
  -2   8   3   36.81    4.19   1
  -2   8   3   46.07    4.24   1
   1  -8  -3    9.25    2.76   1
   1  -8  -3   18.19    2.78   1
  -1   8   3   15.11    3.63   1
  -1   8   3   17.29    4.22   1
   0  -8  -3    3.44    3.15   1
   0  -8  -3    3.54    2.46   1
   0   8   3    4.06    3.77   1
   0   8   3    2.98    4.51   1
  -1  -8  -3   20.58    3.34   1
  -1  -8  -3   24.15    3.32   1
   1   8   3   17.04    4.42   1
   1   8   3   21.46    4.47   1
  -3   9   3    5.01    4.60   1
  -3   9   3    8.01    5.39   1
   2  -9  -3    1.07    6.68   1
  -2   9   3    0.44    4.69   1
  -2   9   3   -0.41    3.77   1
   0   9  -4   42.54    5.87   1
   0  -9   4   37.98    3.79   1
  -1   9  -4    0.66    3.24   1
   1  -9   4   -2.28    2.28   1
   1  -9   4   -0.55    2.07   1
   1  -9   4   -1.51    2.18   1
   1  -9   4    0.21    2.14   1
   1  -9   4   -0.58    2.21   1
  -2   9  -4   18.96    4.00   1
   2  -9   4   15.19    3.72   1
   2  -9   4   14.67    3.06   1
   2  -9   4   10.81    3.74   1
   2  -9   4   15.05    3.03   1
  -3   9  -4    9.40    5.97   1
  -3   9  -4    2.92    6.45   1
   3  -9   4    4.52    3.66   1
   3  -9   4    5.23    3.18   1
   3  -9   4    2.34    3.60   1
   3  -9   4    3.69    3.76   1
   3  -9   4    6.93    3.72   1
  -4   9  -4   -0.29    4.88   1
  -4   9  -4    9.57    6.90   1
   4  -9   4    3.78    4.13   1
   4  -9   4    1.01    3.81   1
   4  -9   4    1.56    3.94   1
   4  -9   4    1.30    3.81   1
   2   8  -4    7.99    4.04   1
   2   8  -4    5.60    4.13   1
  -2  -8   4    8.58    3.55   1
   1   8  -4   48.94    4.55   1
  -1  -8   4   49.25    3.93   1
   0   8  -4   15.25    5.00   1
   0  -8   4    7.96    2.90   1
   0  -8   4    3.83    2.82   1
   0  -8   4    6.23    2.18   1
   0  -8   4    5.45    2.10   1
  -1   8  -4   71.47    4.84   1
  -1   8  -4   79.25    5.57   1
   1  -8   4   71.26    3.98   1
   1  -8   4   69.80    3.74   1
   1  -8   4   75.23    4.60   1
   1  -8   4   83.34    4.56   1
   1  -8   4   62.95    3.80   1
  -2   8  -4   16.49    3.02   1
  -2   8  -4   15.64    4.60   1
   2  -8   4   16.88    2.84   1
   2  -8   4    7.71    2.48   1
   2  -8   4   10.84    2.71   1
   2  -8   4   17.30    2.74   1
   2  -8   4    9.61    2.48   1
  -3   8  -4   30.09    3.68   1
  -3   8  -4   22.36    4.36   1
   3  -8   4   34.28    3.09   1
   3  -8   4   30.46    3.37   1
   3  -8   4   18.68    3.49   1
   3  -8   4   27.63    3.26   1
   3  -8   4   24.82    3.73   1
  -4   8  -4   15.60    3.71   1
  -4   8  -4   14.41    3.89   1
   4  -8   4   14.66    3.42   1
   4  -8   4   15.79    4.28   1
   4  -8   4   12.63    3.19   1
   4  -8   4   14.59    4.15   1
  -5   8  -4    2.96    3.26   1
  -5   8  -4   -2.06    3.58   1
   5  -8   4   -0.50    2.76   1
   5  -8   4    0.30    2.86   1
   5  -8   4    0.65    2.69   1
   5  -8   4   -1.94    2.86   1
  -6   8  -4    4.52    5.89   1
   6  -8   4    2.85    4.36   1
   6  -8   4    7.05    5.90   1
   6  -8   4    2.35    4.15   1
   6  -8   4    1.84    4.07   1
   4   7  -4   20.35    3.97   1
   4   7  -4   18.98    3.92   1
  -4  -7   4   23.35    4.64   1
   3   7  -4    0.77    3.76   1
   3   7  -4    0.05    3.86   1
  -3  -7   4    1.07    3.26   1
   2   7  -4   70.39    4.67   1
  -2  -7   4   75.34    4.36   1
   1   7  -4   19.28    3.93   1
  -1  -7   4   10.11    2.45   1
  -1  -7   4   14.99    3.15   1
  -1  -7   4   11.49    2.30   1
  -1  -7   4   14.34    2.48   1
  -1  -7   4   11.09    2.30   1
   0   7  -4   22.98    2.12   1
   0   7  -4   20.87    3.00   1
   0  -7   4   17.00    2.45   1
   0  -7   4   21.87    2.95   1
   0  -7   4   19.64    2.57   1
   0  -7   4   17.40    2.57   1
   0  -7   4   14.52    2.34   1
  -1   7  -4    0.49    2.58   1
  -1   7  -4   -0.03    1.90   1
   1  -7   4    0.25    1.81   1
   1  -7   4    1.23    2.03   1
   1  -7   4    1.78    1.96   1
   1  -7   4   -1.01    1.84   1
   1  -7   4    1.63    1.81   1
  -2   7  -4    0.89    1.95   1
  -2   7  -4   -0.19    3.17   1
   2  -7   4    0.59    2.48   1
   2  -7   4    0.24    1.85   1
   2  -7   4    0.96    2.58   1
   2  -7   4    0.51    1.89   1
   2  -7   4    0.29    2.03   1
  -3   7  -4   18.35    2.13   1
  -3   7  -4   26.39    3.34   1
  -3   7  -4   22.58    3.85   1
   3  -7   4   25.70    2.47   1
   3  -7   4   21.54    2.73   1
   3  -7   4   19.66    2.73   1
   3  -7   4   20.15    2.68   1
   3  -7   4   21.43    2.73   1
  -4   7  -4   38.75    4.08   1
   4  -7   4   37.43    3.83   1
   4  -7   4   31.54    3.69   1
   4  -7   4   33.78    3.72   1
   4  -7   4   32.82    3.67   1
  -5   7  -4   69.48    6.00   1
   5  -7   4   62.53    4.25   1
   5  -7   4   68.68    4.25   1
   5  -7   4   67.45    4.20   1
   5  -7   4   71.48    4.29   1
  -6   7  -4    5.10    4.76   1
   6  -7   4    4.93    3.28   1
   6  -7   4    7.00    3.44   1
   6  -7   4    4.82    3.22   1
   6  -7   4    6.28    3.22   1
   5   6  -4   -0.35    3.59   1
   5   6  -4   -1.25    4.91   1
  -5  -6   4    1.70    3.76   1
   4   6  -4    4.10    3.15   1
   4   6  -4    4.31    3.09   1
  -4  -6   4    7.82    3.54   1
   3   6  -4   57.29    4.04   1
   3   6  -4   56.65    4.10   1
  -3  -6   4   60.24    4.37   1
   2   6  -4   18.87    2.77   1
  -2  -6   4   16.60    2.50   1
  -2  -6   4   18.81    1.84   1
  -2  -6   4   20.70    1.87   1
  -2  -6   4   13.93    1.70   1
  -2  -6   4   16.96    1.75   1
   1   6  -4    1.98    2.36   1
   1   6  -4    5.01    1.22   1
  -1  -6   4    4.37    2.30   1
  -1  -6   4    3.29    2.17   1
  -1  -6   4    3.86    2.20   1
  -1  -6   4    4.37    2.17   1
  -1  -6   4    3.96    2.30   1
   0   6  -4  127.01    4.84   1
   0   6  -4  137.41    5.40   1
   0  -6   4  140.24    5.65   1
   0  -6   4  136.46    5.18   1
   0  -6   4  138.66    9.85   1
   0  -6   4  134.23    5.12   1
   0  -6   4  132.16    5.62   1
   0  -6   4  143.16    5.15   1
   0  -6   4  134.21    5.55   1
  -1   6  -4   69.01    3.99   1
  -1   6  -4   63.77    3.52   1
   1  -6   4   67.85    3.15   1
   1  -6   4   61.73    3.24   1
   1  -6   4   70.60    2.87   1
   1  -6   4   74.50    3.30   1
   1  -6   4   72.44    3.22   1
   1  -6   4   66.12    4.02   1
   1  -6   4   65.99    3.67   1
  -2   6  -4  123.20    4.52   1
  -2   6  -4  145.30    5.48   1
  -2   6  -4  135.71    5.17   1
   2  -6   4  135.54    4.76   1
   2  -6   4  137.25    4.56   1
   2  -6   4  128.81    4.35   1
   2  -6   4  128.69    7.05   1
   2  -6   4  136.26    5.59   1
   2  -6   4  134.66    4.76   1
   2  -6   4  139.54    4.56   1
   2  -6   4  118.96    7.09   1
  -3   6  -4    8.24    3.17   1
  -3   6  -4    3.01    1.60   1
   3  -6   4    2.78    3.14   1
   3  -6   4    4.94    2.25   1
   3  -6   4    7.00    1.44   1
   3  -6   4    3.46    2.22   1
   3  -6   4    4.22    2.29   1
   3  -6   4   -0.56    2.91   1
  -4   6  -4   12.79    1.55   1
  -4   6  -4   14.11    3.18   1
   4  -6   4   15.44    2.49   1
   4  -6   4   11.14    2.39   1
   4  -6   4   13.63    2.39   1
   4  -6   4   11.09    2.34   1
  -5   6  -4   21.29    4.98   1
   5  -6   4   19.97    2.94   1
   5  -6   4   17.57    2.83   1
   5  -6   4   13.30    2.83   1
   5  -6   4   15.45    2.78   1
  -6   6  -4   21.86    4.21   1
   6  -6   4   19.56    3.15   1
   6  -6   4   15.96    2.97   1
   6  -6   4   19.57    3.04   1
   6  -6   4   19.31    2.99   1
  -7   6  -4    2.86    7.53   1
   7  -6   4   -0.63    3.42   1
   7  -6   4    0.36    3.35   1
   6   5  -4    4.81    3.51   1
   6   5  -4    3.53    4.90   1
  -6  -5   4   -0.63    3.94   1
   5   5  -4   24.65    3.32   1
   5   5  -4   20.13    3.08   1
  -5  -5   4   17.04    3.22   1
   4   5  -4   16.06    2.73   1
   4   5  -4   17.29    2.73   1
  -4  -5   4   14.49    2.83   1
   3   5  -4    1.96    2.47   1
   3   5  -4    1.69    2.47   1
  -3  -5   4    0.91    1.36   1
  -3  -5   4   -0.04    2.34   1
  -3  -5   4    2.07    1.42   1
   2   5  -4    3.42    2.18   1
  -2  -5   4    2.28    2.08   1
  -2  -5   4    1.34    1.37   1
  -2  -5   4    0.90    1.31   1
   1   5  -4    0.57    0.60   1
   1   5  -4   -2.31    2.97   1
   1   5  -4    0.75    1.28   1
   1   5  -4   -0.44    2.62   1
  -1  -5   4   -0.43    0.89   1
  -1  -5   4    0.75    0.92   1
  -1  -5   4    1.53    1.17   1
  -1  -5   4    0.42    0.88   1
  -1  -5   4   -0.30    0.91   1
   0   5  -4   15.08    1.69   1
   0   5  -4   18.46    2.50   1
   0  -5   4   13.90    1.51   1
   0  -5   4   19.34    1.93   1
   0  -5   4   14.99    1.53   1
   0  -5   4   14.09    1.56   1
   0  -5   4   12.95    1.51   1
   0  -5   4   19.27    2.01   1
   0  -5   4   19.91    1.96   1
  -1   5  -4   35.25    2.46   1
  -1   5  -4   34.21    2.39   1
  -1   5  -4   41.04    2.93   1
   1  -5   4   33.65    4.19   1
   1  -5   4   34.55    2.05   1
   1  -5   4   31.03    2.10   1
   1  -5   4   40.95    2.17   1
   1  -5   4   38.08    3.25   1
   1  -5   4   33.61    1.91   1
   1  -5   4   37.80    2.21   1
   1  -5   4   36.99    2.14   1
  -2   5  -4    3.36    2.73   1
  -2   5  -4    0.97    1.22   1
   2  -5   4    1.64    1.15   1
   2  -5   4   -0.34    1.37   1
   2  -5   4    1.93    0.31   1
   2  -5   4    0.53    1.37   1
   2  -5   4    2.42    0.37   1
   2  -5   4    0.25    1.40   1
   2  -5   4    1.68    0.84   1
   2  -5   4   -0.47    1.41   1
   2  -5   4    2.14    0.25   1
  -3   5  -4  202.53    6.06   1
  -3   5  -4  187.73   10.79   1
   3  -5   4  195.27    6.44   1
   3  -5   4  190.21    5.97   1
   3  -5   4  178.34    8.26   1
   3  -5   4  195.94    4.94   1
   3  -5   4  194.80    6.75   1
  -4   5  -4   50.89    4.20   1
  -4   5  -4   54.89    2.76   1
   4  -5   4   53.62    3.07   1
   4  -5   4   49.14    3.10   1
   4  -5   4   49.52    3.23   1
   4  -5   4   46.58    3.23   1
   4  -5   4   47.20    2.94   1
  -5   5  -4   -3.22    5.05   1
  -5   5  -4    2.24    1.32   1
   5  -5   4    3.02    2.54   1
   5  -5   4    2.26    2.47   1
   5  -5   4    1.92    2.60   1
   5  -5   4    2.88    2.57   1
  -6   5  -4   -1.08    1.27   1
  -6   5  -4    2.80    3.71   1
   6  -5   4    0.06    2.30   1
   6  -5   4    2.07    2.46   1
   6  -5   4    1.38    2.48   1
   6  -5   4    0.00    2.26   1
  -7   5  -4   26.35    4.71   1
   7  -5   4   32.53    4.05   1
   7  -5   4   35.25    4.25   1
   8  -5   4    2.09    3.97   1
   6   4  -4   21.64    3.22   1
   6   4  -4   25.69    4.12   1
  -6  -4   4   11.47    4.68   1
   5   4  -4    4.21    3.46   1
   5   4  -4    1.84    3.24   1
  -5  -4   4    0.65    3.98   1
   4   4  -4   33.47    2.81   1
   4   4  -4   33.68    3.16   1
  -4  -4   4   28.21    2.06   1
  -4  -4   4   35.97    3.16   1
  -4  -4   4   30.21    1.92   1
   3   4  -4   58.91    3.33   1
   3   4  -4   60.39    3.44   1
  -3  -4   4   56.74    2.28   1
  -3  -4   4   53.52    2.23   1
  -3  -4   4   54.61    3.44   1
   2   4  -4   19.02    1.98   1
  -2  -4   4   13.57    1.29   1
  -2  -4   4   18.89    2.13   1
  -2  -4   4   18.79    1.44   1
   1   4  -4    0.23    0.52   1
   1   4  -4    1.39    1.67   1
   1   4  -4    1.12    1.20   1
   1   4  -4    0.61    1.14   1
  -1  -4   4   -0.08    1.11   1
  -1  -4   4    0.76    1.14   1
  -1  -4   4    0.24    1.60   1
  -1  -4   4    2.18    1.67   1
  -1  -4   4    1.41    1.28   1
   0   4  -4   50.79    2.89   1
   0   4  -4   52.42    2.13   1
   0   4  -4   53.38    2.45   1
   0   4  -4   51.64    2.11   1
   0   4  -4   57.26    2.67   1
   0   4  -4   50.92    2.59   1
   0  -4   4   55.71    2.87   1
   0  -4   4   56.70    5.52   1
   0  -4   4   53.38    4.87   1
   0  -4   4   57.89    2.30   1
   0  -4   4   57.30    2.41   1
   0  -4   4   54.60    2.28   1
  -1   4  -4   92.95    2.91   1
  -1   4  -4   89.59    3.49   1
  -1   4  -4   88.63    3.36   1
  -1   4  -4   94.71    3.66   1
  -1   4  -4   97.66    3.25   1
   1  -4   4   93.49    3.72   1
   1  -4   4   90.37    4.60   1
   1  -4   4   95.38    3.84   1
   1  -4   4   92.64    3.08   1
   1  -4   4   94.47    2.80   1
   1  -4   4   90.39    3.01   1
   1  -4   4   90.89    2.78   1
   1  -4   4   98.48    3.70   1
  -2   4  -4 1309.95   69.85   1
  -2   4  -4 1285.94   53.54   1
  -2   4  -4 1362.19   85.89   1
   2  -4   4 1346.98   35.00   1
   2  -4   4 1231.12   23.45   1
   2  -4   4 1328.17   39.49   1
   2  -4   4 1198.92   60.97   1
   2  -4   4 1331.71   39.42   1
   2  -4   4 1357.87   38.14   1
  -3   4  -4   -0.64    1.52   1
  -3   4  -4    0.54    0.66   1
  -3   4  -4   -0.64    0.81   1
   3  -4   4   -0.57    1.13   1
   3  -4   4   -0.26    1.47   1
   3  -4   4    0.80    1.14   1
   3  -4   4    2.70    0.99   1
   3  -4   4    0.99    1.53   1
  -4   4  -4    3.36    1.44   1
  -4   4  -4    6.04    1.71   1
  -4   4  -4    6.19    0.50   1
  -4   4  -4    7.22    2.57   1
   4  -4   4    5.98    2.42   1
   4  -4   4    8.05    1.88   1
   4  -4   4    3.45    2.24   1
   4  -4   4    5.45    1.24   1
   4  -4   4    4.89    1.77   1
  -5   4  -4   29.29    2.17   1
  -5   4  -4   36.13    3.63   1
   5  -4   4   39.19    3.01   1
   5  -4   4   37.29    3.13   1
   5  -4   4   32.77    2.90   1
   5  -4   4   38.16    3.10   1
  -6   4  -4    4.27    3.45   1
  -6   4  -4    2.74    1.59   1
   6  -4   4    3.27    2.33   1
   6  -4   4    4.62    2.47   1
   6  -4   4    2.53    2.24   1
   6  -4   4    6.34    2.50   1
  -7   4  -4   25.31    4.10   1
  -7   4  -4   23.93    2.26   1
  -7   4  -4   22.96    2.83   1
   7  -4   4   25.84    3.04   1
   7  -4   4   27.88    3.11   1
  -8   4  -4   -1.83    4.69   1
   8  -4   4    7.88    3.51   1
   8  -4   4    5.86    3.29   1
  -7  -3   4    0.06    4.84   1
   6   3  -4    3.47    2.36   1
   6   3  -4    3.01    2.36   1
  -6  -3   4    0.21    2.90   1
   5   3  -4    2.93    2.53   1
   5   3  -4    0.88    2.36   1
   5   3  -4    2.73    3.44   1
  -5  -3   4   -0.51    3.74   1
   4   3  -4    8.43    1.89   1
   4   3  -4    6.18    2.69   1
   4   3  -4   11.84    2.57   1
  -4  -3   4    9.15    3.00   1
  -4  -3   4    6.69    1.37   1
  -4  -3   4    7.21    1.37   1
   3   3  -4   62.61    3.28   1
   3   3  -4   69.27    3.45   1
   3   3  -4   66.93    2.85   1
  -3  -3   4   62.83    2.29   1
  -3  -3   4   63.33    3.86   1
  -3  -3   4   67.34    3.49   1
  -3  -3   4   63.52    2.31   1
   2   3  -4   29.95    2.24   1
   2   3  -4   34.86    1.97   1
  -2  -3   4   36.10    2.61   1
  -2  -3   4   36.26    2.31   1
  -2  -3   4   35.26    2.47   1
  -2  -3   4   30.18    1.67   1
  -2  -3   4   34.46    1.72   1
  -2  -3   4   32.02    2.72   1
   1   3  -4   43.38    2.19   1
   1   3  -4   39.51    2.24   1
   1   3  -4   38.75    2.35   1
   1   3  -4   40.48    1.90   1
  -1  -3   4   41.44    2.06   1
  -1  -3   4   40.71    2.04   1
  -1  -3   4   37.73    4.41   1
  -1  -3   4   40.67    2.10   1
  -1  -3   4   41.63    3.02   1
  -1  -3   4   40.28    2.06   1
   0   3  -4  157.02    6.29   1
   0   3  -4  159.94    7.53   1
   0   3  -4  155.19    6.12   1
   0   3  -4  162.31    3.12   1
   0   3  -4  157.72    4.53   1
   0   3  -4  150.12    6.48   1
   0   3  -4  151.95    3.10   1
   0  -3   4  156.39    7.08   1
   0  -3   4  161.88    9.50   1
   0  -3   4  156.90    7.40   1
   0  -3   4  168.29    4.55   1
   0  -3   4  161.65    4.85   1
   0  -3   4  156.56    5.79   1
  -1   3  -4   -0.12    0.72   1
  -1   3  -4    0.15    0.62   1
  -1   3  -4   -0.74    1.21   1
  -1   3  -4    0.00    0.72   1
  -1   3  -4    0.34    0.88   1
   1  -3   4    0.15    0.25   1
   1  -3   4    0.37    0.72   1
   1  -3   4    0.30    0.52   1
   1  -3   4   -0.34    0.71   1
   1  -3   4   -0.62    0.95   1
   1  -3   4    0.05    1.03   1
   1  -3   4   -0.07    0.49   1
   1  -3   4    0.00    0.25   1
  -2   3  -4   24.07    1.51   1
  -2   3  -4   29.44    2.10   1
  -2   3  -4   27.97    1.46   1
  -2   3  -4   27.33    1.60   1
  -2   3  -4   28.93    1.37   1
   2  -3   4   27.97    1.57   1
   2  -3   4   28.80    1.35   1
   2  -3   4   28.89    1.64   1
   2  -3   4   28.78    1.37   1
   2  -3   4   24.97    1.60   1
   2  -3   4   29.01    1.64   1
  -3   3  -4  420.07   18.01   1
  -3   3  -4  425.99   13.36   1
  -3   3  -4  415.53   12.15   1
  -3   3  -4  450.78   13.15   1
  -3   3  -4  421.63   18.54   1
  -3   3  -4  423.41   35.34   1
  -3   3  -4  421.59   25.94   1
  -3   3  -4  416.38   23.40   1
  -3   3  -4  416.70   19.05   1
  -3   3  -4  423.96   31.03   1
   3  -3   4  425.57   11.36   1
   3  -3   4  395.74   13.27   1
   3  -3   4  406.35    8.65   1
   3  -3   4  414.70    8.65   1
   3  -3   4  406.49   10.80   1
  -4   3  -4   10.99    1.25   1
  -4   3  -4   10.51    0.99   1
  -4   3  -4   10.84    2.87   1
  -4   3  -4    9.21    1.48   1
  -4   3  -4    9.32    1.12   1
   4  -3   4    9.88    2.01   1
   4  -3   4   10.54    1.43   1
   4  -3   4   12.34    2.06   1
   4  -3   4   13.67    1.73   1
   4  -3   4   10.74    1.65   1
  -5   3  -4  117.95    6.09   1
  -5   3  -4  121.71    6.17   1
  -5   3  -4  128.97    6.75   1
  -5   3  -4  117.82    5.67   1
  -5   3  -4  119.29    6.44   1
   5  -3   4  127.90    4.80   1
   5  -3   4  132.97    4.63   1
   5  -3   4  124.17    4.09   1
   5  -3   4  114.41    4.61   1
  -6   3  -4    1.02    4.38   1
  -6   3  -4   -0.77    1.57   1
  -6   3  -4   -1.76    2.58   1
   6  -3   4    2.06    2.10   1
   6  -3   4    2.56    2.10   1
  -7   3  -4    1.95    5.21   1
  -7   3  -4    0.33    1.95   1
  -7   3  -4   -1.35    2.13   1
   7  -3   4    2.55    3.51   1
   7  -3   4   -0.69    3.51   1
  -8   3  -4   -1.14    6.90   1
  -8   3  -4    0.91    2.77   1
   8  -3   4    2.57    3.26   1
   8  -3   4    2.87    3.26   1
   7   2  -4   66.43    4.19   1
  -7  -2   4   53.11    4.61   1
   6   2  -4    1.41    2.78   1
   6   2  -4    2.85    2.82   1
   6   2  -4    6.66    3.67   1
  -6  -2   4    4.88    4.46   1
   5   2  -4  319.64   16.12   1
   5   2  -4  304.67   11.56   1
   5   2  -4  323.19   10.88   1
  -5  -2   4  327.39   32.72   1
  -5  -2   4  345.14   13.91   1
   4   2  -4   60.59    2.65   1
   4   2  -4   67.14    2.95   1
   4   2  -4   64.85    3.77   1
  -4  -2   4   68.44    3.13   1
  -4  -2   4   65.21    4.29   1
  -4  -2   4   61.40    3.54   1
   3   2  -4   48.97    2.12   1
   3   2  -4   44.13    3.09   1
   3   2  -4   45.00    2.15   1
  -3  -2   4   48.99    2.65   1
  -3  -2   4   51.42    1.77   1
  -3  -2   4   49.08    1.88   1
  -3  -2   4   53.85    3.13   1
   2   2  -4  545.30   21.34   1
   2   2  -4  545.94   25.05   1
   2   2  -4  498.27   15.68   1
  -2  -2   4  520.51   16.28   1
  -2  -2   4  572.07   28.84   1
  -2  -2   4  555.89   32.78   1
  -2  -2   4  557.69   15.83   1
  -2  -2   4  557.96   18.65   1
   1   2  -4    6.80    1.47   1
   1   2  -4    7.75    0.90   1
   1   2  -4    6.10    1.22   1
   1   2  -4    8.25    0.55   1
   1   2  -4    5.44    1.39   1
   1   2  -4    8.22    1.30   1
  -1  -2   4    7.79    1.13   1
  -1  -2   4    7.99    1.39   1
  -1  -2   4    7.78    0.93   1
  -1  -2   4    5.82    0.84   1
  -1  -2   4    6.43    1.04   1
  -1  -2   4    9.81    1.25   1
   0   2  -4   37.19    2.00   1
   0   2  -4   38.26    1.56   1
   0   2  -4   37.90    1.34   1
   0   2  -4   36.44    1.91   1
   0   2  -4   36.34    1.82   1
   0   2  -4   37.17    1.52   1
   0  -2   4   38.24    2.20   1
   0  -2   4   38.08    1.45   1
   0  -2   4   40.83    1.91   1
   0  -2   4   35.73    2.25   1
   0  -2   4   37.57    1.72   1
   0  -2   4   36.96    1.54   1
  -1   2  -4   11.95    0.88   1
  -1   2  -4   10.51    0.66   1
  -1   2  -4   12.18    0.74   1
  -1   2  -4    9.49    1.18   1
  -1   2  -4    9.24    1.21   1
  -1   2  -4   11.94    0.96   1
   1  -2   4   10.69    1.01   1
   1  -2   4   10.46    1.02   1
   1  -2   4   11.97    1.02   1
   1  -2   4   13.27    0.79   1
   1  -2   4   11.01    0.99   1
   1  -2   4   13.04    0.88   1
   1  -2   4   12.55    1.04   1
  -2   2  -4    1.05    0.93   1
  -2   2  -4    0.99    0.90   1
  -2   2  -4    0.43    1.42   1
  -2   2  -4    0.53    0.96   1
  -2   2  -4    1.62    0.53   1
  -2   2  -4    1.05    0.47   1
  -2   2  -4    1.05    0.93   1
  -2   2  -4    0.65    0.90   1
   2  -2   4    1.39    1.14   1
   2  -2   4    1.08    1.18   1
   2  -2   4    1.30    1.12   1
   2  -2   4    0.99    1.08   1
   2  -2   4    1.12    0.68   1
  -3   2  -4   40.07    1.86   1
  -3   2  -4   33.85    1.72   1
  -3   2  -4   40.30    1.56   1
  -3   2  -4   41.43    1.63   1
  -3   2  -4   39.00    1.84   1
  -3   2  -4   37.16    1.86   1
  -3   2  -4   34.32    1.70   1
  -3   2  -4   42.74    1.82   1
  -3   2  -4   36.09    2.22   1
   3  -2   4   39.29    1.95   1
   3  -2   4   39.33    1.93   1
   3  -2   4   39.17    1.84   1
   3  -2   4   38.52    2.02   1
   3  -2   4   37.89    1.95   1
  -4   2  -4   46.66    2.24   1
  -4   2  -4   44.52    2.24   1
  -4   2  -4   42.21    2.11   1
  -4   2  -4   39.92    2.42   1
  -4   2  -4   42.69    2.55   1
  -4   2  -4   41.28    2.13   1
  -4   2  -4   38.15    2.42   1
   4  -2   4   44.90    2.20   1
   4  -2   4   44.94    2.13   1
   4  -2   4   46.26    3.15   1
   4  -2   4   47.12    2.26   1
   4  -2   4   48.79    2.24   1
  -5   2  -4   -0.81    1.32   1
  -5   2  -4   -0.23    1.73   1
  -5   2  -4    0.45    2.04   1
  -5   2  -4   -0.14    1.30   1
  -5   2  -4    0.29    1.47   1
   5  -2   4    0.16    1.25   1
   5  -2   4   -0.55    1.23   1
   5  -2   4    0.90    1.44   1
   5  -2   4   -1.24    1.24   1
  -6   2  -4   73.06    4.64   1
  -6   2  -4   76.31    4.86   1
  -6   2  -4   76.77    4.49   1
   6  -2   4   88.41    3.78   1
   6  -2   4   82.08    3.71   1
  -7   2  -4   20.33    3.60   1
  -7   2  -4   17.40    3.06   1
  -7   2  -4   19.22    2.56   1
   7  -2   4   25.73    3.32   1
  -8   2  -4    3.52    3.83   1
  -8   2  -4    3.23    3.83   1
   8  -2   4    7.13    2.87   1
   8  -2   4   12.12    3.15   1
  -8  -1   4   -0.68    4.40   1
  -8  -1   4   -2.20    4.16   1
   7   1  -4    1.36    1.58   1
   7   1  -4   -0.69    2.84   1
  -7  -1   4    1.97    3.45   1
   6   1  -4    2.17    2.73   1
   6   1  -4    6.99    2.23   1
  -6  -1   4    2.79    1.30   1
  -6  -1   4    4.91    2.68   1
   5   1  -4    5.47    3.11   1
   5   1  -4    9.19    1.49   1
   5   1  -4    9.99    1.57   1
  -5  -1   4    8.94    2.97   1
  -5  -1   4    7.51    1.65   1
   4   1  -4   80.76    3.53   1
   4   1  -4   82.60    2.99   1
   4   1  -4   86.73    3.94   1
  -4  -1   4   82.45    3.38   1
  -4  -1   4   82.61    2.86   1
  -4  -1   4   84.99    3.44   1
  -4  -1   4   91.65    3.79   1
  -4  -1   4   83.20    4.34   1
   3   1  -4    0.00    1.59   1
   3   1  -4    0.39    1.23   1
   3   1  -4   -0.50    0.53   1
   3   1  -4   -0.43    0.98   1
   3   1  -4    0.05    0.48   1
  -3  -1   4   -0.31    0.98   1
  -3  -1   4   -0.39    0.99   1
  -3  -1   4    0.09    0.96   1
  -3  -1   4    0.17    0.80   1
  -3  -1   4    1.04    1.06   1
  -3  -1   4   -0.03    0.38   1
   2   1  -4   37.39    1.40   1
   2   1  -4   36.42    1.22   1
   2   1  -4   34.64    2.87   1
   2   1  -4   35.99    3.28   1
   2   1  -4   35.83    2.10   1
   2   1  -4   38.09    1.42   1
  -2  -1   4   39.64    1.96   1
  -2  -1   4   38.83    1.33   1
  -2  -1   4   36.41    1.96   1
  -2  -1   4   35.35    2.66   1
  -2  -1   4   41.56    1.99   1
  -2  -1   4   38.56    1.90   1
   1   1  -4   27.71    1.14   1
   1   1  -4   27.08    1.55   1
   1   1  -4   28.86    1.41   1
   1   1  -4   27.56    1.37   1
   1   1  -4   27.89    1.09   1
   1   1  -4   26.61    1.48   1
  -1  -1   4   28.44    1.34   1
  -1  -1   4   29.19    2.32   1
  -1  -1   4   31.46    1.44   1
  -1  -1   4   27.16    1.44   1
  -1  -1   4   27.43    2.11   1
   1   1  -4   27.16    4.05   1
   1   1  -4   15.41    4.37   1
  -1  -1   4   23.99    3.88   1
  -1  -1   4   24.31    4.11   1
   0   1  -4 1520.56   47.37   1
   0   1  -4 1547.22   57.64   1
   0   1  -4 1493.19   43.54   1
   0   1  -4 1574.92   33.99   1
   0   1  -4 1577.05   37.48   1
   0   1  -4 1558.47   50.38   1
   0   1  -4 1580.12   46.73   1
   0  -1   4 1535.25   55.65   1
   0  -1   4 1463.55   43.79   1
   0  -1   4 1463.41   29.09   1
   0  -1   4 1473.01   54.04   1
   0  -1   4 1527.59   55.70   1
   0   1  -4 1547.39   97.32   1
   0   1  -4 1643.26   89.21   1
   0  -1   4 1664.82   96.99   1
   0  -1   4 1557.45   93.12   1
  -1   1  -4   93.87    4.10   1
  -1   1  -4   98.10    3.79   1
  -1   1  -4   99.68    3.14   1
  -1   1  -4   97.84    2.76   1
  -1   1  -4   94.53    3.06   1
  -1   1  -4   95.73    2.93   1
   1  -1   4   98.68    3.48   1
   1  -1   4   94.44    2.39   1
   1  -1   4   90.70    4.68   1
   1  -1   4   91.32    3.83   1
   1  -1   4   96.63    2.37   1
  -1   1  -4   91.98    7.66   1
  -1   1  -4   93.63    7.11   1
   1  -1   4   92.39    6.97   1
  -2   1  -4  291.35    6.71   1
  -2   1  -4  287.71    8.07   1
  -2   1  -4  287.50   28.72   1
  -2   1  -4  282.19   27.55   1
  -2   1  -4  287.92    6.04   1
   2  -1   4  285.74   16.82   1
   2  -1   4  283.72    6.30   1
   2  -1   4  276.60    9.14   1
   2  -1   4  274.91    9.24   1
   2  -1   4  276.47    6.57   1
   2  -1   4  280.15    9.60   1
  -3   1  -4   80.08    3.08   1
  -3   1  -4   81.13    2.55   1
  -3   1  -4   83.27    5.73   1
  -3   1  -4   82.17    3.95   1
  -3   1  -4   76.40    3.42   1
  -3   1  -4   77.14    2.56   1
  -3   1  -4   81.94    2.50   1
  -3   1  -4   78.49    2.67   1
  -3   1  -4   75.50    3.29   1
   3  -1   4   78.28    2.16   1
   3  -1   4   76.96    2.22   1
   3  -1   4   79.52    2.67   1
   3  -1   4   75.50    5.02   1
   3  -1   4   76.59    2.18   1
   3  -1   4   77.54    2.25   1
  -4   1  -4  266.31   10.60   1
  -4   1  -4  255.73   10.62   1
  -4   1  -4  260.47    9.70   1
  -4   1  -4  258.02    7.83   1
  -4   1  -4  264.92    8.63   1
  -4   1  -4  252.25   10.07   1
  -4   1  -4  255.68   10.08   1
   4  -1   4  244.57    9.17   1
   4  -1   4  246.99    8.49   1
   4  -1   4  245.69    9.51   1
   4  -1   4  245.30    5.14   1
   4  -1   4  243.38    5.48   1
  -5   1  -4  106.11    4.50   1
  -5   1  -4  111.21    4.45   1
   5  -1   4  115.96    3.34   1
   5  -1   4  112.15    4.47   1
   5  -1   4  111.42    3.29   1
  -6   1  -4   13.56    2.28   1
  -6   1  -4   10.15    1.91   1
  -6   1  -4   10.03    2.73   1
   6  -1   4   14.69    2.92   1
   6  -1   4   18.23    2.21   1
  -7   1  -4    1.37    3.42   1
  -7   1  -4    0.25    3.66   1
  -7   1  -4    1.09    2.23   1
   7  -1   4    2.14    2.17   1
   7  -1   4    1.21    2.61   1
   7  -1   4    1.18    2.24   1
  -8   1  -4   -0.98    4.95   1
  -8   1  -4    3.93    4.36   1
   8   0  -4   12.01    4.04   1
  -8   0   4   10.15    5.23   1
   7   0  -4    3.35    6.26   1
   7   0  -4    1.91    1.81   1
  -7   0   4    1.19    2.69   1
  -7   0   4    0.75    4.32   1
   6   0  -4    6.82    1.73   1
   6   0  -4    3.55    3.88   1
  -6   0   4    1.34    2.58   1
  -6   0   4    4.96    2.54   1
   5   0  -4  115.25    6.34   1
   5   0  -4  112.92    5.62   1
  -5   0   4  116.48    4.27   1
  -5   0   4  116.87    4.95   1
  -5   0   4  116.98    5.44   1
  -5   0   4  112.24    7.67   1
   4   0  -4    1.07    0.92   1
   4   0  -4    0.40    1.55   1
   4   0  -4    1.78    1.10   1
   4   0  -4    1.90    2.19   1
  -4   0   4    0.77    1.09   1
  -4   0   4   -0.32    1.24   1
  -4   0   4    0.26    1.32   1
  -4   0   4    0.92    0.81   1
  -4   0   4    0.20    0.92   1
  -4   0   4    0.40    1.27   1
   3   0  -4  211.80    5.84   1
   3   0  -4  225.59   12.60   1
   3   0  -4  212.14    5.14   1
   3   0  -4  226.12    7.95   1
  -3   0   4  228.18    5.81   1
  -3   0   4  228.83    7.08   1
  -3   0   4  222.64    9.74   1
  -3   0   4  228.03    8.41   1
  -3   0   4  233.86   10.10   1
  -3   0   4  223.38    6.42   1
  -3   0   4  219.83    6.54   1
  -3   0   4  231.27    6.21   1
  -3   0   4  223.73    6.78   1
   2   0  -4   66.36    2.16   1
   2   0  -4   63.43    1.88   1
   2   0  -4   65.42    2.74   1
   2   0  -4   63.93    2.68   1
  -2   0   4   65.09    2.55   1
  -2   0   4   63.10    3.30   1
  -2   0   4   63.06    2.76   1
  -2   0   4   65.03    2.39   1
  -2   0   4   69.08    2.50   1
  -2   0   4   61.68    2.29   1
  -2   0   4   58.64    4.06   1
   1   0  -4  107.74    3.32   1
   1   0  -4   93.99    3.06   1
   1   0  -4   98.59    3.49   1
   1   0  -4   93.48    3.40   1
   1   0  -4   96.95    2.93   1
   1   0  -4  105.05    4.50   1
  -1   0   4  101.90    2.93   1
  -1   0   4  100.97    3.34   1
  -1   0   4   99.04    4.47   1
  -1   0   4  101.47    4.19   1
   1   0  -4  105.86    7.38   1
   1   0  -4  102.01    7.27   1
  -1   0   4   91.82    8.04   1
  -1   0   4  100.86    7.31   1
   0   0  -4  275.10   11.23   1
   0   0  -4  277.11   11.05   1
   0   0  -4  280.63    7.55   1
   0   0  -4  278.15    7.11   1
   0   0  -4  275.76    6.64   1
   0   0   4  280.10   10.16   1
   0   0   4  284.87   12.90   1
   0   0   4  269.98   17.81   1
   0   0   4  284.19   13.69   1
   0   0   4  283.15    9.24   1
   0   0  -4  303.92   17.17   1
   0   0  -4  288.59   18.76   1
   0   0   4  281.74   18.62   1
   0   0   4  293.65   17.93   1
  -1   0  -4  333.46   13.39   1
  -1   0  -4  334.60   16.00   1
  -1   0  -4  342.76    6.74   1
  -1   0  -4  333.46   12.82   1
  -1   0  -4  324.67   10.20   1
  -1   0  -4  355.44    6.82   1
  -1   0  -4  338.75   11.41   1
   1   0   4  325.59    8.10   1
   1   0   4  338.47   15.18   1
   1   0   4  330.54    8.97   1
   1   0   4  327.22    8.46   1
   1   0   4  325.10   11.78   1
   1   0   4  321.33   13.44   1
  -1   0  -4  346.84   23.14   1
  -1   0  -4  353.60   22.81   1
   1   0   4  347.99   19.99   1
  -2   0  -4    4.86    0.67   1
  -2   0  -4    4.92    1.28   1
  -2   0  -4    4.25    1.25   1
  -2   0  -4    5.37    0.64   1
  -2   0  -4    4.76    0.67   1
  -2   0  -4    3.86    1.05   1
   2   0   4    3.64    1.15   1
   2   0   4    6.23    0.70   1
   2   0   4    5.72    0.67   1
   2   0   4    4.25    1.50   1
   2   0   4    5.46    0.73   1
   2   0   4    5.50    0.64   1
   2   0   4    5.35    0.67   1
   2   0   4    5.14    1.21   1
  -3   0  -4   39.67    1.58   1
  -3   0  -4   38.86    1.40   1
  -3   0  -4   39.74    1.47   1
  -3   0  -4   35.98    3.29   1
  -3   0  -4   37.07    2.47   1
  -3   0  -4   37.29    1.45   1
  -3   0  -4   39.27    2.09   1
  -3   0  -4   37.47    3.20   1
  -3   0  -4   37.71    1.53   1
   3   0   4   39.67    1.51   1
   3   0   4   39.92    1.71   1
   3   0   4   38.28    2.25   1
   3   0   4   39.75    1.47   1
   3   0   4   39.48    2.31   1
   3   0   4   41.50    1.73   1
  -4   0  -4   15.90    1.24   1
  -4   0  -4   13.73    1.44   1
  -4   0  -4   13.89    1.22   1
  -4   0  -4   11.46    1.51   1
  -4   0  -4   14.21    1.80   1
  -4   0  -4   13.90    1.41   1
   4   0   4   13.00    1.39   1
   4   0   4   13.47    1.95   1
   4   0   4   17.00    1.46   1
  -5   0  -4  224.90   14.46   1
  -5   0  -4  230.60   10.97   1
  -5   0  -4  234.03   10.97   1
  -5   0  -4  232.54    9.69   1
  -5   0  -4  218.31   11.96   1
  -5   0  -4  233.87   14.78   1
   5   0   4  220.57    6.08   1
   5   0   4  234.15    9.10   1
   5   0   4  218.06    6.27   1
  -6   0  -4   52.98    3.44   1
  -6   0  -4   57.49    3.66   1
   6   0   4   55.56    4.02   1
  -7   0  -4    1.54    3.30   1
  -7   0  -4    1.25    3.07   1
   7   0   4    0.13    3.98   1
  -8   0  -4    1.20    5.52   1
   8   0   4    5.54    5.06   1
   8  -1  -4    1.42    3.59   1
  -8   1   4    3.49    4.02   1
  -8   1   4    2.88    3.80   1
   7  -1  -4   61.54    4.17   1
  -7   1   4   53.08    4.17   1
  -7   1   4   53.21    3.93   1
  -7   1   4   52.47    3.65   1
   6  -1  -4    6.70    3.84   1
  -6   1   4    2.76    3.51   1
  -6   1   4    2.15    1.92   1
  -6   1   4    3.03    2.15   1
   5  -1  -4   95.64    4.14   1
   5  -1  -4  101.11    4.32   1
  -5   1   4   95.37    5.15   1
  -5   1   4   94.48    4.15   1
  -5   1   4  102.68    4.54   1
  -5   1   4  107.34    4.82   1
   4  -1  -4  279.97    8.94   1
   4  -1  -4  283.32    8.37   1
   4  -1  -4  298.03   10.24   1
  -4   1   4  306.00    9.09   1
  -4   1   4  290.32    9.67   1
  -4   1   4  291.17   11.33   1
  -4   1   4  297.55   14.90   1
  -4   1   4  288.93   11.75   1
  -4   1   4  295.56   12.98   1
   3  -1  -4   35.01    2.11   1
   3  -1  -4   31.90    1.85   1
   3  -1  -4   34.98    2.22   1
  -3   1   4   34.04    2.08   1
  -3   1   4   32.72    1.97   1
  -3   1   4   35.20    1.55   1
  -3   1   4   32.94    1.90   1
  -3   1   4   32.69    2.13   1
  -3   1   4   28.61    2.11   1
  -3   1   4   35.12    1.37   1
   2  -1  -4  232.29    9.27   1
   2  -1  -4  233.22    6.71   1
   2  -1  -4  221.66   12.16   1
  -2   1   4  228.46   10.71   1
  -2   1   4  237.28   12.24   1
  -2   1   4  234.40    5.32   1
  -2   1   4  231.81    7.11   1
  -2   1   4  233.56    7.53   1
  -2   1   4  229.53    8.24   1
   1  -1  -4    8.00    0.87   1
   1  -1  -4    9.85    0.56   1
   1  -1  -4    8.42    0.61   1
   1  -1  -4   10.44    0.85   1
  -1   1   4   11.26    0.98   1
  -1   1   4   10.01    0.61   1
  -1   1   4    9.89    0.88   1
  -1   1   4   11.31    1.01   1
  -1   1   4    8.93    0.93   1
  -1   1   4    8.40    0.66   1
   1  -1  -4    6.85    3.90   1
   1  -1  -4    7.35    3.31   1
  -1   1   4    4.63    3.12   1
  -1   1   4    7.12    3.95   1
   0  -1  -4    0.32    0.32   1
   0  -1  -4    0.20    0.47   1
   0  -1  -4    0.32    0.52   1
   0  -1  -4    0.47    0.47   1
   0  -1  -4    0.47    0.42   1
   0  -1  -4    0.47    0.32   1
   0   1   4    0.62    0.39   1
   0   1   4    0.73    0.76   1
   0   1   4    0.35    0.74   1
   0   1   4    0.15    0.74   1
   0   1   4    0.71    0.39   1
   0  -1  -4    1.68    2.50   1
   0  -1  -4   -0.22    3.78   1
   0   1   4    2.77    2.60   1
   0   1   4    2.41    3.65   1
  -1  -1  -4  206.89    4.60   1
  -1  -1  -4  201.10    8.18   1
  -1  -1  -4  204.46    7.25   1
  -1  -1  -4  198.98    6.87   1
  -1  -1  -4  211.23    6.29   1
   1   1   4  213.22   11.86   1
   1   1   4  198.26    8.95   1
   1   1   4  194.02    5.61   1
   1   1   4  202.97    7.73   1
   1   1   4  205.96    7.06   1
   1   1   4  218.46   10.59   1
   1   1   4  199.72    5.72   1
  -2  -1  -4  204.62   11.35   1
  -2  -1  -4  204.75    8.84   1
  -2  -1  -4  217.14    5.67   1
  -2  -1  -4  215.12    5.48   1
  -2  -1  -4  203.67    7.64   1
  -2  -1  -4  213.18    7.47   1
  -2  -1  -4  210.20    5.93   1
   2   1   4  204.85    7.47   1
   2   1   4  201.37    5.78   1
   2   1   4  207.07    5.61   1
   2   1   4  191.83    6.93   1
   2   1   4  199.64    7.92   1
   2   1   4  208.13    5.56   1
   2   1   4  202.65    5.14   1
  -3  -1  -4   21.63    0.95   1
  -3  -1  -4   20.69    1.05   1
  -3  -1  -4   16.29    1.76   1
  -3  -1  -4   18.61    1.40   1
  -3  -1  -4   18.16    1.62   1
  -3  -1  -4   19.85    0.88   1
  -3  -1  -4   18.50    1.90   1
  -3  -1  -4   21.79    1.00   1
   3   1   4   20.04    2.05   1
   3   1   4   19.40    1.41   1
   3   1   4   21.11    1.05   1
   3   1   4   21.28    1.12   1
   3   1   4   16.55    1.86   1
  -4  -1  -4  112.51    3.85   1
  -4  -1  -4  115.83    3.49   1
  -4  -1  -4  110.42    4.59   1
  -4  -1  -4  115.53    3.90   1
  -4  -1  -4  118.92    5.25   1
  -4  -1  -4  116.02    5.46   1
  -4  -1  -4  120.67    4.42   1
   4   1   4  105.19    4.80   1
   4   1   4  106.47    4.95   1
   4   1   4  116.43    4.42   1
  -5  -1  -4   39.32    2.83   1
  -5  -1  -4   37.25    2.99   1
   5   1   4   44.67    3.45   1
   5   1   4   43.27    3.25   1
  -6  -1  -4    4.80    2.14   1
  -6  -1  -4    6.94    2.77   1
   6   1   4    8.40    2.86   1
  -7  -1  -4    1.03    5.10   1
   7   1   4    0.89    2.93   1
   8  -2  -4    4.03    3.83   1
  -8   2   4    2.59    4.06   1
  -8   2   4    3.56    3.72   1
   7  -2  -4   57.71    4.41   1
  -7   2   4   55.43    4.26   1
  -7   2   4   48.64    3.80   1
   6  -2  -4    2.25    2.42   1
   6  -2  -4    1.25    3.47   1
  -6   2   4    1.67    2.00   1
  -6   2   4    0.95    3.28   1
  -6   2   4    0.52    2.55   1
   5  -2  -4   57.33    3.05   1
   5  -2  -4   55.68    3.01   1
  -5   2   4   52.10    4.59   1
  -5   2   4   50.70    2.51   1
  -5   2   4   54.87    3.80   1
  -5   2   4   50.87    3.16   1
   4  -2  -4    5.29    1.57   1
   4  -2  -4    6.66    2.02   1
  -4   2   4    5.17    1.07   1
  -4   2   4    3.48    1.13   1
  -4   2   4    5.14    2.32   1
  -4   2   4    4.46    1.40   1
  -4   2   4    6.26    1.42   1
   3  -2  -4   27.02    1.66   1
   3  -2  -4   24.93    1.78   1
   3  -2  -4   22.71    1.90   1
   3  -2  -4   28.84    1.70   1
   3  -2  -4   23.66    1.73   1
  -3   2   4   23.38    1.80   1
  -3   2   4   27.17    1.73   1
  -3   2   4   28.85    1.99   1
  -3   2   4   27.13    1.21   1
  -3   2   4   25.54    1.75   1
   2  -2  -4  394.33    8.59   1
   2  -2  -4  391.67    9.72   1
   2  -2  -4  406.38    9.66   1
   2  -2  -4  395.36   13.44   1
  -2   2   4  409.26   11.60   1
  -2   2   4  395.15    8.27   1
  -2   2   4  400.76    7.99   1
  -2   2   4  404.57    8.27   1
  -2   2   4  407.82   15.72   1
  -2   2   4  394.59   19.53   1
   1  -2  -4   36.41    1.37   1
   1  -2  -4   35.18    1.40   1
   1  -2  -4   35.90    2.18   1
   1  -2  -4   35.93    1.42   1
   1  -2  -4   36.16    2.32   1
   1  -2  -4   34.99    1.91   1
  -1   2   4   40.35    1.67   1
  -1   2   4   39.48    1.96   1
  -1   2   4   36.12    1.65   1
  -1   2   4   35.02    1.35   1
  -1   2   4   35.64    2.91   1
  -1   2   4   41.61    1.91   1
   0  -2  -4  191.18    7.42   1
   0  -2  -4  197.04    4.55   1
   0  -2  -4  191.84    6.93   1
   0  -2  -4  190.07    8.56   1
   0   2   4  200.94    5.16   1
   0   2   4  205.75    5.63   1
   0   2   4  192.24    7.81   1
   0   2   4  204.72    8.24   1
   0   2   4  195.17    7.13   1
   0   2   4  195.21    7.89   1
   0   2   4  202.24    6.29   1
   0   2   4  195.96    5.54   1
  -1  -2  -4  331.34   11.27   1
  -1  -2  -4  336.54   11.90   1
  -1  -2  -4  337.17   10.54   1
  -1  -2  -4  338.64    9.29   1
   1   2   4  357.30    9.72   1
   1   2   4  346.08    8.59   1
   1   2   4  312.63    9.91   1
   1   2   4  327.03   12.03   1
  -2  -2  -4  183.90   10.57   1
  -2  -2  -4  176.44    4.54   1
  -2  -2  -4  191.17    8.19   1
  -2  -2  -4  180.58    7.11   1
  -2  -2  -4  182.19    6.20   1
   2   2   4  185.06    5.00   1
   2   2   4  174.77    5.44   1
   2   2   4  189.64    8.14   1
  -3  -2  -4  113.37    3.34   1
  -3  -2  -4  111.49    5.40   1
  -3  -2  -4  113.48    4.39   1
   3   2   4  106.19    4.15   1
   3   2   4  112.01    5.38   1
   3   2   4  104.11    4.97   1
  -4  -2  -4    8.98    0.68   1
  -4  -2  -4    5.93    2.61   1
  -4  -2  -4    8.63    2.23   1
  -4  -2  -4    8.95    0.68   1
  -4  -2  -4    4.95    1.91   1
   4   2   4    8.11    2.26   1
   4   2   4    8.84    2.31   1
  -5  -2  -4   28.66    3.56   1
  -5  -2  -4   29.14    2.87   1
   5   2   4   33.15    3.35   1
   5   2   4   30.65    3.24   1
  -6  -2  -4    0.59    3.51   1
  -6  -2  -4    1.02    2.96   1
   6   2   4    0.61    2.90   1
   6   2   4   -0.55    2.80   1
  -7  -2  -4   25.12    3.78   1
   7   2   4   22.93    3.99   1
   8  -3  -4   53.90    4.75   1
  -8   3   4   47.15    5.44   1
  -8   3   4   52.85    4.50   1
  -7   3   4   15.36    3.71   1
  -7   3   4   15.05    3.08   1
   6  -3  -4    6.58    2.57   1
   6  -3  -4    5.74    2.47   1
  -6   3   4    2.60    1.16   1
  -6   3   4    3.08    2.86   1
   5  -3  -4   93.09    4.06   1
   5  -3  -4  102.99    4.02   1
   5  -3  -4  100.77    3.70   1
   5  -3  -4   92.20    4.02   1
  -5   3   4   94.87    3.79   1
  -5   3   4   90.79    5.60   1
  -5   3   4   93.57    4.76   1
  -5   3   4   91.78    5.28   1
   4  -3  -4    3.20    1.49   1
   4  -3  -4    1.87    1.37   1
   4  -3  -4    2.00    1.68   1
   4  -3  -4    1.36    1.68   1
  -4   3   4    1.56    0.44   1
  -4   3   4    0.83    1.81   1
  -4   3   4    1.55    0.44   1
  -4   3   4    0.32    1.15   1
   3  -3  -4  378.73   18.21   1
   3  -3  -4  402.07   11.87   1
   3  -3  -4  400.67   12.11   1
   3  -3  -4  378.05   11.56   1
  -3   3   4  425.67   17.26   1
  -3   3   4  407.89   16.41   1
  -3   3   4  428.09   21.13   1
  -3   3   4  416.23   12.73   1
  -3   3   4  408.73   21.51   1
  -3   3   4  394.98   13.90   1
  -3   3   4  394.98   21.07   1
   2  -3  -4   69.07    3.00   1
   2  -3  -4   78.08    2.85   1
   2  -3  -4   79.40    2.93   1
   2  -3  -4   74.70    2.97   1
  -2   3   4   82.75    2.76   1
  -2   3   4   81.10    2.89   1
  -2   3   4   79.99    2.63   1
  -2   3   4   79.25    2.89   1
  -2   3   4   76.19    2.27   1
  -2   3   4   85.08    4.28   1
  -2   3   4   87.72    3.23   1
  -2   3   4   81.06    3.64   1
   1  -3  -4   23.73    1.33   1
   1  -3  -4   25.94    1.36   1
   1  -3  -4   25.64    1.52   1
   1  -3  -4   29.20    1.63   1
   1  -3  -4   25.96    1.03   1
   1  -3  -4   27.04    1.81   1
  -1   3   4   24.21    1.33   1
  -1   3   4   26.60    1.45   1
  -1   3   4   26.81    1.72   1
  -1   3   4   29.35    1.40   1
  -1   3   4   27.89    1.81   1
  -1   3   4   27.47    1.75   1
  -1   3   4   26.37    1.33   1
   0  -3  -4  634.80   21.42   1
   0  -3  -4  622.26   19.29   1
   0  -3  -4  654.71   18.34   1
   0  -3  -4  649.61   17.34   1
   0  -3  -4  590.03   15.62   1
   0  -3  -4  635.96   16.73   1
   0   3   4  605.32   19.79   1
   0   3   4  629.93   19.64   1
   0   3   4  622.16   17.75   1
   0   3   4  663.06   28.41   1
   0   3   4  616.92   20.88   1
   0   3   4  621.73   18.50   1
   0   3   4  614.97   21.01   1
  -1  -3  -4   95.55    4.41   1
  -1  -3  -4   94.54    4.28   1
  -1  -3  -4   99.02    4.94   1
  -1  -3  -4  102.09    3.66   1
   1   3   4  100.83    2.55   1
   1   3   4   99.96    2.48   1
   1   3   4  102.50    3.36   1
   1   3   4   94.13    3.38   1
   1   3   4  103.48    4.05   1
   1   3   4  107.16    4.27   1
  -2  -3  -4   23.63    1.99   1
  -2  -3  -4   20.42    1.78   1
  -2  -3  -4   26.50    2.18   1
   2   3   4   21.89    2.70   1
   2   3   4   23.81    1.84   1
   2   3   4   23.33    1.66   1
   2   3   4   24.60    2.82   1
  -3  -3  -4   -0.47    1.15   1
  -3  -3  -4    0.47    2.65   1
  -3  -3  -4    0.53    1.34   1
   3   3   4    2.56    2.99   1
   3   3   4    3.94    2.98   1
  -4  -3  -4    0.65    1.48   1
  -4  -3  -4   -0.42    3.03   1
   4   3   4   -0.26    2.05   1
   4   3   4   -0.96    2.15   1
  -5  -3  -4    3.09    2.89   1
  -5  -3  -4    3.53    2.27   1
   5   3   4    8.57    4.16   1
   5   3   4    4.88    4.13   1
  -6  -3  -4   55.76    5.08   1
  -6  -3  -4   55.01    4.35   1
   6   3   4   56.44    5.25   1
   6   3   4   56.75    5.36   1
   8  -4  -4   13.71    3.09   1
  -8   4   4   11.38    3.80   1
  -8   4   4   11.07    3.75   1
   7  -4  -4    9.08    3.03   1
   7  -4  -4    8.14    4.20   1
  -7   4   4    5.71    3.72   1
   6  -4  -4   62.03    4.08   1
   6  -4  -4   59.56    3.62   1
   6  -4  -4   60.20    4.10   1
   6  -4  -4   59.61    3.27   1
  -6   4   4   52.79    3.89   1
   5  -4  -4   11.23    2.33   1
   5  -4  -4   14.01    2.38   1
   5  -4  -4   10.01    2.20   1
   5  -4  -4   10.44    2.31   1
  -5   4   4   11.39    2.60   1
   4  -4  -4   39.07    2.55   1
   4  -4  -4   43.12    2.21   1
   4  -4  -4   42.64    2.91   1
   4  -4  -4   38.36    2.55   1
  -4   4   4   35.90    2.82   1
  -4   4   4   41.64    3.09   1
  -4   4   4   38.33    2.98   1
   3  -4  -4   37.04    2.26   1
   3  -4  -4   35.79    2.19   1
   3  -4  -4   39.31    1.98   1
  -3   4   4   37.69    2.39   1
  -3   4   4   41.08    2.98   1
  -3   4   4   36.58    2.17   1
   2  -4  -4   74.06    2.51   1
   2  -4  -4   75.69    2.59   1
   2  -4  -4   70.43    2.78   1
   2  -4  -4   71.09    1.82   1
   2  -4  -4   73.58    3.28   1
  -2   4   4   74.15    2.72   1
  -2   4   4   77.81    3.53   1
  -2   4   4   76.12    2.81   1
  -2   4   4   77.04    3.81   1
  -2   4   4   71.67    2.70   1
  -2   4   4   74.95    2.98   1
   1  -4  -4   69.05    3.49   1
   1  -4  -4   65.66    4.59   1
   1  -4  -4   64.99    3.06   1
   1  -4  -4   67.70    2.59   1
   1  -4  -4   74.01    4.38   1
   1  -4  -4   62.57    3.32   1
   1  -4  -4   62.72    2.69   1
  -1   4   4   67.63    2.16   1
  -1   4   4   73.34    2.39   1
  -1   4   4   59.74    3.66   1
  -1   4   4   65.17    2.84   1
  -1   4   4   71.74    2.46   1
  -1   4   4   68.94    3.25   1
   0  -4  -4    2.31    2.02   1
   0  -4  -4    4.14    0.85   1
   0  -4  -4    4.74    0.89   1
   0  -4  -4    5.25    1.36   1
   0  -4  -4    5.57    1.33   1
   0   4   4    5.28    0.85   1
   0   4   4    4.40    1.49   1
   0   4   4    7.28    0.89   1
   0   4   4    5.91    0.85   1
   0   4   4    2.69    2.50   1
   0   4   4    5.44    0.85   1
  -1  -4  -4   48.10    2.65   1
  -1  -4  -4   58.92    3.02   1
  -1  -4  -4   60.50    3.41   1
   1   4   4   56.38    1.55   1
   1   4   4   58.11    1.66   1
   1   4   4   54.36    2.81   1
   1   4   4   54.91    3.89   1
   1   4   4   53.66    3.56   1
  -2  -4  -4   12.05    1.85   1
  -2  -4  -4    8.80    1.56   1
  -2  -4  -4   15.60    2.21   1
   2   4   4    9.85    3.03   1
   2   4   4   11.72    2.42   1
  -3  -4  -4   20.31    2.66   1
  -3  -4  -4   18.96    2.16   1
   3   4   4   16.11    2.75   1
   3   4   4   15.81    3.39   1
  -4  -4  -4  146.98    6.57   1
  -4  -4  -4  137.96    7.91   1
   4   4   4  143.72    9.58   1
   4   4   4  149.06    6.95   1
  -5  -4  -4    9.62    3.27   1
   5   4   4   11.25    4.57   1
   5   4   4   11.71    3.58   1
  -6  -4  -4    0.34    3.16   1
  -6  -4  -4    0.61    3.96   1
   6   4   4    2.48    4.07   1
   6   4   4    3.16    4.20   1
  -8   5   4    3.74    5.14   1
   7  -5  -4  144.66    7.40   1
   7  -5  -4  156.08    7.53   1
   7  -5  -4  139.82    7.61   1
   7  -5  -4  145.83    8.07   1
  -7   5   4  162.58    9.47   1
   6  -5  -4   59.36    3.81   1
   6  -5  -4   63.81    3.99   1
   6  -5  -4   60.98    3.55   1
   6  -5  -4   67.00    3.75   1
  -6   5   4   63.58    5.10   1
   5  -5  -4    0.21    3.20   1
   5  -5  -4    1.97    1.64   1
   5  -5  -4    4.04    3.34   1
   5  -5  -4    3.09    1.67   1
  -5   5   4    4.83    3.00   1
  -5   5   4    0.46    1.94   1
   4  -5  -4   25.00    1.88   1
   4  -5  -4   17.92    2.25   1
   4  -5  -4   25.51    2.04   1
   4  -5  -4   21.76    2.32   1
  -4   5   4   16.28    2.04   1
  -4   5   4   20.64    2.74   1
   3  -5  -4   16.04    1.45   1
   3  -5  -4   13.79    1.86   1
   3  -5  -4   15.97    1.98   1
  -3   5   4   13.61    2.03   1
  -3   5   4   15.64    2.33   1
   2  -5  -4   25.08    1.00   1
   2  -5  -4   26.66    1.87   1
   2  -5  -4   26.33    1.05   1
   2  -5  -4   22.53    1.87   1
   2  -5  -4   22.74    1.89   1
  -2   5   4   25.19    2.33   1
  -2   5   4   23.23    2.29   1
   1  -5  -4   26.95    1.73   1
   1  -5  -4   26.93    2.09   1
   1  -5  -4   26.53    2.39   1
   1  -5  -4   34.38    1.79   1
   1  -5  -4   32.45    1.75   1
   1  -5  -4   27.44    1.73   1
  -1   5   4   28.18    1.93   1
  -1   5   4   26.94    1.63   1
  -1   5   4   28.74    1.98   1
  -1   5   4   30.08    1.86   1
  -1   5   4   34.22    2.39   1
  -1   5   4   22.68    2.81   1
   0  -5  -4    6.34    1.60   1
   0  -5  -4    5.82    1.03   1
   0  -5  -4    8.10    1.09   1
   0  -5  -4    9.53    1.97   1
   0   5   4    7.87    0.97   1
   0   5   4    8.76    2.17   1
   0   5   4    8.67    1.06   1
   0   5   4    7.22    2.34   1
  -1  -5  -4   91.74    3.83   1
  -1  -5  -4   92.28    3.70   1
  -1  -5  -4   92.88    4.49   1
  -1  -5  -4   92.57    4.21   1
   1   5   4   86.66    4.28   1
   1   5   4   80.40    4.00   1
   1   5   4   86.75    4.43   1
   1   5   4   84.49    4.17   1
   1   5   4   90.44    4.51   1
  -2  -5  -4    1.10    2.10   1
  -2  -5  -4    1.03    1.80   1
   2   5   4   -0.89    2.37   1
   2   5   4    1.58    2.68   1
   2   5   4    2.93    1.98   1
  -3  -5  -4    3.86    2.74   1
  -3  -5  -4    1.59    2.24   1
   3   5   4    5.35    3.15   1
   3   5   4    3.42    4.24   1
  -4  -5  -4   -0.72    2.84   1
  -4  -5  -4    0.52    2.35   1
   4   5   4    2.21    3.21   1
   4   5   4    2.38    3.07   1
  -5  -5  -4   24.10    3.28   1
  -5  -5  -4   39.73    4.38   1
   5   5   4   33.46    5.51   1
   5   5   4   40.72    5.60   1
   7  -6  -4   18.34    3.53   1
   7  -6  -4   16.70    3.46   1
  -7   6   4   18.07    4.19   1
   6  -6  -4   28.75    4.06   1
   6  -6  -4   25.63    4.20   1
  -6   6   4   25.68    3.50   1
  -6   6   4   28.14    4.08   1
   5  -6  -4   61.13    3.49   1
   5  -6  -4   53.22    3.60   1
   5  -6  -4   59.27    3.76   1
   5  -6  -4   57.53    3.34   1
  -5   6   4   62.62    4.39   1
  -5   6   4   51.11    4.26   1
   4  -6  -4    0.00    0.95   1
   4  -6  -4    1.02    2.48   1
   4  -6  -4   -0.14    2.32   1
   4  -6  -4    0.51    1.02   1
  -4   6   4    0.25    1.80   1
  -4   6   4   -0.37    3.18   1
   3  -6  -4   37.01    2.07   1
   3  -6  -4   26.63    2.73   1
   3  -6  -4   32.04    2.91   1
  -3   6   4   44.98    3.31   1
  -3   6   4   35.59    3.02   1
   2  -6  -4   14.54    1.08   1
   2  -6  -4   16.15    1.16   1
   2  -6  -4   11.63    1.87   1
  -2   6   4   13.86    2.50   1
  -2   6   4   15.33    2.73   1
   1  -6  -4   -0.10    1.51   1
   1  -6  -4    1.27    0.95   1
   1  -6  -4    0.97    0.88   1
   1  -6  -4    0.05    0.97   1
   1  -6  -4    0.24    1.92   1
   1  -6  -4    0.03    0.99   1
  -1   6   4    1.34    1.51   1
  -1   6   4    0.12    2.67   1
   0  -6  -4  109.67    5.18   1
   0  -6  -4  111.94    5.85   1
   0  -6  -4  100.39    5.77   1
   0  -6  -4  103.86    4.29   1
   0   6   4  106.65    5.04   1
   0   6   4  108.86    5.10   1
  -1  -6  -4   87.98    4.62   1
  -1  -6  -4   86.34    5.11   1
   1   6   4   91.97    5.07   1
   1   6   4   89.73    4.75   1
   1   6   4   80.33    4.75   1
  -2  -6  -4   15.89    2.86   1
  -2  -6  -4   16.28    2.58   1
   2   6   4   21.59    2.60   1
   2   6   4   13.34    3.22   1
   2   6   4   12.90    4.20   1
  -3  -6  -4   28.63    3.13   1
   3   6   4   29.81    4.03   1
   3   6   4   29.05    3.91   1
  -4  -6  -4   36.40    4.98   1
  -4  -6  -4   28.98    3.41   1
   4   6   4   39.25    5.83   1
   4   6   4   32.44    5.40   1
   6  -7  -4    2.95    3.45   1
   6  -7  -4   -2.95    3.24   1
  -6   7   4   -0.47    4.07   1
  -6   7   4    1.23    4.17   1
   5  -7  -4    6.48    3.15   1
   5  -7  -4    5.79    3.13   1
  -5   7   4    0.20    4.12   1
  -5   7   4    6.92    3.83   1
   4  -7  -4   15.62    1.80   1
   4  -7  -4    9.64    3.30   1
   4  -7  -4   13.42    1.73   1
   4  -7  -4   10.37    3.13   1
  -4   7   4    9.62    2.76   1
  -4   7   4   13.28    4.08   1
   3  -7  -4    3.10    2.43   1
   3  -7  -4    5.32    2.08   1
   3  -7  -4    1.54    2.21   1
  -3   7   4    3.87    4.29   1
  -3   7   4    7.08    4.29   1
   2  -7  -4   -0.79    1.88   1
   2  -7  -4   -2.20    2.23   1
   2  -7  -4   -1.45    2.23   1
   2  -7  -4    0.50    1.91   1
  -2   7   4   -1.63    3.55   1
  -2   7   4    0.17    2.20   1
   1  -7  -4   29.55    2.15   1
   1  -7  -4   35.73    2.45   1
   1  -7  -4   30.06    2.91   1
   1  -7  -4   34.62    2.45   1
   1  -7  -4   23.90    1.94   1
  -1   7   4   27.09    3.55   1
  -1   7   4   31.62    2.91   1
   0  -7  -4   -0.08    1.89   1
   0  -7  -4    0.42    1.67   1
   0  -7  -4    0.53    1.61   1
   0   7   4    0.36    3.20   1
   0   7   4    2.04    1.98   1
  -1  -7  -4   31.99    3.17   1
  -1  -7  -4   35.76    3.65   1
   1   7   4   21.34    4.72   1
   1   7   4   33.90    3.12   1
   1   7   4   22.71    4.81   1
  -2  -7  -4    2.78    3.25   1
  -2  -7  -4    2.78    3.32   1
   2   7   4    5.95    4.33   1
   2   7   4    4.94    4.61   1
  -3  -7  -4   18.45    4.13   1
  -3  -7  -4   32.57    4.18   1
   3   7   4   26.56    4.91   1
   3   7   4   25.63    4.57   1
   5  -8  -4    0.50    2.80   1
   5  -8  -4    1.27    2.93   1
  -5   8   4    0.80    3.06   1
  -5   8   4   -2.58    4.84   1
   4  -8  -4   36.99    3.43   1
   4  -8  -4   41.15    3.65   1
  -4   8   4   50.61    5.31   1
  -4   8   4   42.12    4.36   1
   3  -8  -4  149.70    7.77   1
   3  -8  -4  146.02    7.75   1
  -3   8   4  169.40    9.05   1
  -3   8   4  144.14    8.64   1
   2  -8  -4   -1.14    1.34   1
  -2   8   4   -0.23    2.35   1
  -2   8   4   -0.33    3.12   1
   1  -8  -4   13.03    2.86   1
   1  -8  -4   19.82    2.38   1
  -1   8   4   17.78    3.08   1
  -1   8   4    9.14    3.70   1
   0  -8  -4   -2.39    2.39   1
   0  -8  -4    0.10    1.81   1
   0   8   4   -0.92    3.48   1
   0   8   4    1.30    3.62   1
   0   8   4    0.23    2.29   1
  -1  -8  -4   -0.67    2.46   1
  -1  -8  -4   -0.90    2.64   1
   1   8   4   -1.21    3.56   1
   1   8   4    1.12    3.76   1
   0   9  -5    0.25    6.20   1
   0  -9   5   -0.06    3.06   1
  -1   9  -5    4.31    4.47   1
   1  -9   5    5.10    4.19   1
   1  -9   5   -0.88    3.12   1
   1  -9   5   -0.22    4.15   1
   1  -9   5    2.08    3.05   1
   1  -9   5   -2.61    3.91   1
  -2   9  -5   -2.17    3.68   1
   2  -9   5   -1.38    2.64   1
   2  -9   5   -0.28    2.23   1
   2  -9   5    0.15    2.71   1
   2  -9   5    0.28    3.01   1
   2  -9   5   -2.67    2.67   1
  -3   9  -5   -0.34    6.13   1
  -3   9  -5   -0.62    3.70   1
   3  -9   5   -0.90    3.30   1
   3  -9   5   -2.74    3.39   1
   3  -9   5    0.80    3.54   1
   3  -9   5    0.03    2.62   1
   3  -9   5    1.23    3.42   1
  -4   9  -5   12.36    4.59   1
  -4   9  -5    9.07    4.51   1
   4  -9   5   10.21    3.71   1
   4  -9   5    7.80    3.69   1
   4  -9   5    9.42    3.42   1
   4  -9   5    6.58    3.48   1
   2   8  -5    5.47    5.29   1
  -2  -8   5    7.31    3.52   1
   1   8  -5   92.73    6.07   1
  -1  -8   5   90.24    5.53   1
   0   8  -5    7.49    4.63   1
   0  -8   5   10.80    2.78   1
   0  -8   5    5.47    2.22   1
   0  -8   5    4.91    2.33   1
   0  -8   5    9.51    2.41   1
   0  -8   5    5.21    2.27   1
  -1   8  -5    6.05    2.52   1
  -1   8  -5    2.30    3.27   1
   1  -8   5    0.41    2.32   1
   1  -8   5    0.10    2.42   1
   1  -8   5    1.42    2.42   1
   1  -8   5    2.65    2.42   1
   1  -8   5    0.06    2.45   1
  -2   8  -5   51.64    5.01   1
  -2   8  -5   60.83    3.89   1
   2  -8   5   59.08    3.67   1
   2  -8   5   48.47    3.62   1
   2  -8   5   52.38    3.62   1
   2  -8   5   55.55    3.60   1
   2  -8   5   57.95    3.56   1
  -3   8  -5    6.28    4.61   1
  -3   8  -5    5.81    4.57   1
   3  -8   5    4.04    2.88   1
   3  -8   5    3.29    2.88   1
   3  -8   5    7.98    2.45   1
   3  -8   5    4.24    2.88   1
   3  -8   5    3.17    2.91   1
  -4   8  -5   27.94    4.24   1
  -4   8  -5   16.31    3.66   1
   4  -8   5   21.30    4.17   1
   4  -8   5   12.24    3.03   1
   4  -8   5   16.99    3.25   1
   4  -8   5   20.53    4.17   1
  -5   8  -5    2.08    3.84   1
   5  -8   5   -0.27    2.81   1
   5  -8   5    1.77    2.86   1
   5  -8   5   -0.77    2.78   1
   5  -8   5   -1.08    2.98   1
   4   7  -5    0.82    4.10   1
   4   7  -5    1.57    3.14   1
  -4  -7   5    1.24    2.82   1
   3   7  -5    4.61    3.74   1
   3   7  -5    3.03    3.48   1
  -3  -7   5   -1.15    3.03   1
   2   7  -5    7.94    3.34   1
  -2  -7   5    3.37    1.89   1
  -2  -7   5    1.39    1.79   1
  -2  -7   5    0.53    1.83   1
  -2  -7   5    6.16    3.99   1
  -2  -7   5    1.86    1.89   1
   1   7  -5   43.79    4.27   1
  -1  -7   5   41.35    2.68   1
  -1  -7   5   36.57    2.95   1
  -1  -7   5   36.26    2.51   1
  -1  -7   5   49.97    3.51   1
  -1  -7   5   38.79    2.93   1
   0   7  -5   17.11    1.76   1
   0   7  -5   18.26    2.97   1
   0  -7   5   17.11    2.20   1
   0  -7   5   12.16    1.96   1
   0  -7   5   14.95    2.06   1
   0  -7   5   18.23    2.20   1
   0  -7   5   16.56    2.42   1
  -1   7  -5    3.15    2.13   1
  -1   7  -5    4.47    3.02   1
   1  -7   5    1.74    2.23   1
   1  -7   5    1.61    2.17   1
   1  -7   5    0.79    2.66   1
   1  -7   5    0.43    2.04   1
   1  -7   5    1.44    2.10   1
  -2   7  -5    8.76    2.65   1
  -2   7  -5    4.06    2.68   1
   2  -7   5    3.83    2.19   1
   2  -7   5    3.05    1.67   1
   2  -7   5    2.77    2.19   1
   2  -7   5    5.50    2.25   1
   2  -7   5    5.99    2.31   1
  -3   7  -5   48.15    3.73   1
  -3   7  -5   46.76    2.80   1
  -3   7  -5   51.85    3.91   1
   3  -7   5   51.29    3.75   1
   3  -7   5   48.65    3.78   1
   3  -7   5   53.00    3.13   1
   3  -7   5   45.11    3.78   1
   3  -7   5   43.89    3.58   1
  -4   7  -5    5.94    5.55   1
   4  -7   5    2.05    2.92   1
   4  -7   5    0.26    2.83   1
   4  -7   5    3.28    2.96   1
   4  -7   5    1.66    2.83   1
  -5   7  -5   29.38    4.40   1
   5  -7   5   26.34    3.27   1
   5  -7   5   32.47    3.36   1
   5  -7   5   26.67    3.39   1
   5  -7   5   30.11    3.46   1
  -6   7  -5   45.10    5.35   1
   6  -7   5   44.34    4.08   1
   6  -7   5   43.66    4.24   1
   6  -7   5   40.61    4.11   1
   6  -7   5   35.87    3.97   1
   5   6  -5   21.22    3.71   1
   5   6  -5   23.36    3.68   1
   4   6  -5   64.63    5.11   1
   4   6  -5   64.48    4.26   1
  -4  -6   5   63.12    4.39   1
   3   6  -5   16.88    2.99   1
  -3  -6   5   10.19    1.71   1
  -3  -6   5   11.03    1.76   1
   2   6  -5   81.59    4.28   1
  -2  -6   5   81.30    3.87   1
  -2  -6   5   88.14    4.54   1
  -2  -6   5   77.04    4.32   1
  -2  -6   5   81.17    4.34   1
  -2  -6   5   77.17    3.94   1
   1   6  -5   42.94    2.49   1
   1   6  -5   50.19    3.42   1
  -1  -6   5   51.06    3.15   1
  -1  -6   5   41.64    2.66   1
  -1  -6   5   47.06    2.57   1
  -1  -6   5   44.05    2.71   1
  -1  -6   5   47.48    2.66   1
   0   6  -5    0.30    1.67   1
   0   6  -5    0.51    2.07   1
   0  -6   5    0.06    1.41   1
   0  -6   5   -1.27    1.62   1
   0  -6   5    0.82    2.29   1
   0  -6   5   -0.81    1.55   1
   0  -6   5   -0.10    2.31   1
   0  -6   5   -0.76    2.35   1
   0  -6   5   -0.06    1.53   1
  -1   6  -5   79.39    3.86   1
  -1   6  -5   91.09    4.05   1
   1  -6   5   91.54    5.38   1
   1  -6   5   77.76    4.52   1
   1  -6   5   77.19    3.30   1
   1  -6   5   84.75    3.58   1
   1  -6   5   91.34    6.13   1
   1  -6   5   77.93    3.38   1
   1  -6   5   81.08    3.56   1
  -2   6  -5   43.04    3.07   1
  -2   6  -5   46.69    3.57   1
  -2   6  -5   39.57    3.03   1
   2  -6   5   43.68    2.53   1
   2  -6   5   35.51    2.57   1
   2  -6   5   42.67    2.64   1
   2  -6   5   39.17    2.53   1
   2  -6   5   41.97    2.64   1
   2  -6   5   42.05    2.71   1
   2  -6   5   36.13    2.53   1
   2  -6   5   40.90    2.35   1
  -3   6  -5  297.30    9.75   1
  -3   6  -5  282.12    6.67   1
   3  -6   5  262.14   11.03   1
   3  -6   5  270.96    8.69   1
   3  -6   5  285.68   10.05   1
   3  -6   5  283.35    8.74   1
   3  -6   5  271.33    8.96   1
  -4   6  -5    5.72    1.64   1
  -4   6  -5    9.56    3.62   1
   4  -6   5    8.13    3.53   1
   4  -6   5    5.53    3.37   1
   4  -6   5    4.21    3.28   1
   4  -6   5    4.39    3.37   1
  -5   6  -5   27.74    2.12   1
  -5   6  -5   31.73    4.13   1
   5  -6   5   27.63    2.94   1
   5  -6   5   25.79    3.50   1
   5  -6   5   19.24    3.40   1
   5  -6   5   25.96    3.03   1
  -6   6  -5   38.44    5.73   1
   6  -6   5   31.69    3.43   1
   6  -6   5   28.05    3.25   1
   6  -6   5   33.10    3.46   1
   6  -6   5   32.72    3.52   1
  -7   6  -5   22.53    4.86   1
   7  -6   5   20.47    3.47   1
   7  -6   5   23.55    3.68   1
  -6  -5   5    8.46    5.43   1
   5   5  -5   10.32    3.77   1
   5   5  -5   11.06    2.94   1
  -5  -5   5   11.68    4.32   1
   4   5  -5    6.06    2.63   1
   4   5  -5    5.93    3.58   1
  -4  -5   5    2.89    2.73   1
  -4  -5   5    2.19    2.06   1
  -4  -5   5   -0.44    1.96   1
   3   5  -5    0.42    1.61   1
   3   5  -5    0.93    1.63   1
  -3  -5   5    0.17    1.73   1
  -3  -5   5   -0.60    1.50   1
  -3  -5   5   -1.36    1.44   1
   2   5  -5   20.36    2.36   1
  -2  -5   5   20.87    2.37   1
  -2  -5   5   19.82    1.76   1
  -2  -5   5   19.46    1.69   1
   1   5  -5  119.35    4.86   1
   1   5  -5  111.61    5.80   1
  -1  -5   5  124.86    5.01   1
  -1  -5   5  117.28    3.83   1
  -1  -5   5  126.45    4.39   1
   0   5  -5   61.93    2.73   1
   0   5  -5   59.75    3.01   1
   0  -5   5   59.98    2.53   1
   0  -5   5   55.77    2.45   1
   0  -5   5   55.89    3.31   1
   0  -5   5   55.01    2.66   1
   0  -5   5   55.92    2.82   1
   0  -5   5   61.88    4.25   1
   0  -5   5   55.48    2.64   1
  -1   5  -5    8.29    2.25   1
  -1   5  -5   11.64    2.56   1
  -1   5  -5    4.64    2.08   1
   1  -5   5    5.61    1.48   1
   1  -5   5    7.69    1.62   1
   1  -5   5    7.98    1.62   1
   1  -5   5    5.50    1.48   1
   1  -5   5    6.53    1.11   1
  -2   5  -5   30.83    2.14   1
  -2   5  -5   35.38    2.68   1
   2  -5   5   32.92    2.41   1
   2  -5   5   31.43    2.41   1
   2  -5   5   32.62    3.52   1
   2  -5   5   29.04    2.12   1
   2  -5   5   34.63    2.07   1
   2  -5   5   31.05    2.19   1
  -3   5  -5  131.34    5.85   1
  -3   5  -5  132.32    5.01   1
   3  -5   5  127.55    3.98   1
   3  -5   5  121.42    4.00   1
   3  -5   5  123.64    8.14   1
   3  -5   5  129.69    4.11   1
   3  -5   5  126.77    4.13   1
  -4   5  -5   44.17    3.70   1
  -4   5  -5   43.19    2.43   1
   4  -5   5   38.75    2.72   1
   4  -5   5   39.64    2.81   1
   4  -5   5   43.94    2.85   1
   4  -5   5   41.22    2.81   1
  -5   5  -5  119.02    5.59   1
  -5   5  -5  116.02    5.70   1
   5  -5   5  124.31    4.91   1
   5  -5   5  123.11    4.67   1
   5  -5   5  118.86    4.91   1
   5  -5   5  121.68    4.52   1
  -6   5  -5    2.54    3.73   1
  -6   5  -5    0.14    1.44   1
   6  -5   5   -1.50    2.44   1
   6  -5   5    0.40    2.49   1
   6  -5   5   -1.37    2.39   1
   6  -5   5    1.16    2.47   1
  -7   5  -5   24.27    4.65   1
   7  -5   5   33.03    4.20   1
   7  -5   5   32.02    4.25   1
   6   4  -5   17.92    2.97   1
   6   4  -5   18.57    3.75   1
  -6  -4   5   10.42    3.25   1
   5   4  -5   36.56    3.38   1
   5   4  -5   36.65    3.24   1
  -5  -4   5   28.84    2.41   1
  -5  -4   5   33.94    3.51   1
  -5  -4   5   31.96    2.14   1
   4   4  -5    8.40    2.75   1
   4   4  -5    6.50    3.07   1
  -4  -4   5    5.39    1.90   1
  -4  -4   5    3.86    1.81   1
  -4  -4   5    5.31    2.44   1
   3   4  -5  173.90    5.52   1
   3   4  -5  169.81    5.61   1
   3   4  -5  173.38    8.91   1
  -3  -4   5  180.26    7.80   1
  -3  -4   5  171.32    5.07   1
  -3  -4   5  169.02    4.45   1
   2   4  -5   11.04    2.56   1
   2   4  -5   13.85    2.67   1
  -2  -4   5   12.35    1.36   1
  -2  -4   5   17.23    2.11   1
  -2  -4   5   13.89    1.38   1
   1   4  -5   90.18    4.41   1
   1   4  -5   88.57    3.15   1
   1   4  -5   87.64    5.46   1
  -1  -4   5   94.78    4.20   1
  -1  -4   5   87.17    3.06   1
  -1  -4   5   94.06    7.25   1
  -1  -4   5   96.76    6.51   1
  -1  -4   5   89.39    3.06   1
   0   4  -5   -0.11    1.59   1
   0   4  -5    0.72    1.29   1
   0   4  -5   -1.38    1.51   1
   0   4  -5   -0.18    0.99   1
   0   4  -5   -0.03    0.83   1
   0   4  -5   -0.03    0.97   1
   0   4  -5    0.97    0.94   1
   0  -4   5    0.21    1.27   1
   0  -4   5    0.15    0.84   1
   0  -4   5    0.28    0.89   1
   0  -4   5   -0.57    1.04   1
   0  -4   5    0.09    0.97   1
   0  -4   5   -0.40    0.88   1
  -1   4  -5   22.60    1.66   1
  -1   4  -5   24.63    1.71   1
  -1   4  -5   24.80    1.92   1
  -1   4  -5   20.56    1.66   1
  -1   4  -5   23.82    1.71   1
   1  -4   5   22.16    1.61   1
   1  -4   5   26.04    1.73   1
   1  -4   5   25.64    1.73   1
   1  -4   5   21.18    1.87   1
   1  -4   5   23.19    1.70   1
   1  -4   5   24.89    1.80   1
   1  -4   5   23.80    1.54   1
   1  -4   5   24.63    1.25   1
  -2   4  -5  869.89   31.77   1
  -2   4  -5  819.71   46.72   1
  -2   4  -5  873.01   19.27   1
   2  -4   5  832.31   21.92   1
   2  -4   5  834.00   21.20   1
   2  -4   5  836.77   22.59   1
   2  -4   5  799.42   23.39   1
   2  -4   5  790.51   24.00   1
   2  -4   5  838.09   25.00   1
  -3   4  -5   -0.33    1.62   1
  -3   4  -5   -0.22    1.15   1
  -3   4  -5    0.55    1.05   1
   3  -4   5   -1.10    1.56   1
   3  -4   5    0.15    1.57   1
   3  -4   5   -0.05    1.13   1
   3  -4   5    0.48    1.14   1
   3  -4   5    0.35    0.76   1
  -4   4  -5   24.02    1.90   1
  -4   4  -5   26.77    2.92   1
   4  -4   5   27.25    2.22   1
   4  -4   5   25.41    2.09   1
   4  -4   5   23.84    2.22   1
   4  -4   5   26.43    2.25   1
   4  -4   5   25.58    2.20   1
  -5   4  -5   24.70    1.92   1
  -5   4  -5   30.16    3.47   1
   5  -4   5   26.92    2.57   1
   5  -4   5   25.21    2.45   1
   5  -4   5   30.70    2.55   1
   5  -4   5   25.54    2.50   1
  -6   4  -5   24.87    4.55   1
  -6   4  -5   18.85    2.38   1
   6  -4   5   27.07    2.75   1
   6  -4   5   26.83    2.89   1
   6  -4   5   25.27    2.80   1
   6  -4   5   28.93    2.82   1
  -7   4  -5    5.35    4.60   1
  -7   4  -5   -0.06    2.95   1
   7  -4   5    2.85    3.12   1
   7  -4   5    5.16    3.05   1
  -8   4  -5    0.91    5.60   1
   8  -4   5    5.00    4.02   1
   8  -4   5    2.94    3.72   1
  -7  -3   5    1.52    3.64   1
   6   3  -5   12.57    2.47   1
   6   3  -5    8.24    3.68   1
   6   3  -5   11.96    2.50   1
  -6  -3   5    6.20    3.02   1
   5   3  -5    8.28    3.17   1
   5   3  -5   15.24    2.23   1
   5   3  -5   15.86    2.26   1
  -5  -3   5   11.43    2.77   1
   4   3  -5  101.09    4.69   1
   4   3  -5  106.59    4.69   1
   4   3  -5   94.87    4.88   1
  -4  -3   5  104.62    4.45   1
  -4  -3   5  107.37    3.81   1
  -4  -3   5  107.02    4.07   1
   3   3  -5    4.99    2.05   1
   3   3  -5    7.70    1.51   1
   3   3  -5    6.99    1.45   1
  -3  -3   5    3.85    1.71   1
  -3  -3   5    5.90    1.25   1
  -3  -3   5    5.85    1.25   1
  -3  -3   5    6.98    2.39   1
   2   3  -5    1.21    1.54   1
   2   3  -5    2.09    2.39   1
  -2  -3   5   -0.88    1.54   1
  -2  -3   5    1.44    1.97   1
  -2  -3   5    1.18    1.74   1
  -2  -3   5    0.85    1.08   1
  -2  -3   5    1.04    1.41   1
  -2  -3   5    1.34    1.37   1
   1   3  -5   39.63    1.73   1
   1   3  -5   38.08    1.93   1
   1   3  -5   40.86    2.09   1
   1   3  -5   41.69    2.29   1
   1   3  -5   39.31    2.53   1
  -1  -3   5   41.04    3.00   1
  -1  -3   5   41.00    3.11   1
  -1  -3   5   40.88    2.15   1
  -1  -3   5   37.70    1.84   1
  -1  -3   5   38.99    2.53   1
  -1  -3   5   37.23    1.82   1
   0   3  -5   35.55    1.64   1
   0   3  -5   33.81    1.55   1
   0   3  -5   34.49    1.85   1
   0   3  -5   33.17    1.67   1
   0   3  -5   35.20    1.98   1
   0  -3   5   37.12    1.78   1
   0  -3   5   40.41    2.17   1
   0  -3   5   36.62    1.76   1
   0  -3   5   36.67    1.69   1
   0  -3   5   34.46    1.98   1
   0  -3   5   38.43    1.69   1
  -1   3  -5  865.80   33.24   1
  -1   3  -5  824.28   22.02   1
  -1   3  -5  860.88   16.76   1
  -1   3  -5  855.79   17.65   1
  -1   3  -5  844.08   17.96   1
   1  -3   5  791.39   31.73   1
   1  -3   5  798.43   28.38   1
   1  -3   5  802.50   33.70   1
   1  -3   5  826.18   26.00   1
   1  -3   5  843.03   18.85   1
   1  -3   5  828.84   24.65   1
   1  -3   5  855.10   18.56   1
  -2   3  -5  396.22   12.88   1
  -2   3  -5  406.20   14.46   1
  -2   3  -5  406.70   16.30   1
  -2   3  -5  390.34   17.21   1
   2  -3   5  393.93    6.80   1
   2  -3   5  398.41    7.93   1
   2  -3   5  411.62   10.52   1
   2  -3   5  409.79    9.85   1
   2  -3   5  394.37   14.01   1
   2  -3   5  399.86    8.77   1
  -3   3  -5  160.13    8.54   1
  -3   3  -5  153.13    7.72   1
  -3   3  -5  158.60    6.59   1
  -3   3  -5  152.09    9.42   1
  -3   3  -5  160.41    8.03   1
   3  -3   5  150.23    3.96   1
   3  -3   5  152.98    5.78   1
   3  -3   5  156.91    5.22   1
   3  -3   5  144.96    3.71   1
   3  -3   5  151.81    5.00   1
  -4   3  -5  300.97    9.18   1
  -4   3  -5  307.32   11.28   1
  -4   3  -5  299.06   16.22   1
  -4   3  -5  282.00   10.07   1
  -4   3  -5  299.10   13.67   1
   4  -3   5  281.27    6.65   1
   4  -3   5  278.59    8.93   1
   4  -3   5  282.01    5.96   1
   4  -3   5  275.09    8.63   1
  -5   3  -5    1.69    1.88   1
  -5   3  -5   -0.23    1.79   1
  -5   3  -5    1.99    1.40   1
  -5   3  -5   -0.03    2.80   1
  -5   3  -5    1.14    2.11   1
   5  -3   5    6.95    2.73   1
   5  -3   5    2.83    1.99   1
   5  -3   5    3.90    1.98   1
   5  -3   5    3.18    2.56   1
  -6   3  -5    7.96    1.90   1
  -6   3  -5   10.74    3.29   1
  -6   3  -5    8.78    1.99   1
   6  -3   5   11.73    2.36   1
   6  -3   5    3.04    2.01   1
   6  -3   5    9.59    2.23   1
   6  -3   5    2.85    1.90   1
  -7   3  -5    2.46    3.51   1
  -7   3  -5    1.66    2.05   1
   7  -3   5    2.69    3.35   1
   7  -3   5    0.58    3.26   1
  -8   3  -5    0.87    4.76   1
  -8   3  -5    1.52    2.91   1
   8  -3   5    5.63    4.70   1
   8  -3   5    0.84    4.56   1
   7   2  -5   48.43    4.58   1
  -7  -2   5   53.40    4.63   1
   6   2  -5   45.22    4.01   1
   6   2  -5   47.56    3.27   1
   6   2  -5   52.69    3.13   1
  -6  -2   5   47.86    4.06   1
   5   2  -5   21.23    2.99   1
   5   2  -5   23.63    2.31   1
   5   2  -5   23.09    2.27   1
  -5  -2   5   15.14    2.48   1
   4   2  -5   44.39    2.71   1
   4   2  -5   35.59    7.98   1
   4   2  -5   43.78    2.53   1
  -4  -2   5   39.91    1.71   1
  -4  -2   5   38.14    2.80   1
  -4  -2   5   36.70    2.26   1
   3   2  -5   23.38    2.23   1
   3   2  -5   28.43    1.60   1
   3   2  -5   24.30    1.53   1
  -3  -2   5   26.62    2.16   1
  -3  -2   5   23.31    1.64   1
  -3  -2   5   24.37    0.81   1
   2   2  -5   22.18    1.96   1
   2   2  -5   21.74    2.01   1
   2   2  -5   23.38    1.13   1
   2   2  -5   18.52    1.99   1
   2   2  -5   23.39    1.33   1
  -2  -2   5   20.88    1.74   1
  -2  -2   5   25.49    1.84   1
  -2  -2   5   23.19    1.81   1
  -2  -2   5   23.04    1.86   1
  -2  -2   5   22.18    1.28   1
   1   2  -5   32.19    1.70   1
   1   2  -5   32.06    1.49   1
   1   2  -5   32.50    1.88   1
   1   2  -5   35.28    1.79   1
   1   2  -5   31.54    1.95   1
   1   2  -5   32.03    1.90   1
  -1  -2   5   30.27    1.49   1
  -1  -2   5   32.38    1.54   1
  -1  -2   5   33.81    1.84   1
  -1  -2   5   31.17    1.86   1
  -1  -2   5   32.91    2.39   1
  -1  -2   5   36.84    1.79   1
   0   2  -5   78.45    3.92   1
   0   2  -5   78.45    4.39   1
   0   2  -5   77.03    2.67   1
   0   2  -5   78.02    2.91   1
   0   2  -5   76.28    3.10   1
   0   2  -5   75.69    3.70   1
   0  -2   5   77.72    2.03   1
   0  -2   5   74.62    3.32   1
   0  -2   5   75.87    3.66   1
   0  -2   5   78.22    3.60   1
   0  -2   5   77.42    2.33   1
   0  -2   5   75.39    4.73   1
  -1   2  -5  261.44   10.81   1
  -1   2  -5  279.86   13.68   1
  -1   2  -5  259.37    5.94   1
  -1   2  -5  270.14   10.61   1
  -1   2  -5  274.24   15.77   1
  -1   2  -5  270.65   11.04   1
   1  -2   5  244.94   10.73   1
   1  -2   5  260.72    7.01   1
   1  -2   5  244.63    8.55   1
   1  -2   5  266.91    6.56   1
   1  -2   5  251.77    9.60   1
  -2   2  -5  117.99    4.07   1
  -2   2  -5  116.83    2.74   1
  -2   2  -5  109.12    3.85   1
  -2   2  -5  114.23    3.26   1
  -2   2  -5  112.07    4.54   1
  -2   2  -5  111.51    5.33   1
   2  -2   5  115.31    3.32   1
   2  -2   5  110.97    3.39   1
   2  -2   5  114.17    3.24   1
   2  -2   5  110.23    3.39   1
   2  -2   5  109.76    3.10   1
  -3   2  -5   75.82    2.78   1
  -3   2  -5   79.44    2.48   1
  -3   2  -5   84.06    3.42   1
  -3   2  -5   80.38    3.31   1
  -3   2  -5   82.73    4.38   1
  -3   2  -5   80.08    3.08   1
  -3   2  -5   75.61    3.57   1
  -3   2  -5   72.94    2.71   1
   3  -2   5   79.20    2.78   1
   3  -2   5   79.19    2.63   1
   3  -2   5   77.16    2.48   1
   3  -2   5   79.87    2.54   1
   3  -2   5   77.48    2.50   1
  -4   2  -5    6.58    1.43   1
  -4   2  -5    3.50    1.23   1
  -4   2  -5    5.49    1.12   1
  -4   2  -5    4.15    1.32   1
   4  -2   5    7.34    1.43   1
   4  -2   5    8.94    1.54   1
   4  -2   5   10.42    1.93   1
   4  -2   5    9.36    1.91   1
  -5   2  -5  182.66    6.65   1
  -5   2  -5  194.67   10.38   1
  -5   2  -5  185.75    9.40   1
  -5   2  -5  192.18   12.16   1
   5  -2   5  197.57    5.36   1
   5  -2   5  202.00    5.64   1
   5  -2   5  188.93    5.58   1
   5  -2   5  198.69    5.92   1
  -6   2  -5    2.65    2.48   1
  -6   2  -5    1.14    2.11   1
  -6   2  -5    1.24    3.32   1
   6  -2   5    1.61    2.11   1
   6  -2   5    2.35    2.05   1
  -7   2  -5   42.42    4.26   1
  -7   2  -5   47.06    3.36   1
   7  -2   5   53.66    3.69   1
   7  -2   5   53.83    3.67   1
  -8   2  -5   12.72    4.10   1
  -8   2  -5   14.49    3.91   1
   8  -2   5   21.95    3.83   1
   8   1  -5    3.61    3.79   1
  -8  -1   5    0.92    3.29   1
  -8  -1   5    1.87    4.48   1
   7   1  -5    5.88    3.38   1
  -7  -1   5    6.64    3.21   1
   6   1  -5   20.74    2.19   1
   6   1  -5   16.25    3.01   1
  -6  -1   5   12.80    3.41   1
   5   1  -5  178.91    6.46   1
   5   1  -5  193.67    9.95   1
  -5  -1   5  199.12   13.42   1
  -5  -1   5  202.29    6.81   1
  -5  -1   5  183.59    7.47   1
   4   1  -5   11.61    2.58   1
   4   1  -5   14.85    2.33   1
   4   1  -5   14.54    1.38   1
   4   1  -5   13.07    1.35   1
  -4  -1   5   11.84    2.00   1
  -4  -1   5   11.69    1.28   1
  -4  -1   5   12.01    1.23   1
   3   1  -5  585.40   14.63   1
   3   1  -5  566.46   17.15   1
   3   1  -5  584.98   13.76   1
   3   1  -5  582.25   23.36   1
   3   1  -5  561.17   24.90   1
   3   1  -5  558.42   14.02   1
  -3  -1   5  593.60   19.82   1
  -3  -1   5  587.67   15.00   1
  -3  -1   5  619.85   14.11   1
  -3  -1   5  571.56   25.92   1
  -3  -1   5  639.15   22.62   1
  -3  -1   5  604.72   21.43   1
   2   1  -5  474.41   12.38   1
   2   1  -5  473.74   14.51   1
   2   1  -5  479.16   30.68   1
   2   1  -5  469.16   17.25   1
   2   1  -5  493.68   15.27   1
   2   1  -5  491.91   13.38   1
  -2  -1   5  491.53   17.41   1
  -2  -1   5  491.67   15.42   1
  -2  -1   5  486.86   18.53   1
  -2  -1   5  475.01   13.34   1
  -2  -1   5  495.45   13.53   1
  -2  -1   5  483.50   11.32   1
   1   1  -5  169.52   10.48   1
   1   1  -5  177.07    6.12   1
   1   1  -5  169.62    5.98   1
   1   1  -5  177.16    4.47   1
   1   1  -5  176.54    5.52   1
  -1  -1   5  174.63    6.10   1
  -1  -1   5  172.34    5.48   1
  -1  -1   5  173.53    6.31   1
  -1  -1   5  175.96    5.54   1
  -1  -1   5  172.63    7.04   1
   0   1  -5  822.85   40.54   1
   0   1  -5  793.39   21.71   1
   0   1  -5  802.99   12.90   1
   0   1  -5  791.10   12.42   1
   0   1  -5  830.09   30.89   1
   0   1  -5  830.83   35.80   1
   0   1  -5  792.64   27.06   1
   0   1  -5  791.29   31.59   1
   0  -1   5  768.26   31.93   1
   0  -1   5  783.27   26.56   1
   0  -1   5  770.43   21.69   1
   0  -1   5  756.37   29.96   1
   0  -1   5  800.94   28.20   1
   0   1  -5  735.41   46.80   1
   0   1  -5  824.08   48.64   1
   0  -1   5  752.28   45.99   1
   0  -1   5  808.57   45.73   1
  -1   1  -5   33.52    1.83   1
  -1   1  -5   34.49    1.33   1
  -1   1  -5   32.12    1.83   1
  -1   1  -5   35.18    1.53   1
  -1   1  -5   34.94    1.78   1
  -1   1  -5   34.67    1.51   1
   1  -1   5   31.69    1.87   1
   1  -1   5   32.23    1.33   1
   1  -1   5   31.74    1.53   1
   1  -1   5   35.90    1.65   1
   1  -1   5   34.01    1.24   1
  -2   1  -5   27.84    1.48   1
  -2   1  -5   24.91    1.24   1
  -2   1  -5   27.61    1.60   1
  -2   1  -5   24.96    1.27   1
  -2   1  -5   26.26    0.96   1
  -2   1  -5   25.39    2.46   1
  -2   1  -5   26.42    2.06   1
   2  -1   5   27.69    1.36   1
   2  -1   5   23.10    1.66   1
   2  -1   5   25.54    1.22   1
   2  -1   5   27.32    1.57   1
   2  -1   5   28.03    1.29   1
   2  -1   5   24.36    1.29   1
  -3   1  -5  353.16    9.22   1
  -3   1  -5  335.36   13.48   1
  -3   1  -5  335.97   17.14   1
  -3   1  -5  339.50    9.29   1
  -3   1  -5  340.29   12.25   1
  -3   1  -5  343.12   14.22   1
  -3   1  -5  352.65   10.18   1
  -3   1  -5  350.20   20.80   1
  -3   1  -5  356.19    9.80   1
   3  -1   5  326.14   10.60   1
   3  -1   5  323.51    9.20   1
   3  -1   5  316.39    9.78   1
   3  -1   5  340.13   12.38   1
   3  -1   5  326.42   13.57   1
   3  -1   5  317.50    8.53   1
  -4   1  -5   70.92    2.72   1
  -4   1  -5   67.03    2.72   1
  -4   1  -5   63.54    3.04   1
  -4   1  -5   66.62    3.28   1
  -4   1  -5   67.17    2.87   1
  -4   1  -5   68.74    3.15   1
  -4   1  -5   64.64    2.83   1
   4  -1   5   65.90    4.75   1
   4  -1   5   68.89    2.50   1
   4  -1   5   63.43    2.57   1
   4  -1   5   64.91    2.42   1
   4  -1   5   70.96    2.53   1
  -5   1  -5   28.64    2.01   1
  -5   1  -5   26.60    2.33   1
   5  -1   5   35.35    2.81   1
   5  -1   5   32.06    1.97   1
   5  -1   5   30.78    1.97   1
  -6   1  -5   72.37    3.73   1
  -6   1  -5   72.01    4.46   1
  -6   1  -5   74.74    4.42   1
   6  -1   5   70.95    3.06   1
   6  -1   5   65.87    4.16   1
   6  -1   5   78.01    3.13   1
  -7   1  -5   15.02    3.46   1
  -7   1  -5   14.54    2.90   1
   7  -1   5   14.90    2.92   1
   7  -1   5   19.85    2.41   1
   7  -1   5   18.31    2.34   1
  -8   1  -5    2.11    4.08   1
  -8   1  -5    1.81    3.30   1
   8  -1   5    2.17    3.42   1
   8   0  -5   11.73    3.94   1
  -8   0   5    9.88    4.08   1
  -8   0   5    8.67    3.26   1
   7   0  -5   33.99    9.70   1
  -7   0   5   37.81    3.99   1
   6   0  -5    4.30    1.50   1
   6   0  -5    2.52    4.15   1
  -6   0   5    0.85    2.51   1
  -6   0   5    2.84    2.77   1
   5   0  -5   17.10    2.43   1
   5   0  -5   22.06    1.62   1
   5   0  -5   23.80    2.74   1
  -5   0   5   19.60    1.72   1
  -5   0   5   15.26    2.27   1
  -5   0   5   17.82    1.55   1
  -5   0   5   18.53    1.76   1
   4   0  -5   -0.08    0.77   1
   4   0  -5    0.27    1.50   1
   4   0  -5    0.93    1.51   1
   4   0  -5    0.42    0.97   1
  -4   0   5    2.78    2.20   1
  -4   0   5    0.34    1.34   1
  -4   0   5    0.54    0.84   1
  -4   0   5    0.11    0.83   1
  -4   0   5   -0.11    1.92   1
   3   0  -5   16.48    1.32   1
   3   0  -5   19.13    1.83   1
   3   0  -5   18.99    0.85   1
   3   0  -5   16.45    1.78   1
  -3   0   5   19.98    1.10   1
  -3   0   5   15.55    1.34   1
  -3   0   5   18.22    1.29   1
  -3   0   5   19.61    0.93   1
  -3   0   5   18.69    2.07   1
  -3   0   5   14.87    1.61   1
  -3   0   5   15.98    1.85   1
   2   0  -5   -0.25    0.78   1
   2   0  -5   -0.64    1.06   1
   2   0  -5    0.34    0.92   1
   2   0  -5   -0.14    0.78   1
  -2   0   5    0.97    0.81   1
  -2   0   5   -0.34    0.70   1
  -2   0   5    0.17    0.70   1
  -2   0   5    0.86    0.89   1
  -2   0   5   -0.09    0.56   1
   1   0  -5   97.19    3.34   1
   1   0  -5   98.07    4.93   1
   1   0  -5  107.50    4.14   1
   1   0  -5  100.70    2.87   1
   1   0  -5   99.15    3.75   1
   1   0  -5  106.36    3.80   1
  -1   0   5  102.83    3.19   1
  -1   0   5  102.42    3.82   1
  -1   0   5  100.87    4.14   1
  -1   0   5   97.02    3.64   1
   1   0  -5  103.09    8.20   1
   1   0  -5   98.38    8.02   1
  -1   0   5   89.46    7.69   1
  -1   0   5   99.42    8.51   1
   0   0  -5   18.44    1.09   1
   0   0  -5   17.71    0.96   1
   0   0  -5   17.68    1.72   1
   0   0  -5   18.92    1.72   1
   0   0  -5   17.45    1.16   1
   0   0   5   15.69    0.96   1
   0   0   5   16.83    0.99   1
   0   0   5   16.47    1.16   1
   0   0   5   17.43    0.99   1
   0   0   5   18.06    1.44   1
   0   0  -5   11.83    3.42   1
   0   0  -5    7.05    4.52   1
   0   0   5    9.70    4.21   1
   0   0   5    6.69    3.22   1
  -1   0  -5   18.15    0.93   1
  -1   0  -5   19.00    0.98   1
  -1   0  -5   14.79    2.00   1
  -1   0  -5   17.41    1.32   1
  -1   0  -5   18.71    1.15   1
  -1   0  -5   15.93    1.61   1
   1   0   5   12.64    1.39   1
   1   0   5   18.95    0.93   1
   1   0   5   16.78    0.83   1
   1   0   5   16.14    1.15   1
   1   0   5   17.17    1.34   1
   1   0   5   16.83    0.78   1
  -2   0  -5   28.87    1.87   1
  -2   0  -5   25.10    1.06   1
  -2   0  -5   22.96    1.87   1
  -2   0  -5   18.35    2.08   1
  -2   0  -5   22.88    0.89   1
  -2   0  -5   25.11    1.06   1
  -2   0  -5   22.80    6.86   1
   2   0   5   20.57    1.59   1
   2   0   5   25.99    4.23   1
   2   0   5   22.66    1.09   1
   2   0   5   22.08    1.11   1
   2   0   5   24.57    1.19   1
   2   0   5   23.46    1.06   1
   2   0   5   28.98    5.14   1
   2   0   5   23.71    1.29   1
  -3   0  -5    1.89    1.01   1
  -3   0  -5    2.22    1.66   1
  -3   0  -5    1.60    1.37   1
  -3   0  -5    0.62    0.72   1
  -3   0  -5    0.52    1.34   1
  -3   0  -5    2.24    0.81   1
  -3   0  -5   -0.52    1.50   1
   3   0   5    1.43    1.98   1
   3   0   5    3.19    0.85   1
   3   0   5    1.40    0.75   1
   3   0   5    1.54    1.57   1
   3   0   5    1.37    1.44   1
   3   0   5    2.51    0.79   1
   3   0   5    2.58    0.81   1
  -4   0  -5  188.30    6.64   1
  -4   0  -5  186.62    8.87   1
  -4   0  -5  189.67    7.14   1
  -4   0  -5  189.91    8.96   1
  -4   0  -5  191.89    6.78   1
  -4   0  -5  179.05    9.57   1
   4   0   5  175.68   12.25   1
   4   0   5  185.44    5.31   1
   4   0   5  178.02    4.93   1
  -5   0  -5  658.48   21.14   1
  -5   0  -5  644.67   24.23   1
  -5   0  -5  650.97   24.16   1
  -5   0  -5  647.13   22.32   1
  -5   0  -5  657.80   17.80   1
  -5   0  -5  651.81   17.51   1
   5   0   5  596.94   24.71   1
   5   0   5  583.98   25.22   1
   5   0   5  626.03   33.54   1
  -6   0  -5   45.29    3.09   1
  -6   0  -5   36.46    3.69   1
   6   0   5   46.91    4.01   1
  -7   0  -5  107.56    6.63   1
  -7   0  -5   99.19    6.67   1
   7   0   5  103.41    5.66   1
   8  -1  -5    1.07    3.89   1
  -8   1   5   -0.68    3.89   1
   7  -1  -5   27.44    3.52   1
  -7   1   5   19.65    3.33   1
  -7   1   5   16.88    3.23   1
  -7   1   5   19.00    2.56   1
   6  -1  -5   57.72    4.10   1
   6  -1  -5   41.01    3.42   1
  -6   1   5   50.04    3.01   1
  -6   1   5   48.64    3.64   1
   5  -1  -5   32.29    3.04   1
   5  -1  -5   35.52    3.15   1
  -5   1   5   31.74    2.33   1
  -5   1   5   27.43    2.08   1
  -5   1   5   27.35    1.67   1
  -5   1   5   28.34    1.83   1
  -5   1   5   26.78    2.65   1
   4  -1  -5  226.93    7.29   1
   4  -1  -5  233.67    7.61   1
   4  -1  -5  242.37    8.38   1
  -4   1   5  231.81   15.62   1
  -4   1   5  250.55    7.40   1
  -4   1   5  241.85   18.56   1
  -4   1   5  237.44    7.53   1
  -4   1   5  236.39   10.18   1
   3  -1  -5  271.51   10.21   1
   3  -1  -5  277.72   12.46   1
   3  -1  -5  279.13    5.92   1
  -3   1   5  297.69    8.24   1
  -3   1   5  281.90   15.63   1
  -3   1   5  297.25    9.41   1
  -3   1   5  280.03    8.79   1
  -3   1   5  288.97   12.11   1
  -3   1   5  293.64   18.71   1
  -3   1   5  289.68   12.57   1
   2  -1  -5   21.79    1.53   1
   2  -1  -5   26.96    1.16   1
   2  -1  -5   29.11    1.84   1
   2  -1  -5   26.24    1.55   1
  -2   1   5   25.87    1.60   1
  -2   1   5   24.72    1.60   1
  -2   1   5   24.26    1.31   1
  -2   1   5   23.70    1.45   1
  -2   1   5   25.62    1.21   1
  -2   1   5   26.20    1.53   1
   1  -1  -5   27.76    1.82   1
   1  -1  -5   29.65    1.82   1
   1  -1  -5   29.20    1.46   1
   1  -1  -5   30.85    1.41   1
  -1   1   5   29.87    1.05   1
  -1   1   5   28.96    1.89   1
  -1   1   5   32.67    1.21   1
  -1   1   5   29.28    1.62   1
  -1   1   5   33.39    1.21   1
   0  -1  -5   25.96    1.09   1
   0  -1  -5   26.13    1.41   1
   0  -1  -5   27.15    1.50   1
   0  -1  -5   26.62    1.71   1
   0  -1  -5   26.96    1.43   1
   0   1   5   23.50    1.78   1
   0   1   5   27.80    1.46   1
   0   1   5   24.40    1.53   1
   0   1   5   25.67    1.18   1
   0   1   5   26.17    1.67   1
  -1  -1  -5   14.24    1.41   1
  -1  -1  -5   12.78    1.17   1
  -1  -1  -5   13.77    1.43   1
  -1  -1  -5   12.27    1.28   1
  -1  -1  -5   12.27    0.78   1
   1   1   5   13.27    0.88   1
   1   1   5   13.68    1.49   1
   1   1   5   13.53    0.57   1
   1   1   5   11.47    1.41   1
   1   1   5   14.26    0.57   1
   1   1   5   12.75    1.43   1
   1   1   5   15.54    1.51   1
  -2  -1  -5   56.40    3.29   1
  -2  -1  -5   54.73    2.65   1
  -2  -1  -5   56.90    1.92   1
  -2  -1  -5   62.41    2.05   1
  -2  -1  -5   59.48    2.85   1
  -2  -1  -5   56.24    2.43   1
  -2  -1  -5   62.83    2.05   1
   2   1   5   60.18    1.79   1
   2   1   5   61.02    2.38   1
   2   1   5   59.62    2.38   1
   2   1   5   59.80    2.25   1
   2   1   5   62.65    2.82   1
   2   1   5   58.39    2.01   1
   2   1   5   64.56    2.87   1
  -3  -1  -5   11.77    0.78   1
  -3  -1  -5   11.49    0.78   1
  -3  -1  -5    9.26    1.32   1
  -3  -1  -5    7.70    1.51   1
  -3  -1  -5   10.24    2.02   1
   3   1   5   11.85    1.37   1
   3   1   5    8.92    1.80   1
   3   1   5   11.96    2.40   1
   3   1   5   12.44    0.84   1
   3   1   5   10.69    0.81   1
  -4  -1  -5    0.00    0.86   1
  -4  -1  -5    1.69    0.92   1
  -4  -1  -5    1.35    1.72   1
  -4  -1  -5    1.17    1.20   1
   4   1   5    0.98    0.68   1
   4   1   5    0.71    1.88   1
   4   1   5    1.57    0.68   1
   4   1   5    1.17    1.54   1
   4   1   5   -0.86    1.79   1
  -5  -1  -5   -0.52    2.22   1
  -5  -1  -5    0.23    1.63   1
   5   1   5    1.86    3.49   1
   5   1   5    3.36    2.47   1
  -6  -1  -5    9.46    2.91   1
  -6  -1  -5    4.24    2.03   1
   6   1   5    7.88    2.88   1
  -7  -1  -5   12.41    3.41   1
   7   1   5   17.93    4.17   1
   8  -2  -5   20.22    4.79   1
  -8   2   5   14.10    4.97   1
   7  -2  -5   13.87    2.97   1
  -7   2   5   10.46    2.76   1
  -7   2   5   13.46    3.16   1
   6  -2  -5   13.72    2.76   1
   6  -2  -5   13.13    2.65   1
  -6   2   5    6.22    1.94   1
  -6   2   5    6.73    3.46   1
  -6   2   5    7.29    2.39   1
   5  -2  -5   10.26    2.14   1
   5  -2  -5    5.92    1.92   1
  -5   2   5    5.05    1.52   1
  -5   2   5    7.90    2.06   1
  -5   2   5    5.89    1.60   1
  -5   2   5    2.59    1.49   1
   4  -2  -5    2.74    1.72   1
   4  -2  -5    0.59    1.18   1
  -4   2   5    0.67    1.85   1
  -4   2   5    0.62    1.13   1
  -4   2   5   -0.08    0.90   1
  -4   2   5    0.00    0.54   1
   3  -2  -5   98.24    4.17   1
   3  -2  -5   92.79    2.90   1
   3  -2  -5   94.68    4.96   1
  -3   2   5   99.21    3.55   1
  -3   2   5   93.04    3.23   1
  -3   2   5   95.80    5.45   1
  -3   2   5   95.16    3.52   1
  -3   2   5   93.79    3.67   1
  -3   2   5   94.89    4.23   1
   2  -2  -5  553.75   15.60   1
   2  -2  -5  527.54   13.36   1
   2  -2  -5  517.81   16.58   1
  -2   2   5  557.79   15.79   1
  -2   2   5  573.63   21.17   1
  -2   2   5  562.46   12.54   1
  -2   2   5  565.22   29.46   1
  -2   2   5  562.42   12.02   1
  -2   2   5  538.74   16.94   1
   1  -2  -5   15.06    0.81   1
   1  -2  -5   15.00    1.59   1
   1  -2  -5   15.00    1.18   1
   1  -2  -5   13.22    1.23   1
  -1   2   5   14.62    0.91   1
  -1   2   5   16.15    1.67   1
  -1   2   5   15.39    1.33   1
  -1   2   5   14.02    1.49   1
  -1   2   5   14.26    1.13   1
  -1   2   5   14.03    1.10   1
  -1   2   5   14.86    1.36   1
   0  -2  -5  533.61   13.35   1
   0  -2  -5  518.46   19.60   1
   0  -2  -5  520.30   25.72   1
   0  -2  -5  521.71   29.67   1
   0  -2  -5  513.04   17.05   1
   0   2   5  514.15   12.09   1
   0   2   5  515.87   17.87   1
   0   2   5  528.53    9.92   1
   0   2   5  529.18    9.92   1
   0   2   5  523.58   17.15   1
   0   2   5  554.49   15.76   1
   0   2   5  558.61   11.96   1
  -1  -2  -5  833.17   38.60   1
  -1  -2  -5  808.37   23.50   1
  -1  -2  -5  835.05   22.78   1
  -1  -2  -5  803.17   25.97   1
   1   2   5  783.15   20.22   1
   1   2   5  782.81   20.66   1
   1   2   5  785.28   11.58   1
   1   2   5  863.39   25.27   1
   1   2   5  875.35   22.23   1
   1   2   5  814.04   18.21   1
   1   2   5  813.48   22.97   1
   1   2   5  806.63   15.72   1
   1   2   5  782.74   24.95   1
   1   2   5  814.06   22.34   1
  -2  -2  -5   62.35    2.20   1
  -2  -2  -5   61.29    2.87   1
  -2  -2  -5   64.15    2.83   1
   2   2   5   69.47    3.19   1
   2   2   5   64.92    3.21   1
   2   2   5   64.40    5.54   1
  -3  -2  -5  278.66   13.16   1
  -3  -2  -5  276.13    9.15   1
  -3  -2  -5  276.34    8.92   1
   3   2   5  256.05   14.21   1
   3   2   5  272.37    9.53   1
   3   2   5  285.81    8.53   1
  -4  -2  -5    8.96    2.75   1
  -4  -2  -5   10.31    1.66   1
   4   2   5   14.92    3.15   1
   4   2   5    9.34    2.86   1
  -5  -2  -5    9.70    2.70   1
  -5  -2  -5    8.58    2.46   1
   5   2   5    8.37    3.59   1
   5   2   5   12.82    3.78   1
  -6  -2  -5   34.63    3.63   1
  -6  -2  -5   33.91    3.38   1
   6   2   5   40.68    3.99   1
   6   2   5   38.32    3.97   1
  -7  -2  -5   14.63    3.70   1
   7   2   5   21.11    3.93   1
   8  -3  -5    9.15    3.61   1
  -8   3   5    5.19    4.14   1
  -8   3   5    1.19    3.70   1
   7  -3  -5  141.79    6.13   1
   7  -3  -5  124.61    6.37   1
  -7   3   5  128.87    7.83   1
  -7   3   5  121.86    6.90   1
   6  -3  -5   54.74    3.41   1
   6  -3  -5   63.46    3.64   1
  -6   3   5   44.44    3.42   1
   5  -3  -5   57.22    3.08   1
   5  -3  -5   55.81    2.97   1
  -5   3   5   52.40    2.34   1
  -5   3   5   47.16    2.71   1
  -5   3   5   54.15    3.35   1
   4  -3  -5  107.04    4.64   1
   4  -3  -5  108.14    3.68   1
   4  -3  -5  105.20    4.47   1
   4  -3  -5   95.47    4.78   1
  -4   3   5   97.33    3.88   1
  -4   3   5  107.21    4.52   1
  -4   3   5  102.29    4.47   1
  -4   3   5   94.37    7.76   1
   3  -3  -5   85.79    2.83   1
   3  -3  -5   81.89    2.96   1
   3  -3  -5   89.49    3.07   1
   3  -3  -5   87.01    2.86   1
  -3   3   5   88.99    5.65   1
  -3   3   5   86.61    3.24   1
  -3   3   5   81.72    3.28   1
   2  -3  -5   21.46    1.91   1
   2  -3  -5   25.78    1.63   1
   2  -3  -5   21.61    1.61   1
   2  -3  -5   22.52    0.95   1
  -2   3   5   19.90    2.05   1
  -2   3   5   24.44    1.63   1
  -2   3   5   25.32    1.89   1
  -2   3   5   24.99    1.68   1
  -2   3   5   26.60    1.75   1
  -2   3   5   21.00    1.44   1
  -2   3   5   25.90    1.99   1
  -2   3   5   24.88    1.84   1
   1  -3  -5    3.71    1.10   1
   1  -3  -5    4.77    1.26   1
   1  -3  -5    2.01    1.40   1
   1  -3  -5    4.09    0.65   1
   1  -3  -5    3.99    1.04   1
   1  -3  -5    4.48    1.43   1
  -1   3   5    3.80    1.10   1
  -1   3   5    5.39    1.26   1
  -1   3   5    4.12    1.40   1
  -1   3   5    2.92    1.01   1
  -1   3   5    2.73    1.40   1
  -1   3   5    4.25    1.10   1
  -1   3   5    3.44    1.04   1
   0  -3  -5    0.55    0.97   1
   0  -3  -5    1.27    1.49   1
   0  -3  -5    0.86    1.22   1
   0  -3  -5    2.30    1.45   1
   0   3   5   -0.19    1.28   1
   0   3   5    1.13    0.53   1
   0   3   5    0.33    0.69   1
   0   3   5    0.55    0.50   1
   0   3   5    0.14    0.72   1
   0   3   5    1.94    1.50   1
   0   3   5    0.72    0.86   1
   0   3   5    1.77    1.33   1
  -1  -3  -5   22.43    1.51   1
  -1  -3  -5   22.64    1.73   1
  -1  -3  -5   22.19    1.63   1
   1   3   5   24.61    0.92   1
   1   3   5   23.50    1.78   1
   1   3   5   20.62    2.13   1
   1   3   5   25.24    0.80   1
   1   3   5   17.12    2.44   1
   1   3   5   23.90    1.63   1
  -2  -3  -5   22.46    2.32   1
  -2  -3  -5   18.54    1.65   1
  -2  -3  -5   18.40    1.61   1
   2   3   5   18.33    1.94   1
   2   3   5   21.52    1.75   1
   2   3   5   21.02    2.39   1
   2   3   5   23.93    2.53   1
  -3  -3  -5   -0.77    1.13   1
  -3  -3  -5    0.26    2.12   1
  -3  -3  -5   -0.43    1.12   1
   3   3   5   -0.08    2.53   1
   3   3   5   -1.36    1.72   1
  -4  -3  -5    2.87    2.44   1
  -4  -3  -5    1.14    1.60   1
   4   3   5    3.42    2.56   1
   4   3   5    0.92    2.56   1
  -5  -3  -5   33.80    3.22   1
  -5  -3  -5   41.76    3.72   1
   5   3   5   43.56    4.04   1
   5   3   5   37.78    3.86   1
  -6  -3  -5    3.45    4.48   1
   6   3   5    6.43    3.74   1
   6   3   5    7.68    3.62   1
   8  -4  -5    0.07    3.38   1
  -8   4   5   -0.53    4.52   1
  -8   4   5   -1.37    3.14   1
   7  -4  -5   15.01    2.79   1
   7  -4  -5   17.40    3.01   1
  -7   4   5   15.74    3.61   1
   6  -4  -5   95.95    5.17   1
   6  -4  -5  102.60    4.95   1
  -6   4   5  103.96    5.12   1
   5  -4  -5   70.65    3.23   1
   5  -4  -5   58.33    3.73   1
   5  -4  -5   67.36    3.17   1
   5  -4  -5   60.52    3.75   1
  -5   4   5   59.52    3.73   1
  -5   4   5   61.11    3.25   1
   4  -4  -5   54.60    2.55   1
   4  -4  -5   47.38    2.99   1
   4  -4  -5   48.44    2.81   1
   4  -4  -5   52.48    2.86   1
  -4   4   5   53.22    3.56   1
  -4   4   5   53.30    2.75   1
   3  -4  -5   51.17    2.57   1
   3  -4  -5   58.34    2.27   1
   3  -4  -5   53.32    2.55   1
  -3   4   5   61.35    3.65   1
  -3   4   5   55.78    3.59   1
  -3   4   5   58.05    3.03   1
   2  -4  -5    3.49    1.43   1
   2  -4  -5    4.08    0.39   1
   2  -4  -5    2.87    1.44   1
   2  -4  -5    4.57    1.60   1
   2  -4  -5    4.53    0.52   1
  -2   4   5    6.59    2.12   1
  -2   4   5    3.10    2.15   1
  -2   4   5    2.38    2.05   1
  -2   4   5    1.56    1.53   1
  -2   4   5    8.12    2.18   1
  -2   4   5    3.09    1.82   1
   1  -4  -5  203.24    6.93   1
   1  -4  -5  199.86   11.78   1
   1  -4  -5  199.63    7.85   1
   1  -4  -5  196.11    6.01   1
   1  -4  -5  191.28    6.08   1
  -1   4   5  199.28    5.50   1
  -1   4   5  190.73    5.70   1
  -1   4   5  198.68    6.29   1
  -1   4   5  202.73    6.33   1
  -1   4   5  202.09    6.61   1
  -1   4   5  204.36    7.32   1
   0  -4  -5   81.90    3.97   1
   0  -4  -5   86.71    4.06   1
   0   4   5   87.29    3.25   1
   0   4   5   84.52    3.65   1
   0   4   5   86.04    2.58   1
   0   4   5   87.10    3.72   1
   0   4   5   89.77    3.18   1
   0   4   5   87.48    2.84   1
   0   4   5   83.34    3.59   1
  -1  -4  -5    5.62    5.42   1
  -1  -4  -5   10.01    2.11   1
  -1  -4  -5    9.47    1.62   1
   1   4   5    8.67    2.31   1
   1   4   5   11.10    0.51   1
   1   4   5    7.16    2.28   1
   1   4   5   11.58    1.74   1
   1   4   5   11.82    0.54   1
  -2  -4  -5  148.52    7.37   1
  -2  -4  -5  146.89    5.62   1
   2   4   5  135.82    4.24   1
   2   4   5  148.52    6.29   1
   2   4   5  141.72    6.34   1
  -3  -4  -5  143.76    7.61   1
  -3  -4  -5  150.81   10.67   1
   3   4   5  138.78    7.07   1
   3   4   5  133.01    8.02   1
  -4  -4  -5    3.29    3.77   1
  -4  -4  -5    5.43    3.06   1
   4   4   5    2.83    3.25   1
   4   4   5    2.28    3.12   1
  -5  -4  -5   19.49    3.37   1
  -5  -4  -5   17.82    2.67   1
   5   4   5   20.18    3.64   1
   5   4   5   20.39    4.44   1
   6   4   5   -1.14    5.46   1
   7  -5  -5  182.12    7.58   1
   7  -5  -5  169.72    8.69   1
  -7   5   5  166.29    9.76   1
   6  -5  -5    5.69    2.50   1
   6  -5  -5    9.75    3.61   1
   6  -5  -5    5.98    3.09   1
   6  -5  -5    1.79    3.02   1
  -6   5   5    0.13    3.61   1
  -6   5   5    2.15    2.34   1
   5  -5  -5   16.60    2.37   1
   5  -5  -5   13.84    2.49   1
   5  -5  -5   15.40    2.59   1
   5  -5  -5   15.99    2.37   1
  -5   5   5   17.92    3.08   1
  -5   5   5   14.36    2.59   1
   4  -5  -5    8.92    1.82   1
   4  -5  -5    2.76    2.23   1
   4  -5  -5    7.45    1.70   1
   4  -5  -5    2.96    2.20   1
  -4   5   5    7.82    2.92   1
  -4   5   5    2.01    2.74   1
   3  -5  -5    6.83    1.86   1
   3  -5  -5    5.74    1.80   1
   3  -5  -5   10.68    1.72   1
  -3   5   5    8.69    2.27   1
  -3   5   5    3.80    1.72   1
   2  -5  -5   20.03    1.19   1
   2  -5  -5   16.88    1.78   1
   2  -5  -5   14.47    1.71   1
   2  -5  -5   20.98    0.95   1
   2  -5  -5   20.34    1.66   1
  -2   5   5   15.76    2.22   1
  -2   5   5   17.22    2.73   1
   1  -5  -5    3.24    1.08   1
   1  -5  -5    0.07    1.08   1
   1  -5  -5    1.28    1.33   1
   1  -5  -5   -0.03    1.30   1
   1  -5  -5    0.88    0.66   1
  -1   5   5    2.66    2.36   1
  -1   5   5   -0.15    1.40   1
  -1   5   5    0.29    0.86   1
  -1   5   5    1.08    0.89   1
  -1   5   5    0.56    0.89   1
  -1   5   5    0.98    0.93   1
   0  -5  -5   23.38    2.01   1
   0  -5  -5   24.54    1.37   1
   0  -5  -5   24.40    1.83   1
   0  -5  -5   22.13    1.32   1
   0   5   5   23.13    1.57   1
   0   5   5   24.42    1.27   1
   0   5   5   25.53    1.30   1
   0   5   5   25.27    2.20   1
   0   5   5   22.04    3.12   1
   0   5   5   23.86    1.46   1
  -1  -5  -5   32.17    2.36   1
  -1  -5  -5   35.80    2.52   1
   1   5   5   28.83    1.77   1
   1   5   5   32.60    3.23   1
   1   5   5   31.13    2.54   1
   1   5   5   33.06    3.69   1
   1   5   5   31.54    1.77   1
  -2  -5  -5   -0.27    1.34   1
  -2  -5  -5    1.12    1.72   1
   2   5   5    0.60    2.14   1
   2   5   5    0.40    1.22   1
   2   5   5   -0.72    2.09   1
  -3  -5  -5   37.47    3.45   1
  -3  -5  -5   38.30    3.36   1
   3   5   5   28.44    3.57   1
   3   5   5   25.57    4.26   1
  -4  -5  -5    9.84    3.19   1
  -4  -5  -5    7.74    2.66   1
   4   5   5    9.96    3.63   1
   4   5   5   11.20    3.74   1
  -5  -5  -5    8.67    3.74   1
   5   5   5   12.92    4.22   1
   5   5   5   10.57    4.30   1
   7  -6  -5    8.57    3.81   1
   7  -6  -5    6.96    3.55   1
  -7   6   5    9.08    4.51   1
   6  -6  -5   27.29    3.45   1
   6  -6  -5   30.74    3.61   1
   6  -6  -5   35.36    4.66   1
   6  -6  -5   23.91    3.29   1
  -6   6   5   20.43    3.36   1
  -6   6   5   24.91    3.85   1
   5  -6  -5   35.15    3.72   1
   5  -6  -5   39.17    2.88   1
   5  -6  -5   35.79    2.85   1
   5  -6  -5   38.89    3.91   1
  -5   6   5   34.47    4.43   1
   4  -6  -5  118.73    4.76   1
   4  -6  -5  136.85    5.16   1
   4  -6  -5  121.84    4.71   1
   4  -6  -5  125.52    5.03   1
  -4   6   5  122.54    5.20   1
  -4   6   5  124.21    6.51   1
   3  -6  -5    7.35    1.67   1
   3  -6  -5    3.38    1.97   1
   3  -6  -5    3.65    1.97   1
  -3   6   5    7.17    3.52   1
  -3   6   5    1.88    3.20   1
   2  -6  -5  159.82    7.33   1
   2  -6  -5  156.48    6.12   1
   2  -6  -5  175.19    7.16   1
   2  -6  -5  171.48    7.40   1
  -2   6   5  163.49    6.42   1
  -2   6   5  181.51    7.10   1
   1  -6  -5   80.89    5.68   1
   1  -6  -5   84.23    3.57   1
   1  -6  -5   85.13    5.38   1
   1  -6  -5   74.50    2.93   1
   1  -6  -5   70.80    2.93   1
   1  -6  -5   88.69    5.38   1
  -1   6   5   83.90    5.23   1
  -1   6   5   71.95    4.20   1
   0  -6  -5   -0.05    1.12   1
   0  -6  -5   -0.10    1.40   1
   0  -6  -5    0.47    1.29   1
   0   6   5    1.21    2.23   1
   0   6   5   -0.77    2.20   1
   0   6   5   -0.10    1.52   1
  -1  -6  -5    8.45    2.12   1
   1   6   5    2.86    2.62   1
   1   6   5    6.82    3.75   1
   1   6   5   11.85    2.04   1
  -2  -6  -5    6.21    2.49   1
  -2  -6  -5   12.27    3.79   1
   2   6   5    9.27    2.14   1
   2   6   5    7.10    3.46   1
   2   6   5    5.40    3.40   1
  -3  -6  -5    7.27    2.53   1
   3   6   5    7.77    3.39   1
   3   6   5    8.55    3.65   1
  -4  -6  -5   10.11    3.24   1
  -4  -6  -5   11.53    3.95   1
   4   6   5    7.29    4.54   1
   4   6   5   16.78    6.27   1
   6  -7  -5    1.11    5.17   1
   6  -7  -5    4.26    5.40   1
  -6   7   5   -0.10    5.04   1
  -6   7   5    0.72    4.58   1
   5  -7  -5    2.29    4.49   1
   5  -7  -5    2.44    4.39   1
  -5   7   5    3.48    3.26   1
  -5   7   5    2.10    3.63   1
   4  -7  -5    7.02    1.82   1
   4  -7  -5    3.73    3.82   1
   4  -7  -5    6.62    1.82   1
   4  -7  -5    2.60    3.70   1
  -4   7   5    1.88    4.20   1
  -4   7   5    5.76    3.46   1
   3  -7  -5    1.11    1.48   1
   3  -7  -5    2.78    2.49   1
   3  -7  -5    0.62    2.39   1
  -3   7   5    1.25    7.18   1
  -3   7   5    1.97    3.28   1
   2  -7  -5   35.27    2.92   1
   2  -7  -5   32.37    2.53   1
   2  -7  -5   37.79    2.69   1
  -2   7   5   31.56    3.63   1
  -2   7   5   32.47    3.70   1
   1  -7  -5    5.71    2.01   1
   1  -7  -5    1.78    2.37   1
  -1   7   5    3.70    3.80   1
  -1   7   5    1.82    3.44   1
   0  -7  -5   86.81    4.98   1
   0  -7  -5   99.10    4.08   1
   0  -7  -5   94.29    5.86   1
   0   7   5   86.94    4.68   1
   0   7   5   82.80    5.86   1
   0   7   5   79.08    5.77   1
  -1  -7  -5   -1.37    2.82   1
  -1  -7  -5    0.07    1.79   1
   1   7   5    1.22    1.77   1
   1   7   5   -0.93    3.04   1
   1   7   5    1.94    4.22   1
  -2  -7  -5  103.58    7.22   1
  -2  -7  -5  105.20    5.41   1
   2   7   5   92.44    7.18   1
   2   7   5   93.36    7.39   1
   5  -8  -5   56.80    4.47   1
   5  -8  -5   48.57    5.21   1
  -5   8   5   56.60    5.50   1
  -5   8   5   63.97    5.24   1
   4  -8  -5   14.99    2.94   1
   4  -8  -5   13.46    2.94   1
  -4   8   5   18.07    3.93   1
  -4   8   5   23.42    4.13   1
   3  -8  -5    5.53    2.54   1
   3  -8  -5    3.18    2.51   1
  -3   8   5    3.12    3.55   1
  -3   8   5    8.27    3.42   1
   2  -8  -5   11.78    2.76   1
  -2   8   5    7.99    5.46   1
  -2   8   5   11.66    4.64   1
   1  -8  -5    0.84    1.90   1
   1  -8  -5   -1.40    2.51   1
  -1   8   5    3.92    5.73   1
  -1   8   5   -0.78    2.56   1
   0  -8  -5   24.92    2.90   1
   0  -8  -5   20.74    3.23   1
   0   8   5   16.89    5.39   1
   0   8   5   17.32    4.25   1
   0   8   5   19.01    2.92   1
  -1  -8  -5    1.09    2.85   1
   1   8   5   -0.87    6.46   1
   1   8   5    0.48    4.22   1
   0   9  -6   -1.81    3.61   1
   0  -9   6   -0.36    3.04   1
  -1   9  -6    3.80    6.54   1
   1  -9   6   -0.40    3.30   1
   1  -9   6    0.20    2.88   1
   1  -9   6    1.49    3.27   1
   1  -9   6    0.46    3.17   1
   1  -9   6    2.15    3.34   1
  -2   9  -6    5.83    6.13   1
   2  -9   6    4.68    3.41   1
   2  -9   6    5.87    4.72   1
   2  -9   6    5.50    4.95   1
   2  -9   6    5.01    2.87   1
   2  -9   6    4.50    3.33   1
  -3   9  -6    9.81    4.33   1
  -3   9  -6   -0.62    5.72   1
   3  -9   6    2.98    5.10   1
   3  -9   6    5.52    3.45   1
   3  -9   6    4.54    3.42   1
   3  -9   6    7.95    5.27   1
   3  -9   6    4.78    2.71   1
   2   8  -6   27.84    4.23   1
  -2  -8   6   28.22    3.81   1
   1   8  -6    3.45    5.50   1
  -1  -8   6    1.92    2.41   1
  -1  -8   6    2.64    3.22   1
  -1  -8   6   -0.23    2.44   1
  -1  -8   6    2.93    2.44   1
  -1  -8   6    2.54    2.51   1
   0   8  -6   -1.23    3.89   1
   0  -8   6    2.12    2.05   1
   0  -8   6    0.37    1.96   1
   0  -8   6    1.00    2.73   1
   0  -8   6    0.05    1.98   1
   0  -8   6   -1.96    2.69   1
  -1   8  -6   42.75    4.18   1
  -1   8  -6   42.49    3.47   1
   1  -8   6   35.85    3.58   1
   1  -8   6   44.29    3.72   1
   1  -8   6   32.30    3.58   1
   1  -8   6   36.99    3.22   1
   1  -8   6   36.98    3.15   1
  -2   8  -6   19.20    3.74   1
  -2   8  -6   15.10    4.28   1
   2  -8   6   12.46    3.42   1
   2  -8   6   12.07    3.44   1
   2  -8   6   14.53    3.37   1
   2  -8   6   16.32    2.49   1
   2  -8   6   11.70    3.30   1
  -3   8  -6   15.63    4.30   1
  -3   8  -6   22.24    3.66   1
   3  -8   6   20.05    3.10   1
   3  -8   6   19.26    3.05   1
   3  -8   6   19.04    3.01   1
   3  -8   6   19.21    3.17   1
   3  -8   6   18.56    3.03   1
  -4   8  -6    1.13    5.90   1
  -4   8  -6    3.31    3.88   1
   4  -8   6    5.72    3.45   1
   4  -8   6    1.77    3.21   1
   4  -8   6    2.78    3.27   1
   4  -8   6    1.38    3.12   1
  -5   8  -6    7.46    5.25   1
   5  -8   6    4.28    3.86   1
   5  -8   6    1.48    3.53   1
   5  -8   6    3.29    3.80   1
   5  -8   6    2.54    3.44   1
   4   7  -6    1.29    2.78   1
   4   7  -6    2.52    3.02   1
  -4  -7   6    3.99    4.26   1
   3   7  -6    1.50    2.66   1
   3   7  -6   -1.34    2.56   1
  -3  -7   6    2.15    2.50   1
   2   7  -6   46.34    4.48   1
  -2  -7   6   41.23    3.26   1
  -2  -7   6   41.58    2.76   1
  -2  -7   6   36.54    2.87   1
  -2  -7   6   43.47    3.64   1
  -2  -7   6   37.20    2.60   1
   1   7  -6   17.60    3.19   1
  -1  -7   6    8.17    1.85   1
  -1  -7   6   12.18    2.08   1
  -1  -7   6   10.15    2.03   1
  -1  -7   6    8.27    1.85   1
   0   7  -6    5.90    2.97   1
   0   7  -6    6.83    2.36   1
   0  -7   6    0.64    2.81   1
   0  -7   6    3.48    2.23   1
   0  -7   6    1.12    2.84   1
   0  -7   6    2.97    2.23   1
   0  -7   6   -0.61    1.98   1
  -1   7  -6   25.77    2.84   1
  -1   7  -6   26.26    3.15   1
   1  -7   6   18.23    2.34   1
   1  -7   6   19.87    2.30   1
   1  -7   6   20.81    2.34   1
   1  -7   6   19.08    2.34   1
   1  -7   6   23.89    2.39   1
  -2   7  -6   22.43    2.62   1
  -2   7  -6   27.24    3.20   1
  -2   7  -6   24.46    2.96   1
   2  -7   6   19.01    3.08   1
   2  -7   6   13.24    2.81   1
   2  -7   6   21.75    3.05   1
   2  -7   6   24.18    2.62   1
   2  -7   6   17.88    2.83   1
  -3   7  -6    0.99    1.89   1
  -3   7  -6    2.35    3.13   1
   3  -7   6    4.62    2.76   1
   3  -7   6    0.31    2.35   1
   3  -7   6    1.30    2.54   1
   3  -7   6    0.75    2.48   1
   3  -7   6    2.75    2.32   1
  -4   7  -6  206.64    9.64   1
  -4   7  -6  201.38   13.37   1
   4  -7   6  229.43    7.46   1
   4  -7   6  218.20    8.88   1
   4  -7   6  226.62   10.33   1
   4  -7   6  209.40    7.61   1
   5  -7   6   15.57    3.15   1
   5  -7   6   16.73    3.13   1
   5  -7   6   23.53    3.42   1
   5  -7   6   17.02    3.06   1
  -6   7  -6   13.74    5.33   1
   6  -7   6    5.59    3.54   1
   6  -7   6    7.67    3.63   1
   6  -7   6    6.46    3.29   1
   6  -7   6    2.33    3.43   1
   5   6  -6   23.45    4.55   1
   5   6  -6   18.43    3.47   1
  -5  -6   6   13.39    4.55   1
   4   6  -6    8.89    2.87   1
   4   6  -6   12.41    3.97   1
  -4  -6   6    6.70    2.98   1
   3   6  -6   30.04    3.68   1
   3   6  -6   37.91    3.90   1
  -3  -6   6   32.95    2.63   1
  -3  -6   6   30.80    2.63   1
  -3  -6   6   35.78    3.44   1
   2   6  -6    9.78    2.59   1
  -2  -6   6   13.08    2.46   1
  -2  -6   6   12.40    2.56   1
  -2  -6   6    6.69    2.29   1
   1   6  -6    9.48    1.17   1
   1   6  -6    9.97    2.51   1
  -1  -6   6    7.46    1.83   1
  -1  -6   6    5.23    1.69   1
  -1  -6   6    6.80    1.82   1
  -1  -6   6    5.77    1.71   1
  -1  -6   6    8.83    2.74   1
   0   6  -6   12.57    2.86   1
   0   6  -6   14.98    1.87   1
   0  -6   6   12.05    1.79   1
   0  -6   6   13.20    2.09   1
   0  -6   6   15.13    2.09   1
   0  -6   6   10.48    1.82   1
   0  -6   6   11.67    2.09   1
   0  -6   6    9.98    1.74   1
   0  -6   6   12.62    1.87   1
  -1   6  -6    9.51    2.19   1
  -1   6  -6    9.96    2.39   1
  -1   6  -6   10.84    2.66   1
   1  -6   6    8.48    1.94   1
   1  -6   6   13.47    2.24   1
   1  -6   6   12.25    1.89   1
   1  -6   6    9.53    1.94   1
   1  -6   6   10.39    2.05   1
   1  -6   6    7.26    1.89   1
   1  -6   6   13.22    1.22   1
  -2   6  -6   18.31    3.35   1
  -2   6  -6   15.69    2.12   1
   2  -6   6   13.62    2.12   1
   2  -6   6   10.66    2.52   1
   2  -6   6    9.98    2.54   1
   2  -6   6   17.23    1.83   1
   2  -6   6   13.65    2.15   1
  -3   6  -6  251.42    9.56   1
  -3   6  -6  245.17    6.49   1
   3  -6   6  235.73    7.92   1
   3  -6   6  246.86    8.21   1
   3  -6   6  231.60    8.45   1
   3  -6   6  237.93    6.83   1
   3  -6   6  234.68    8.36   1
  -4   6  -6    1.42    4.88   1
  -4   6  -6    3.94    1.76   1
   4  -6   6    4.50    2.55   1
   4  -6   6    5.10    2.58   1
   4  -6   6    8.06    2.80   1
   4  -6   6    5.54    2.52   1
  -5   6  -6    1.28    1.55   1
  -5   6  -6    2.60    6.04   1
   5  -6   6    3.10    2.93   1
   5  -6   6    1.52    3.97   1
   5  -6   6    0.00    3.91   1
   5  -6   6   -2.83    2.83   1
  -6   6  -6   67.10    5.55   1
   6  -6   6   75.78    4.30   1
   6  -6   6   59.26    4.10   1
   6  -6   6   68.34    4.62   1
   6  -6   6   75.26    4.49   1
  -7   6  -6    7.84    5.13   1
   7  -6   6    4.55    3.57   1
   7  -6   6    5.65    3.75   1
   7  -6   6    2.91    3.69   1
   7  -6   6    4.15    3.60   1
   5   5  -6    3.50    3.68   1
   5   5  -6    1.00    3.56   1
  -5  -5   6    2.28    3.22   1
   4   5  -6    3.89    2.13   1
   4   5  -6    8.29    2.50   1
  -4  -5   6    6.56    2.13   1
  -4  -5   6    8.69    3.69   1
  -4  -5   6    3.01    2.04   1
   3   5  -6   11.35    3.01   1
   3   5  -6   11.46    2.35   1
  -3  -5   6    7.41    3.21   1
  -3  -5   6    8.68    2.13   1
  -3  -5   6    6.67    2.04   1
   2   5  -6   90.05    3.91   1
  -2  -5   6   92.13    3.08   1
  -2  -5   6  100.90    5.29   1
  -2  -5   6   87.77    3.16   1
   1   5  -6   57.06    3.07   1
   1   5  -6   54.31    3.66   1
  -1  -5   6   54.17    2.76   1
  -1  -5   6   61.28    3.31   1
  -1  -5   6   52.63    2.96   1
   0   5  -6   96.94    4.15   1
   0   5  -6   90.32    3.71   1
   0   5  -6   95.31    4.84   1
   0  -5   6   99.81    3.68   1
   0  -5   6   96.67    6.31   1
   0  -5   6  102.07    4.64   1
   0  -5   6  104.56    4.52   1
   0  -5   6  107.59    4.74   1
   0  -5   6   99.74    6.38   1
   0  -5   6   96.95    5.23   1
  -1   5  -6  139.79    4.32   1
  -1   5  -6  126.47    7.26   1
   1  -5   6  133.46   10.19   1
   1  -5   6  132.12   12.74   1
   1  -5   6  126.96    5.82   1
   1  -5   6  127.83    6.14   1
   1  -5   6  127.83    4.76   1
   1  -5   6  136.61    4.67   1
   1  -5   6  126.12    5.40   1
  -2   5  -6   11.83    1.58   1
  -2   5  -6   15.52    2.34   1
   2  -5   6   14.70    1.85   1
   2  -5   6   14.06    1.41   1
   2  -5   6   14.28    1.80   1
   2  -5   6   13.22    1.82   1
   2  -5   6   10.06    1.63   1
  -3   5  -6    6.26    2.54   1
  -3   5  -6    5.64    1.47   1
   3  -5   6    4.96    1.33   1
   3  -5   6    5.81    2.01   1
   3  -5   6    5.16    1.88   1
   3  -5   6    4.90    1.88   1
   3  -5   6    8.11    1.97   1
  -4   5  -6  162.83   10.60   1
  -4   5  -6  136.49    5.74   1
   4  -5   6  138.06    4.76   1
   4  -5   6  129.85    4.54   1
   4  -5   6  134.98    5.23   1
   4  -5   6  140.54    4.61   1
  -5   5  -6   -0.98    4.26   1
  -5   5  -6   -0.06    1.81   1
   5  -5   6   -0.11    2.87   1
   5  -5   6   -1.39    2.81   1
   5  -5   6   -0.78    2.87   1
   5  -5   6   -0.42    2.77   1
  -6   5  -6   34.14    5.48   1
  -6   5  -6   33.18    2.44   1
   6  -5   6   36.55    3.33   1
   6  -5   6   30.35    2.99   1
   6  -5   6   36.95    3.40   1
   6  -5   6   36.09    3.24   1
  -7   5  -6   -0.36    4.15   1
   7  -5   6    0.50    3.02   1
   7  -5   6   -0.47    2.91   1
   7  -5   6   -1.27    2.74   1
   7  -5   6    3.75    3.08   1
  -6  -4   6   19.06    4.49   1
   5   4  -6    4.93    2.39   1
   5   4  -6    2.63    3.71   1
   5   4  -6    3.31    2.20   1
  -5  -4   6    1.24    2.26   1
  -5  -4   6    1.55    2.32   1
  -5  -4   6    6.16    3.10   1
   4   4  -6  147.55    5.62   1
   4   4  -6  152.40    6.36   1
   4   4  -6  155.35    8.93   1
  -4  -4   6  144.27    5.05   1
  -4  -4   6  143.17    5.28   1
  -4  -4   6  134.48    5.73   1
   3   4  -6   43.18    3.17   1
   3   4  -6   42.61    2.82   1
   3   4  -6   49.44    2.95   1
  -3  -4   6   49.53    2.29   1
  -3  -4   6   40.28    2.13   1
  -3  -4   6   51.66    3.55   1
   2   4  -6   24.79    2.79   1
   2   4  -6   30.99    2.17   1
  -2  -4   6   29.23    1.83   1
  -2  -4   6   29.55    1.81   1
  -2  -4   6   29.80    2.70   1
   1   4  -6   96.93    5.42   1
   1   4  -6   86.36    6.45   1
   1   4  -6   92.10    3.78   1
  -1  -4   6   94.64    5.87   1
  -1  -4   6   95.91    2.88   1
  -1  -4   6   98.84    5.96   1
  -1  -4   6   91.98    2.78   1
  -1  -4   6   93.60    4.23   1
   0   4  -6   13.05    1.30   1
   0   4  -6   16.13    1.74   1
   0   4  -6   12.20    1.69   1
   0   4  -6   13.25    2.04   1
   0   4  -6   16.31    1.44   1
   0  -4   6   17.35    1.72   1
   0  -4   6   16.90    1.54   1
   0  -4   6   15.44    1.52   1
   0  -4   6   17.06    1.57   1
   0  -4   6   10.46    5.93   1
   0  -4   6   14.10    1.47   1
  -1   4  -6   87.38    3.15   1
  -1   4  -6   82.94    4.30   1
  -1   4  -6   82.07    3.53   1
   1  -4   6   81.97    4.62   1
   1  -4   6   83.78    3.83   1
   1  -4   6   80.14    3.06   1
   1  -4   6   80.44    3.42   1
   1  -4   6   81.51    2.78   1
   1  -4   6   80.19    5.11   1
   1  -4   6   85.26    3.21   1
   1  -4   6   85.41    2.82   1
  -2   4  -6   95.87    3.97   1
  -2   4  -6   96.06    3.23   1
  -2   4  -6   89.60    5.12   1
   2  -4   6   84.50    3.99   1
   2  -4   6   91.84    3.31   1
   2  -4   6   96.34    3.11   1
   2  -4   6   92.38    3.05   1
   2  -4   6   90.49    3.33   1
   2  -4   6   92.30    3.12   1
  -3   4  -6    3.25    1.20   1
  -3   4  -6    4.04    1.29   1
  -3   4  -6    3.65    2.36   1
   3  -4   6    5.45    1.67   1
   3  -4   6    6.74    1.79   1
   3  -4   6    7.00    1.73   1
   3  -4   6    5.77    1.73   1
   3  -4   6    5.77    1.42   1
  -4   4  -6   -2.43    3.63   1
  -4   4  -6    3.76    1.83   1
  -4   4  -6    3.16    1.26   1
   4  -4   6    1.83    2.49   1
   4  -4   6    5.77    2.68   1
   4  -4   6    2.65    1.80   1
   4  -4   6    4.04    1.89   1
  -5   4  -6    8.29    1.67   1
  -5   4  -6    6.28    3.93   1
   5  -4   6    8.41    2.10   1
   5  -4   6    9.78    2.21   1
   5  -4   6   11.15    2.21   1
   5  -4   6    8.81    2.08   1
  -6   4  -6    1.04    2.01   1
  -6   4  -6   -0.34    3.94   1
   6  -4   6    1.79    2.66   1
   6  -4   6    3.62    2.74   1
   6  -4   6    4.85    2.78   1
   6  -4   6    2.81    2.81   1
  -7   4  -6   38.86    3.01   1
  -7   4  -6   47.58    5.04   1
   7  -4   6   44.19    3.52   1
   7  -4   6   51.24    3.66   1
   7   3  -6    3.51    4.40   1
  -7  -3   6   -3.51    5.16   1
   6   3  -6   20.44    3.76   1
   6   3  -6   29.04    3.16   1
   6   3  -6   29.97    3.23   1
  -6  -3   6   26.89    4.30   1
   5   3  -6    0.63    1.73   1
   5   3  -6    1.56    3.32   1
   5   3  -6    2.26    1.76   1
  -5  -3   6    1.50    2.79   1
   4   3  -6   59.61    3.80   1
   4   3  -6   61.05    3.24   1
   4   3  -6   61.24    3.19   1
  -4  -3   6   56.03    2.50   1
  -4  -3   6   58.12    2.59   1
  -4  -3   6   59.67    3.59   1
  -4  -3   6   59.79    5.63   1
   3   3  -6  149.83    6.02   1
   3   3  -6  154.75    4.96   1
   3   3  -6  150.53    6.09   1
  -3  -3   6  167.79    6.17   1
  -3  -3   6  154.08    6.39   1
  -3  -3   6  155.13    5.32   1
  -3  -3   6  154.91    5.87   1
   2   3  -6   47.22    2.77   1
   2   3  -6   49.39    2.15   1
  -2  -3   6   52.05    2.86   1
  -2  -3   6   51.92    3.33   1
  -2  -3   6   52.18    3.04   1
  -2  -3   6   45.19    1.97   1
  -2  -3   6   47.17    2.02   1
   1   3  -6   59.63    2.96   1
   1   3  -6   62.43    3.37   1
   1   3  -6   60.69    2.66   1
   1   3  -6   60.74    2.79   1
   1   3  -6   64.56    2.72   1
  -1  -3   6   59.40    3.91   1
  -1  -3   6   69.76    4.28   1
  -1  -3   6   62.06    2.29   1
  -1  -3   6   62.78    2.14   1
  -1  -3   6   62.29    2.53   1
  -1  -3   6   60.46    2.79   1
   0   3  -6   52.54    2.08   1
   0   3  -6   45.28    2.19   1
   0   3  -6   52.50    2.61   1
   0   3  -6   47.74    2.87   1
   0   3  -6   48.66    2.46   1
   0   3  -6   46.17    3.00   1
   0  -3   6   51.70    3.84   1
   0  -3   6   49.89    2.30   1
   0  -3   6   51.28    2.30   1
   0  -3   6   47.92    2.39   1
   0  -3   6   48.91    2.74   1
   0  -3   6   48.32    2.28   1
  -1   3  -6  441.09   10.46   1
  -1   3  -6  462.71   10.92   1
  -1   3  -6  458.57   18.49   1
  -1   3  -6  449.43   17.45   1
  -1   3  -6  443.45   14.51   1
  -1   3  -6  453.23   13.12   1
   1  -3   6  424.40   19.43   1
   1  -3   6  445.98   11.02   1
   1  -3   6  428.98   19.19   1
   1  -3   6  447.61   11.87   1
   1  -3   6  405.16   12.16   1
  -2   3  -6    0.88    1.17   1
  -2   3  -6   -0.03    0.87   1
  -2   3  -6    2.60    0.99   1
  -2   3  -6    1.89    1.43   1
  -2   3  -6    1.06    0.35   1
  -2   3  -6    1.28    0.29   1
  -2   3  -6    1.82    1.17   1
   2  -3   6    1.83    0.78   1
   2  -3   6    1.45    1.22   1
   2  -3   6    0.21    0.99   1
   2  -3   6    2.39    1.11   1
   2  -3   6    1.14    1.03   1
   2  -3   6    1.85    1.10   1
  -3   3  -6   39.01    2.14   1
  -3   3  -6   38.25    2.57   1
  -3   3  -6   43.45    2.50   1
  -3   3  -6   40.17    1.96   1
  -3   3  -6   41.41    2.39   1
   3  -3   6   40.91    2.16   1
   3  -3   6   41.33    2.12   1
   3  -3   6   40.88    2.10   1
   3  -3   6   43.52    2.12   1
   3  -3   6   37.65    2.21   1
  -4   3  -6    0.72    1.30   1
  -4   3  -6    0.52    1.18   1
  -4   3  -6    1.62    1.30   1
  -4   3  -6    0.68    1.24   1
   4  -3   6    2.93    1.63   1
   4  -3   6    3.52    1.76   1
   4  -3   6    2.87    1.60   1
   4  -3   6    0.33    1.50   1
  -5   3  -6   25.51    3.22   1
  -5   3  -6   30.04    2.51   1
   5  -3   6   37.76    2.58   1
   5  -3   6   41.23    2.72   1
   5  -3   6   35.63    2.56   1
   5  -3   6   38.59    2.51   1
  -6   3  -6    0.29    1.58   1
  -6   3  -6    1.68    2.97   1
  -6   3  -6    1.50    1.95   1
   6  -3   6   -1.40    2.50   1
   6  -3   6    1.96    2.56   1
   6  -3   6    1.06    2.48   1
   6  -3   6   -1.00    2.53   1
  -7   3  -6   12.89    2.90   1
  -7   3  -6   24.78    4.27   1
   7  -3   6   20.79    2.71   1
  -8   3  -6    3.48    4.39   1
  -8   3  -6    1.82    5.26   1
   8  -3   6    1.92    4.65   1
   8  -3   6    2.83    4.71   1
   7   2  -6    8.27    3.86   1
  -7  -2   6    7.54    4.62   1
   6   2  -6   17.68    2.03   1
   6   2  -6   10.86    3.26   1
   6   2  -6   17.04    2.42   1
  -6  -2   6    9.47    3.69   1
   5   2  -6    5.39    3.03   1
   5   2  -6    2.93    1.42   1
   5   2  -6    2.40    1.42   1
  -5  -2   6    1.67    3.28   1
   4   2  -6    0.64    1.15   1
   4   2  -6   -0.59    1.79   1
   4   2  -6    0.88    1.13   1
  -4  -2   6    0.81    0.90   1
  -4  -2   6    0.49    1.45   1
  -4  -2   6   -0.07    0.42   1
   3   2  -6   20.10    2.22   1
   3   2  -6   23.86    1.54   1
   3   2  -6   22.18    1.44   1
   3   2  -6   22.04    2.36   1
  -3  -2   6   21.63    2.08   1
  -3  -2   6   22.37    0.90   1
  -3  -2   6   21.77    1.68   1
   2   2  -6    0.20    1.31   1
   2   2  -6    0.71    1.26   1
   2   2  -6    0.26    0.80   1
   2   2  -6   -1.09    1.80   1
   2   2  -6    0.83    0.43   1
  -2  -2   6    0.29    1.06   1
  -2  -2   6    1.37    1.57   1
  -2  -2   6    0.31    1.17   1
  -2  -2   6    0.54    0.86   1
  -2  -2   6    1.00    1.54   1
  -2  -2   6    0.80    0.89   1
   1   2  -6   12.78    1.14   1
   1   2  -6    9.73    1.62   1
   1   2  -6   10.67    1.38   1
   1   2  -6   12.14    0.95   1
   1   2  -6   11.25    1.35   1
   1   2  -6    8.87    1.30   1
  -1  -2   6   11.60    1.49   1
  -1  -2   6   10.65    1.22   1
  -1  -2   6   12.60    1.54   1
  -1  -2   6   12.66    1.27   1
  -1  -2   6   12.28    1.38   1
  -1  -2   6   10.84    1.35   1
   0   2  -6    5.01    0.99   1
   0   2  -6    6.60    1.12   1
   0   2  -6    6.06    1.05   1
   0   2  -6    4.58    1.08   1
   0   2  -6    4.00    1.27   1
   0   2  -6    5.14    1.33   1
   0  -2   6    4.31    0.87   1
   0  -2   6    6.64    1.05   1
   0  -2   6    6.60    0.90   1
   0  -2   6    6.56    1.08   1
   0  -2   6    4.61    0.96   1
  -1   2  -6  200.85    7.01   1
  -1   2  -6  214.33    7.61   1
  -1   2  -6  200.62    8.00   1
  -1   2  -6  205.57    5.02   1
  -1   2  -6  211.10   12.96   1
  -1   2  -6  205.67    7.85   1
   1  -2   6  202.45    5.14   1
   1  -2   6  188.57    4.98   1
   1  -2   6  192.70   10.65   1
   1  -2   6  195.54    6.18   1
   1  -2   6  188.87    7.46   1
  -2   2  -6    2.77    1.37   1
  -2   2  -6    3.44    1.54   1
  -2   2  -6    2.52    0.52   1
  -2   2  -6    1.37    1.28   1
  -2   2  -6    2.84    0.65   1
  -2   2  -6    0.46    1.08   1
   2  -2   6    3.08    1.05   1
   2  -2   6    3.89    1.11   1
   2  -2   6    4.39    1.11   1
   2  -2   6    3.30    1.01   1
   2  -2   6    2.72    1.05   1
  -3   2  -6  103.05    7.58   1
  -3   2  -6  104.36    7.90   1
  -3   2  -6  100.75    5.40   1
  -3   2  -6  108.75    4.93   1
  -3   2  -6  113.95    4.59   1
   3  -2   6  108.79    3.39   1
   3  -2   6  112.34    3.19   1
   3  -2   6  112.52    3.97   1
   3  -2   6  105.30    4.78   1
   3  -2   6  106.18    3.71   1
  -4   2  -6  180.02    8.18   1
  -4   2  -6  168.86    7.47   1
  -4   2  -6  179.55   10.90   1
  -4   2  -6  173.93    6.78   1
   4  -2   6  169.01    4.86   1
   4  -2   6  167.72    4.75   1
   4  -2   6  169.89    5.01   1
   4  -2   6  163.01    4.55   1
  -5   2  -6    4.42    1.82   1
  -5   2  -6    1.12    2.57   1
  -5   2  -6    4.71    1.73   1
  -5   2  -6    2.25    2.86   1
   5  -2   6    9.48    2.01   1
   5  -2   6    6.02    1.75   1
   5  -2   6    8.52    1.91   1
   5  -2   6    3.37    1.76   1
  -6   2  -6  244.69   10.27   1
  -6   2  -6  229.83   14.04   1
  -6   2  -6  236.28    8.49   1
   6  -2   6  231.69    8.88   1
   6  -2   6  230.35    8.45   1
  -7   2  -6    6.41    2.77   1
  -7   2  -6    6.27    4.03   1
   7  -2   6   13.67    3.43   1
   7  -2   6    8.80    3.46   1
  -8   2  -6    3.03    7.09   1
  -8   2  -6   -0.81    4.69   1
   8   1  -6    1.62    4.07   1
  -8  -1   6    1.70    3.49   1
  -8  -1   6    0.33    3.23   1
   7   1  -6   15.34    5.11   1
  -7  -1   6    8.43    4.56   1
   6   1  -6  115.07    5.48   1
   6   1  -6  127.19    7.25   1
  -6  -1   6  132.59    5.85   1
   5   1  -6    0.56    1.07   1
   5   1  -6   -1.93    1.98   1
  -5  -1   6   -0.36    1.09   1
  -5  -1   6   -0.58    1.24   1
  -5  -1   6   -0.18    2.53   1
   4   1  -6  224.30    5.08   1
   4   1  -6  231.74   11.95   1
   4   1  -6  219.21    7.67   1
   4   1  -6  236.27    6.68   1
   4   1  -6  223.94   10.47   1
  -4  -1   6  246.66    8.78   1
  -4  -1   6  255.88   10.47   1
  -4  -1   6  231.57    8.00   1
   3   1  -6  388.68   13.62   1
   3   1  -6  387.88   14.89   1
   3   1  -6  407.78   11.74   1
   3   1  -6  394.81   16.02   1
   3   1  -6  385.60   16.56   1
  -3  -1   6  413.98   11.26   1
  -3  -1   6  407.53   15.92   1
  -3  -1   6  402.90   10.61   1
  -3  -1   6  418.69   16.32   1
  -3  -1   6  424.58   11.84   1
  -3  -1   6  407.75   13.01   1
   2   1  -6  164.18    6.25   1
   2   1  -6  173.58    6.49   1
   2   1  -6  168.85    5.06   1
   2   1  -6  176.24    7.62   1
   2   1  -6  158.39    5.82   1
   2   1  -6  166.76    9.51   1
  -2  -1   6  166.81    3.76   1
  -2  -1   6  163.41    6.68   1
  -2  -1   6  173.68    5.72   1
  -2  -1   6  162.50    5.61   1
  -2  -1   6  165.00    5.58   1
   1   1  -6  155.43    4.24   1
   1   1  -6  139.18    4.53   1
   1   1  -6  151.48    6.65   1
   1   1  -6  142.64    5.49   1
   1   1  -6  159.13    5.44   1
  -1  -1   6  147.01    8.60   1
  -1  -1   6  141.77    5.96   1
  -1  -1   6  150.48    5.20   1
  -1  -1   6  151.03    5.53   1
  -1  -1   6  140.58    6.82   1
   0   1  -6    0.90    0.62   1
   0   1  -6    1.31    0.60   1
   0   1  -6    2.15    0.76   1
   0   1  -6    1.61    0.95   1
   0   1  -6    0.87    0.54   1
   0  -1   6    1.22    0.65   1
   0  -1   6    1.19    0.60   1
   0  -1   6    0.71    0.41   1
   0  -1   6    0.71    0.60   1
   0  -1   6    1.45    0.63   1
  -1   1  -6    1.77    1.01   1
  -1   1  -6    2.63    0.32   1
  -1   1  -6    2.18    0.82   1
  -1   1  -6    2.60    0.60   1
  -1   1  -6    3.14    1.21   1
  -1   1  -6    2.88    0.85   1
  -1   1  -6    1.74    0.79   1
   1  -1   6    3.07    0.32   1
   1  -1   6    2.10    0.95   1
   1  -1   6    2.38    0.98   1
   1  -1   6    3.23    0.85   1
   1  -1   6    1.87    0.95   1
  -2   1  -6    7.70    1.04   1
  -2   1  -6    8.80    0.39   1
  -2   1  -6    5.79    1.82   1
  -2   1  -6    6.98    1.40   1
  -2   1  -6    7.71    1.01   1
  -2   1  -6    9.16    0.42   1
  -2   1  -6    7.03    1.34   1
   2  -1   6    9.44    0.95   1
   2  -1   6   10.31    1.04   1
   2  -1   6    9.43    1.46   1
   2  -1   6    9.83    1.01   1
   2  -1   6    9.05    0.98   1
   2  -1   6    9.16    1.59   1
  -3   1  -6   53.15    2.75   1
  -3   1  -6   51.40    2.11   1
  -3   1  -6   54.83    2.02   1
  -3   1  -6   46.91    2.33   1
   3  -1   6   50.00    1.86   1
   3  -1   6   51.42    1.84   1
   3  -1   6   50.93    1.82   1
   3  -1   6   48.55    1.84   1
   3  -1   6   46.69    2.37   1
   3  -1   6   55.77    2.77   1
  -4   1  -6    0.62    1.49   1
  -4   1  -6    0.29    0.81   1
  -4   1  -6   -0.26    1.56   1
  -4   1  -6    0.26    1.20   1
  -4   1  -6    0.52    1.20   1
   4  -1   6    3.05    1.69   1
   4  -1   6    1.79    1.69   1
   4  -1   6    2.18    1.56   1
   4  -1   6    1.98    2.53   1
   4  -1   6    0.06    1.62   1
  -5   1  -6    5.30    1.72   1
  -5   1  -6    5.42    1.98   1
   5  -1   6    4.27    1.95   1
   5  -1   6    6.33    1.60   1
   5  -1   6    6.73    2.23   1
   5  -1   6    4.87    1.49   1
   5  -1   6    7.99    2.06   1
  -6   1  -6   71.69    4.58   1
  -6   1  -6   69.65    4.13   1
   6  -1   6   82.91    3.17   1
   6  -1   6   83.87    3.26   1
   6  -1   6   69.99    4.28   1
  -7   1  -6   30.71    4.97   1
  -7   1  -6   40.98    3.63   1
   7  -1   6   42.64    3.56   1
   7  -1   6   34.31    3.68   1
   7  -1   6   41.07    3.18   1
  -8   0   6   39.90    5.61   1
  -8   0   6   31.74    3.66   1
   7   0  -6    0.76    2.58   1
  -7   0   6   -0.66    3.59   1
   6   0  -6   20.16    3.15   1
  -6   0   6   14.87    2.37   1
  -6   0   6    9.17    3.30   1
   5   0  -6    9.02    3.12   1
   5   0  -6    6.15    2.38   1
   5   0  -6    8.70    1.70   1
  -5   0   6    4.39    1.39   1
  -5   0   6    5.51    1.90   1
  -5   0   6    3.26    2.72   1
  -5   0   6    6.63    1.16   1
   4   0  -6   98.30    3.90   1
   4   0  -6   99.60    3.68   1
   4   0  -6   94.59    3.81   1
  -4   0   6  108.80    3.73   1
  -4   0   6  105.72    4.13   1
  -4   0   6   99.74    3.98   1
  -4   0   6   98.15    4.26   1
   3   0  -6   72.33    3.32   1
   3   0  -6   73.07    2.99   1
   3   0  -6   74.15    2.50   1
  -3   0   6   74.46    2.61   1
  -3   0   6   77.50    2.99   1
  -3   0   6   76.16    3.10   1
  -3   0   6   75.19    2.56   1
  -3   0   6   76.15    4.63   1
  -3   0   6   76.34    2.71   1
   2   0  -6    1.61    1.36   1
   2   0  -6    1.49    0.81   1
   2   0  -6    1.05    1.40   1
   2   0  -6   -0.03    0.99   1
  -2   0   6    0.56    1.05   1
  -2   0   6    0.22    0.75   1
  -2   0   6   -0.06    0.87   1
  -2   0   6    0.50    0.65   1
   1   0  -6  874.65   21.81   1
   1   0  -6  851.23   27.39   1
   1   0  -6  903.91   26.00   1
   1   0  -6  856.13   32.57   1
   1   0  -6  859.89   38.85   1
   1   0  -6  911.36   29.65   1
  -1   0   6  902.71   32.56   1
  -1   0   6  872.49   22.55   1
  -1   0   6  912.39   19.11   1
  -1   0   6  888.01   30.64   1
   0   0  -6  325.96   10.85   1
   0   0  -6  330.70   16.28   1
   0   0  -6  336.63   17.23   1
   0   0  -6  319.33   13.16   1
   0   0  -6  331.12   11.15   1
   0   0   6  319.70    9.05   1
   0   0   6  318.93    8.97   1
   0   0   6  321.13   18.70   1
   0   0   6  323.30   14.29   1
   0   0   6  328.04    8.29   1
   0   0   6  332.69   11.21   1
   0   0   6  321.30   13.74   1
  -1   0  -6    2.33    1.02   1
  -1   0  -6    1.68    0.83   1
  -1   0  -6    1.53    0.83   1
  -1   0  -6    1.34    0.67   1
  -1   0  -6    2.10    0.86   1
  -1   0  -6    2.93    1.05   1
  -1   0  -6    1.66    1.02   1
   1   0   6    1.02    0.95   1
   1   0   6    2.58    0.29   1
   1   0   6    2.64    0.77   1
   1   0   6    2.17    1.02   1
   1   0   6    2.51    0.99   1
   1   0   6    2.29    0.73   1
  -2   0  -6  441.04   26.46   1
  -2   0  -6  458.16   10.05   1
  -2   0  -6  401.09   18.23   1
  -2   0  -6  464.68   17.07   1
  -2   0  -6  457.06    9.17   1
  -2   0  -6  440.82   20.86   1
  -2   0  -6  422.64   16.32   1
   2   0   6  415.46   17.16   1
   2   0   6  397.96    8.17   1
   2   0   6  416.93   10.99   1
   2   0   6  418.53   11.85   1
   2   0   6  415.41   10.94   1
   2   0   6  407.18   14.15   1
   2   0   6  434.24   22.75   1
   2   0   6  412.35    8.50   1
  -3   0  -6  123.90    5.01   1
  -3   0  -6  117.34    3.17   1
  -3   0  -6  109.76    5.34   1
  -3   0  -6  126.57    4.84   1
  -3   0  -6  126.61    5.06   1
   3   0   6  115.57    2.98   1
   3   0   6  114.09    5.12   1
   3   0   6  109.89    3.71   1
   3   0   6  111.51    3.63   1
   3   0   6  111.56    3.45   1
  -4   0  -6  124.26    5.62   1
  -4   0  -6  126.62    6.17   1
  -4   0  -6  124.28    5.53   1
  -4   0  -6  126.32    5.06   1
   4   0   6  114.69    3.85   1
   4   0   6  121.21    3.88   1
   4   0   6  128.74    4.00   1
   4   0   6  121.67    4.47   1
   4   0   6  120.89    6.26   1
  -5   0  -6   16.64    2.37   1
   5   0   6   17.14    2.61   1
   5   0   6   19.31    1.58   1
   5   0   6   20.66    1.68   1
  -6   0  -6   31.71    3.17   1
   6   0   6   37.64    2.47   1
   6   0   6   37.69    3.93   1
   6   0   6   35.57    2.47   1
  -7   0  -6    1.37    3.74   1
  -7   0  -6    0.46    3.19   1
   7   0   6    3.06    4.62   1
   8  -1  -6   28.23    4.06   1
  -8   1   6   23.88    4.18   1
   7  -1  -6   53.87    4.25   1
  -7   1   6   51.25    4.91   1
  -7   1   6   45.62    3.73   1
  -7   1   6   45.36    3.38   1
   6  -1  -6   10.33    2.75   1
   6  -1  -6   10.44    2.65   1
  -6   1   6    7.21    2.68   1
  -6   1   6    7.29    2.54   1
   5  -1  -6    0.89    1.91   1
   5  -1  -6    2.48    1.99   1
  -5   1   6    0.74    1.05   1
  -5   1   6    1.71    1.94   1
  -5   1   6    1.80    1.62   1
  -5   1   6    1.06    1.14   1
  -5   1   6   -0.83    1.74   1
   4  -1  -6   79.09    3.44   1
   4  -1  -6   81.16    3.44   1
   4  -1  -6   81.75    3.36   1
  -4   1   6   82.99    3.10   1
  -4   1   6   79.08    3.55   1
  -4   1   6   87.40    3.23   1
  -4   1   6   83.23    3.42   1
  -4   1   6   88.59    4.17   1
   3  -1  -6   33.34    1.98   1
   3  -1  -6   36.30    2.05   1
   3  -1  -6   32.81    2.17   1
  -3   1   6   29.15    1.87   1
  -3   1   6   32.51    1.89   1
  -3   1   6   33.26    1.00   1
  -3   1   6   33.45    1.12   1
  -3   1   6   33.81    1.30   1
  -3   1   6   34.74    1.37   1
  -3   1   6   26.50    1.75   1
  -3   1   6   32.62    1.85   1
   2  -1  -6  289.95    9.51   1
   2  -1  -6  311.95    8.90   1
   2  -1  -6  301.73    8.87   1
   2  -1  -6  311.80   12.84   1
  -2   1   6  315.63   16.40   1
  -2   1   6  326.11    9.15   1
  -2   1   6  327.84    7.50   1
  -2   1   6  310.63   10.40   1
  -2   1   6  322.20   14.10   1
   1  -1  -6   -0.39    0.64   1
   1  -1  -6    0.23    0.75   1
   1  -1  -6    0.38    0.53   1
   1  -1  -6   -0.10    0.32   1
  -1   1   6    0.43    0.61   1
  -1   1   6    0.32    0.55   1
  -1   1   6    0.43    0.75   1
  -1   1   6   -0.05    0.54   1
  -1   1   6    0.28    0.46   1
   0  -1  -6    0.76    1.29   1
   0  -1  -6    1.27    0.70   1
   0  -1  -6   -0.34    0.66   1
   0  -1  -6   -0.40    1.01   1
   0  -1  -6    0.03    1.05   1
   0   1   6   -0.50    0.89   1
   0   1   6   -0.34    0.50   1
   0   1   6   -0.23    0.64   1
   0   1   6   -0.28    0.69   1
   0   1   6   -0.55    0.55   1
  -1  -1  -6  178.03    7.18   1
  -1  -1  -6  188.46    6.62   1
  -1  -1  -6  186.03    6.29   1
  -1  -1  -6  188.31    6.18   1
  -1  -1  -6  178.10    5.73   1
   1   1   6  184.67    4.48   1
   1   1   6  170.02    5.15   1
   1   1   6  180.33    4.91   1
   1   1   6  179.05    4.74   1
   1   1   6  181.87   14.46   1
   1   1   6  179.92    4.42   1
   1   1   6  185.50    5.81   1
  -2  -1  -6   37.44    2.01   1
  -2  -1  -6   35.79    1.40   1
  -2  -1  -6   37.77    2.37   1
  -2  -1  -6   35.20    2.35   1
  -2  -1  -6   32.56    2.51   1
   2   1   6   37.75    2.40   1
   2   1   6   41.10    2.73   1
   2   1   6   38.50    1.06   1
   2   1   6   37.85    1.04   1
   2   1   6   36.84    1.06   1
   2   1   6   39.13    1.13   1
   2   1   6   32.80    2.06   1
   2   1   6   36.85    1.45   1
  -3  -1  -6    7.80    0.77   1
  -3  -1  -6    6.99    1.74   1
  -3  -1  -6    7.25    0.74   1
  -3  -1  -6    6.62    1.00   1
  -3  -1  -6    4.31    2.09   1
   3   1   6    8.60    0.80   1
   3   1   6    6.03    2.43   1
   3   1   6    5.51    1.86   1
   3   1   6   10.53    1.37   1
   3   1   6    9.14    0.83   1
  -4  -1  -6   19.35    1.08   1
  -4  -1  -6   15.68    2.17   1
  -4  -1  -6   13.85    1.42   1
  -4  -1  -6   17.81    1.08   1
   4   1   6   19.65    1.15   1
   4   1   6   19.00    2.48   1
   4   1   6   16.81    1.64   1
   4   1   6   21.60    1.21   1
   4   1   6   19.03    2.46   1
  -5  -1  -6    0.61    3.47   1
  -5  -1  -6    2.86    2.18   1
   5   1   6    3.28    2.57   1
   5   1   6    2.98    2.63   1
  -6  -1  -6   19.71    3.25   1
   6   1   6   24.51    4.22   1
  -7  -1  -6   71.93    4.85   1
   7   1   6   57.09    5.05   1
   8  -2  -6    0.72    3.27   1
  -8   2   6    1.22    4.83   1
  -8   2   6   -1.20    2.97   1
   7  -2  -6    1.24    4.06   1
   7  -2  -6    3.20    3.29   1
  -7   2   6   -1.39    4.24   1
  -7   2   6    0.71    2.79   1
   6  -2  -6   12.36    2.57   1
   6  -2  -6   14.61    2.70   1
  -6   2   6    8.55    2.39   1
  -6   2   6    8.92    3.46   1
  -6   2   6    6.37    1.84   1
   5  -2  -6  154.75    5.74   1
   5  -2  -6  155.20    5.15   1
  -5   2   6  159.17    4.21   1
  -5   2   6  164.29    5.55   1
  -5   2   6  159.26   10.09   1
  -5   2   6  149.61   11.45   1
   4  -2  -6  142.54    5.17   1
   4  -2  -6  140.09    4.85   1
  -4   2   6  137.20    4.47   1
  -4   2   6  141.54    4.00   1
  -4   2   6  146.11    5.54   1
   3  -2  -6   43.40    2.11   1
   3  -2  -6   45.84    2.47   1
   3  -2  -6   43.95    2.18   1
  -3   2   6   36.20    2.09   1
  -3   2   6   43.09    1.71   1
  -3   2   6   38.72    2.20   1
  -3   2   6   39.10    3.27   1
  -3   2   6   43.59    2.36   1
  -3   2   6   41.24    1.91   1
   2  -2  -6   11.81    1.86   1
   2  -2  -6   10.44    1.47   1
   2  -2  -6   12.63    0.86   1
  -2   2   6   14.60    1.50   1
  -2   2   6   13.27    1.39   1
  -2   2   6   14.43    1.55   1
  -2   2   6   11.30    0.78   1
  -2   2   6   11.83    1.91   1
  -2   2   6   12.16    1.30   1
   1  -2  -6  123.04    4.14   1
   1  -2  -6  123.46    3.47   1
   1  -2  -6  125.82    6.09   1
   1  -2  -6  126.26    3.49   1
  -1   2   6  121.53    5.98   1
  -1   2   6  138.66    3.73   1
  -1   2   6  127.91    4.07   1
  -1   2   6  136.55    3.71   1
  -1   2   6  131.56    7.61   1
  -1   2   6  139.34    4.20   1
  -1   2   6  136.93    4.24   1
  -1   2   6  125.92    3.73   1
   0  -2  -6  256.26   11.81   1
   0  -2  -6  256.42   12.26   1
   0  -2  -6  250.22   11.93   1
   0  -2  -6  249.74    7.90   1
   0  -2  -6  248.43   10.24   1
   0   2   6  258.20    6.81   1
   0   2   6  262.56   15.72   1
   0   2   6  254.89    7.96   1
   0   2   6  258.17    9.98   1
   0   2   6  255.65    6.89   1
   0   2   6  243.38    7.26   1
   0   2   6  252.50    9.17   1
  -1  -2  -6    3.07    0.95   1
  -1  -2  -6    5.80    1.64   1
  -1  -2  -6    6.07    1.25   1
  -1  -2  -6    2.56    1.58   1
   1   2   6    4.38    0.89   1
   1   2   6    5.68    0.53   1
   1   2   6    3.31    1.58   1
   1   2   6    4.76    1.31   1
   1   2   6    3.03    1.52   1
   1   2   6    5.74    0.48   1
   1   2   6    5.29    0.53   1
   1   2   6    4.38    0.45   1
  -2  -2  -6   61.72    4.65   1
  -2  -2  -6   66.20    2.93   1
  -2  -2  -6   70.17    3.27   1
   2   2   6   69.34    2.65   1
   2   2   6   71.57    2.86   1
   2   2   6   74.95    3.68   1
   2   2   6   70.62    3.42   1
  -3  -2  -6    3.76    1.90   1
  -3  -2  -6    0.56    1.11   1
   3   2   6    1.86    3.04   1
   3   2   6   -0.49    2.97   1
   3   2   6    2.65    1.77   1
  -4  -2  -6   20.75    2.52   1
  -4  -2  -6   14.13    1.97   1
   4   2   6   20.46    3.03   1
   4   2   6   24.04    3.42   1
   4   2   6   15.98    7.75   1
  -5  -2  -6   14.64    2.65   1
  -5  -2  -6   12.20    1.83   1
   5   2   6   18.24    3.11   1
   5   2   6   17.01    3.03   1
  -6  -2  -6    8.12    3.30   1
   6   2   6    9.56    4.59   1
   6   2   6    7.11    3.36   1
   8  -3  -6   59.57    4.63   1
  -8   3   6   52.10    4.45   1
  -8   3   6   54.78    5.22   1
   7  -3  -6    0.88    2.26   1
   7  -3  -6    1.12    2.47   1
  -7   3   6    0.85    3.63   1
  -7   3   6    1.02    2.48   1
   6  -3  -6  319.46   11.02   1
   6  -3  -6  317.54    9.19   1
  -6   3   6  321.83   11.45   1
   5  -3  -6   12.95    2.11   1
   5  -3  -6   11.41    2.05   1
  -5   3   6    9.23    0.99   1
  -5   3   6    9.78    2.37   1
  -5   3   6    8.71    1.64   1
   4  -3  -6    8.64    1.73   1
   4  -3  -6    7.32    1.68   1
  -4   3   6    6.22    0.29   1
  -4   3   6    3.06    1.88   1
  -4   3   6    6.22    1.50   1
  -4   3   6    6.48    0.35   1
   3  -3  -6   16.21    1.64   1
   3  -3  -6   15.59    1.86   1
  -3   3   6   13.10    1.97   1
  -3   3   6   13.85    1.69   1
  -3   3   6   14.41    2.53   1
   2  -3  -6    1.06    1.36   1
  -2   3   6    0.63    1.33   1
  -2   3   6    0.30    1.79   1
  -2   3   6    1.76    1.40   1
  -2   3   6    2.72    1.63   1
  -2   3   6    0.50    1.58   1
  -2   3   6    0.40    1.59   1
  -2   3   6    1.29    1.33   1
  -2   3   6    0.89    1.82   1
   1  -3  -6   45.78    2.11   1
   1  -3  -6   42.20    2.35   1
   1  -3  -6   45.17    2.13   1
   1  -3  -6   45.48    1.75   1
  -1   3   6   53.19    1.93   1
  -1   3   6   48.44    2.42   1
  -1   3   6   48.98    1.98   1
  -1   3   6   47.33    2.42   1
  -1   3   6   43.58    2.55   1
  -1   3   6   45.58    2.11   1
  -1   3   6   45.73    1.91   1
   0  -3  -6  152.42    6.82   1
   0  -3  -6  164.46    8.94   1
   0  -3  -6  166.07    8.06   1
   0  -3  -6  155.81    5.42   1
   0  -3  -6  161.86    7.06   1
   0   3   6  171.90    3.85   1
   0   3   6  181.82    4.98   1
   0   3   6  161.30    6.82   1
   0   3   6  164.70    5.89   1
   0   3   6  165.00    5.71   1
   0   3   6  169.44    5.88   1
   0   3   6  172.55    5.88   1
   0   3   6  176.16    5.04   1
  -1  -3  -6    7.80    1.51   1
  -1  -3  -6    6.42    1.54   1
  -1  -3  -6    3.81    1.42   1
   1   3   6    3.09    1.51   1
   1   3   6    4.60    1.48   1
   1   3   6    6.37    0.41   1
   1   3   6    6.99    0.41   1
   1   3   6    7.01    0.44   1
   1   3   6    7.10    0.44   1
   1   3   6    6.02    0.41   1
   1   3   6    2.53    2.71   1
   1   3   6    7.23    0.44   1
   1   3   6    2.20    2.61   1
  -2  -3  -6  168.95    5.17   1
  -2  -3  -6  162.78    5.59   1
   2   3   6  154.21    9.31   1
   2   3   6  160.27    6.47   1
   2   3   6  158.48    5.75   1
   2   3   6  174.54    6.47   1
  -3  -3  -6   79.18    3.68   1
  -3  -3  -6   75.46    3.64   1
   3   3   6   70.01    4.03   1
   3   3   6   72.20    4.73   1
  -4  -3  -6    7.93    1.78   1
  -4  -3  -6   14.16    2.68   1
   4   3   6    7.11    2.68   1
   4   3   6   11.21    2.86   1
  -5  -3  -6   22.41    2.46   1
  -5  -3  -6   26.28    3.31   1
   5   3   6   25.44    4.37   1
   5   3   6   21.54    3.45   1
  -6  -3  -6   42.64    4.25   1
   6   3   6   45.21    5.49   1
   6   3   6   46.28    5.54   1
   8  -4  -6   -0.43    3.19   1
   8  -4  -6    0.46    2.73   1
  -8   4   6    0.16    3.67   1
  -8   4   6   -2.05    3.60   1
   7  -4  -6    1.31    3.45   1
   7  -4  -6   -1.06    2.41   1
  -7   4   6   -0.31    2.97   1
   6  -4  -6   49.10    3.40   1
   6  -4  -6   52.67    3.40   1
  -6   4   6   39.93    3.60   1
  -6   4   6   41.24    3.16   1
   5  -4  -6  108.40    4.77   1
   5  -4  -6   99.73    4.30   1
  -5   4   6  102.34    4.60   1
  -5   4   6   96.98    5.16   1
   4  -4  -6  186.22    5.17   1
   4  -4  -6  175.49    5.06   1
   4  -4  -6  180.33    6.62   1
   4  -4  -6  186.83    5.15   1
  -4   4   6  188.32    7.57   1
  -4   4   6  180.82    7.46   1
   3  -4  -6   20.95    1.99   1
   3  -4  -6   17.34    1.92   1
   3  -4  -6   22.24    1.94   1
  -3   4   6   21.45    2.35   1
  -3   4   6   19.12    1.85   1
   2  -4  -6  101.59    5.26   1
   2  -4  -6  104.17    4.26   1
   2  -4  -6  104.37    4.32   1
   2  -4  -6  105.70    3.88   1
  -2   4   6  109.61    5.87   1
  -2   4   6  104.48    5.87   1
  -2   4   6  108.21    5.41   1
  -2   4   6  110.67    4.21   1
  -2   4   6  103.44    5.16   1
  -2   4   6  104.44    5.37   1
   1  -4  -6    4.91    1.40   1
   1  -4  -6    3.65    1.06   1
   1  -4  -6    0.73    1.28   1
  -1   4   6    3.74    1.60   1
  -1   4   6    3.13    2.56   1
  -1   4   6    4.22    1.63   1
  -1   4   6    2.17    1.53   1
  -1   4   6    2.05    1.70   1
  -1   4   6    3.99    1.69   1
   0  -4  -6   10.91    1.66   1
   0  -4  -6    6.74    1.77   1
   0  -4  -6   10.94    1.63   1
   0   4   6   12.88    1.03   1
   0   4   6    8.73    2.20   1
   0   4   6    9.91    0.97   1
   0   4   6   12.73    1.06   1
   0   4   6    8.26    2.23   1
   0   4   6   14.28    1.11   1
   0   4   6    7.57    2.14   1
  -1  -4  -6   84.63    3.40   1
  -1  -4  -6   81.08    2.99   1
   1   4   6   79.25    2.07   1
   1   4   6   79.30    2.13   1
   1   4   6   84.09    3.33   1
   1   4   6   80.90    4.33   1
   1   4   6   82.89    4.05   1
  -2  -4  -6   92.85    4.47   1
  -2  -4  -6   92.04    4.79   1
   2   4   6   83.50    4.73   1
   2   4   6   85.62    5.54   1
   2   4   6   87.18    3.79   1
  -3  -4  -6    5.02    1.82   1
  -3  -4  -6    7.82    2.50   1
   3   4   6    4.64    2.79   1
   3   4   6    1.47    2.62   1
  -4  -4  -6   31.09    3.94   1
  -4  -4  -6   32.41    2.80   1
   4   4   6   34.94    3.94   1
   4   4   6   31.09    3.87   1
  -5  -4  -6    7.37    4.46   1
  -5  -4  -6    4.40    2.51   1
   5   4   6    9.54    3.69   1
   5   4   6    5.63    3.51   1
   7  -5  -6    6.36    4.14   1
   7  -5  -6    0.85    2.81   1
  -7   5   6   -1.18    5.51   1
   6  -5  -6   21.75    2.70   1
   6  -5  -6   23.55    3.17   1
  -6   5   6   17.75    2.88   1
  -6   5   6   18.15    3.47   1
   5  -5  -6   14.47    2.07   1
   5  -5  -6   11.74    2.61   1
   5  -5  -6   15.25    2.17   1
   5  -5  -6   16.27    2.87   1
  -5   5   6   14.33    3.05   1
  -5   5   6   10.55    2.07   1
   4  -5  -6   -0.52    2.05   1
   4  -5  -6    0.18    2.05   1
   4  -5  -6    1.69    1.41   1
   4  -5  -6    0.03    1.99   1
  -4   5   6    0.80    2.48   1
  -4   5   6   -0.03    1.81   1
   3  -5  -6    4.86    2.72   1
   3  -5  -6    2.34    2.63   1
   3  -5  -6    3.62    1.44   1
  -3   5   6    1.89    2.02   1
  -3   5   6    2.81    2.40   1
   2  -5  -6   30.55    1.35   1
   2  -5  -6   24.43    1.98   1
   2  -5  -6   27.79    2.12   1
   2  -5  -6   26.19    2.03   1
   2  -5  -6   30.50    1.59   1
  -2   5   6   25.37    2.98   1
  -2   5   6   30.18    3.01   1
   1  -5  -6   51.02    2.48   1
   1  -5  -6   39.61    2.83   1
   1  -5  -6   47.97    3.32   1
   1  -5  -6   47.73    2.12   1
   1  -5  -6   47.93    2.39   1
  -1   5   6   48.69    3.58   1
  -1   5   6   49.20    2.81   1
  -1   5   6   44.38    2.68   1
  -1   5   6   45.82    3.14   1
  -1   5   6   44.42    2.72   1
  -1   5   6   43.13    2.90   1
   0  -5  -6   33.87    2.32   1
   0  -5  -6   33.60    2.51   1
   0  -5  -6   32.96    2.32   1
   0   5   6   27.82    2.94   1
   0   5   6   34.43    1.89   1
   0   5   6   34.75    1.71   1
   0   5   6   30.19    3.42   1
   0   5   6   34.83    1.60   1
   0   5   6   32.64    2.08   1
   0   5   6   33.06    2.48   1
  -1  -5  -6   14.14    1.87   1
  -1  -5  -6   18.09    2.06   1
   1   5   6   13.47    2.70   1
   1   5   6   17.05    2.04   1
  -2  -5  -6   46.26    3.54   1
  -2  -5  -6   31.30    2.92   1
   2   5   6   32.43    4.11   1
   2   5   6   41.29    2.76   1
   2   5   6   33.80    3.63   1
  -3  -5  -6   20.67    3.03   1
  -3  -5  -6   15.77    2.48   1
   3   5   6   12.54    4.28   1
   3   5   6   11.54    3.25   1
  -4  -5  -6   29.44    4.43   1
  -4  -5  -6   20.31    3.43   1
   4   5   6   25.66    4.03   1
   4   5   6   27.77    4.22   1
  -7   6   6    4.73    4.22   1
   6  -6  -6    3.75    3.09   1
   6  -6  -6    1.37    3.03   1
   6  -6  -6    5.08    3.42   1
   6  -6  -6    7.43    2.46   1
  -6   6   6    6.00    3.92   1
   5  -6  -6   66.32    3.96   1
   5  -6  -6   57.42    3.79   1
   5  -6  -6   65.73    3.64   1
   5  -6  -6   60.57    3.87   1
  -5   6   6   57.70    4.80   1
  -5   6   6   60.37    3.68   1
   4  -6  -6   -0.16    1.32   1
   4  -6  -6    0.53    1.96   1
   4  -6  -6    1.36    2.93   1
   4  -6  -6   -1.14    2.87   1
  -4   6   6    0.49    2.64   1
  -4   6   6   -1.81    2.97   1
   3  -6  -6   84.19    4.18   1
   3  -6  -6   78.67    3.27   1
   3  -6  -6   82.45    4.03   1
  -3   6   6   74.29    4.41   1
  -3   6   6   80.63    4.69   1
   2  -6  -6  147.07    5.72   1
   2  -6  -6  155.84    6.16   1
   2  -6  -6  164.75    7.59   1
   2  -6  -6  167.01    9.17   1
  -2   6   6  151.93    7.05   1
  -2   6   6  172.60    7.96   1
   1  -6  -6    2.70    1.54   1
   1  -6  -6    2.83    1.45   1
   1  -6  -6    5.88    1.64   1
   1  -6  -6    2.80    1.95   1
   1  -6  -6    3.30    1.70   1
  -1   6   6   11.04    3.52   1
  -1   6   6    3.62    2.99   1
   0  -6  -6    0.42    1.35   1
   0  -6  -6    0.96    1.50   1
   0  -6  -6    0.07    1.11   1
   0   6   6   -0.61    3.17   1
   0   6   6    1.88    2.53   1
   0   6   6   -2.29    2.29   1
  -1  -6  -6    3.30    1.89   1
  -1  -6  -6   11.20    2.33   1
   1   6   6    6.87    4.08   1
   1   6   6    5.71    3.16   1
  -2  -6  -6   11.35    4.86   1
  -2  -6  -6    2.88    2.52   1
   2   6   6    6.71    4.03   1
   2   6   6    7.77    3.16   1
   2   6   6    4.22    3.87   1
  -3  -6  -6    5.35    3.37   1
  -3  -6  -6    0.89    2.80   1
   3   6   6    2.96    4.18   1
   3   6   6    1.69    4.20   1
   6  -7  -6    0.57    3.82   1
   6  -7  -6    0.67    3.60   1
  -6   7   6    4.36    4.59   1
   5  -7  -6    0.85    3.28   1
   5  -7  -6    0.10    3.25   1
  -5   7   6    1.59    4.19   1
  -5   7   6    2.30    3.51   1
   4  -7  -6   17.46    2.60   1
   4  -7  -6   19.53    2.17   1
   4  -7  -6   12.64    3.50   1
   4  -7  -6    8.22    3.32   1
  -4   7   6   18.41    4.62   1
  -4   7   6   13.49    4.02   1
   3  -7  -6   60.21    3.35   1
   3  -7  -6   51.29    3.24   1
   3  -7  -6   62.93    3.84   1
  -3   7   6   51.98    4.06   1
  -3   7   6   65.52    4.25   1
   2  -7  -6   34.85    2.62   1
   2  -7  -6   33.25    2.55   1
   2  -7  -6   39.83    2.60   1
  -2   7   6   34.29    3.78   1
  -2   7   6   45.47    3.74   1
   1  -7  -6   19.19    2.35   1
   1  -7  -6   13.20    2.52   1
  -1   7   6   16.67    2.80   1
  -1   7   6   15.89    3.69   1
   0  -7  -6   -1.42    1.69   1
   0  -7  -6   -1.42    3.37   1
   0  -7  -6   -0.37    1.99   1
   0   7   6   -0.28    3.83   1
   0   7   6   -0.28    3.59   1
   0   7   6   -0.03    3.99   1
  -1  -7  -6   70.73    4.55   1
  -1  -7  -6   85.48    5.22   1
   1   7   6   73.53    5.48   1
   1   7   6   76.26    4.90   1
   1   7   6   64.83    5.31   1
  -2  -7  -6    5.74    3.28   1
  -2  -7  -6    3.64    3.24   1
   2   7   6    1.48    4.76   1
   2   7   6    1.71    4.96   1
   5  -8  -6    1.53    5.28   1
   5  -8  -6    0.52    5.08   1
  -5   8   6    4.46    6.90   1
  -5   8   6    4.20    8.53   1
   4  -8  -6    7.19    2.72   1
   4  -8  -6   15.46    3.02   1
  -4   8   6   14.19    4.91   1
  -4   8   6   19.98    4.03   1
   3  -8  -6    6.18    2.44   1
   3  -8  -6    3.03    2.39   1
   3  -8  -6    4.43    2.42   1
  -3   8   6    8.82    4.65   1
  -3   8   6    4.25    5.02   1
   2  -8  -6    5.48    2.26   1
  -2   8   6    3.06    3.51   1
  -2   8   6    2.26    4.25   1
   1  -8  -6    0.30    3.27   1
   1  -8  -6    0.40    2.34   1
  -1   8   6    4.77    4.87   1
  -1   8   6   -1.30    4.58   1
  -1   8   6   -1.20    4.87   1
   0  -8  -6    0.95    3.39   1
   0  -8  -6    3.45    3.15   1
   0   8   6    2.31    3.39   1
   0   8   6    2.24    5.02   1
   0   8   6   -1.08    7.49   1
   0   9  -7   19.04    4.58   1
   0  -9   7    9.56    2.79   1
   0  -9   7    6.42    2.59   1
   0  -9   7    6.32    2.81   1
   1  -9   7   20.21    3.08   1
   1  -9   7   19.31    3.20   1
   1  -9   7   28.43    3.36   1
   1  -9   7   25.31    3.43   1
  -2   9  -7    0.90    6.32   1
   2  -9   7    5.51    2.97   1
   2  -9   7   -1.15    5.05   1
   2  -9   7    7.25    5.39   1
   2  -9   7   -1.80    4.74   1
   2  -9   7    2.01    4.77   1
  -3   9  -7    2.59    5.28   1
  -3   9  -7    1.91    4.27   1
   3  -9   7   -2.05    4.38   1
   3  -9   7    3.91    4.60   1
   3  -9   7    1.72    2.33   1
   3  -9   7   -4.44    4.77   1
   3  -9   7    5.00    4.77   1
   2   8  -7    3.49    4.00   1
  -2  -8   7    8.84    3.88   1
   1   8  -7   19.40    3.89   1
  -1  -8   7   10.96    2.51   1
  -1  -8   7    8.55    3.07   1
  -1  -8   7    8.59    3.07   1
  -1  -8   7   11.95    2.49   1
  -1  -8   7   16.35    3.23   1
   0   8  -7    9.64    3.51   1
   0  -8   7    8.49    2.66   1
   0  -8   7    4.60    2.30   1
   0  -8   7    4.74    2.39   1
   0  -8   7    7.51    2.49   1
   0  -8   7    9.51    2.60   1
  -1   8  -7    2.35    3.46   1
  -1   8  -7    2.15    3.25   1
   1  -8   7    1.63    2.22   1
   1  -8   7    0.06    2.69   1
   1  -8   7    0.86    2.62   1
   1  -8   7    0.00    2.49   1
   1  -8   7    1.36    2.62   1
  -2   8  -7   12.04    3.06   1
  -2   8  -7    4.44    4.44   1
   2  -8   7    6.88    2.79   1
   2  -8   7    8.39    3.49   1
   2  -8   7    4.36    3.46   1
   2  -8   7    3.11    2.52   1
  -3   8  -7    8.83    5.24   1
  -3   8  -7    4.59    3.62   1
   3  -8   7    5.88    3.00   1
   3  -8   7    6.15    2.94   1
   3  -8   7    4.71    2.88   1
   3  -8   7    1.62    3.00   1
   3  -8   7    6.80    3.09   1
  -4   8  -7   70.37    5.32   1
  -4   8  -7   72.70    5.04   1
   4  -8   7   55.17    4.29   1
   4  -8   7   49.40    4.09   1
   4  -8   7   53.54    4.09   1
   4  -8   7   53.48    5.24   1
  -5   8  -7    2.32    7.71   1
   5  -8   7    3.56    3.85   1
   5  -8   7    0.03    3.62   1
   5  -8   7    3.69    4.05   1
   5  -8   7    1.96    3.82   1
   3   7  -7   42.84    4.58   1
   3   7  -7   41.32    4.60   1
  -3  -7   7   43.09    3.94   1
   2   7  -7    2.51    4.40   1
  -2  -7   7    1.92    2.11   1
  -2  -7   7    2.45    2.28   1
  -2  -7   7   -1.56    2.15   1
  -2  -7   7    5.02    3.10   1
  -2  -7   7    0.56    2.12   1
   1   7  -7   -0.22    2.53   1
  -1  -7   7   -0.97    1.92   1
  -1  -7   7    0.39    2.09   1
  -1  -7   7    0.00    1.70   1
  -1  -7   7    0.61    1.92   1
  -1  -7   7    1.00    1.86   1
   0   7  -7   65.53    4.04   1
   0   7  -7   70.96    4.63   1
   0  -7   7   63.95    3.76   1
   0  -7   7   63.45    3.32   1
   0  -7   7   73.24    4.52   1
   0  -7   7   68.48    3.71   1
   0  -7   7   64.70    3.30   1
  -1   7  -7   29.17    3.05   1
  -1   7  -7   30.35    3.26   1
   1  -7   7   23.54    2.84   1
   1  -7   7   28.68    2.91   1
   1  -7   7   23.77    3.03   1
   1  -7   7   24.38    2.93   1
   1  -7   7   28.23    3.03   1
  -2   7  -7   -0.83    3.12   1
  -2   7  -7    0.61    1.73   1
   2  -7   7    1.36    1.34   1
   2  -7   7   -0.17    1.63   1
   2  -7   7   -0.22    1.81   1
   2  -7   7   -0.56    1.73   1
   2  -7   7    0.24    1.71   1
  -3   7  -7   43.67    4.62   1
   3  -7   7   47.07    2.84   1
   3  -7   7   38.06    3.20   1
   3  -7   7   44.87    3.43   1
   3  -7   7   44.76    3.31   1
   3  -7   7   38.87    3.20   1
  -4   7  -7   36.18    2.74   1
  -4   7  -7   40.63    4.97   1
   4  -7   7   37.53    3.34   1
   4  -7   7   37.44    3.43   1
   4  -7   7   33.37    3.28   1
   4  -7   7   40.57    3.41   1
  -5   7  -7   32.74    5.67   1
   5  -7   7   33.66    3.60   1
   5  -7   7   31.88    3.48   1
   5  -7   7   27.80    3.51   1
   5  -7   7   36.93    3.71   1
  -6   7  -7   10.32    5.16   1
   6  -7   7    8.09    3.46   1
   6  -7   7    8.71    3.49   1
   6  -7   7    8.71    3.58   1
   6  -7   7    3.91    3.44   1
  -5  -6   7   21.25    5.66   1
   4   6  -7   16.68    3.00   1
   4   6  -7   16.45    3.71   1
  -4  -6   7   11.34    3.89   1
   3   6  -7   38.11    3.91   1
   3   6  -7   35.61    3.80   1
  -3  -6   7   25.49    2.71   1
  -3  -6   7   22.48    2.57   1
  -3  -6   7   34.78    3.91   1
   2   6  -7   37.60    3.20   1
  -2  -6   7   34.62    3.11   1
  -2  -6   7   31.22    2.77   1
  -2  -6   7   29.37    2.68   1
   1   6  -7    1.22    2.25   1
   1   6  -7    4.11    1.16   1
  -1  -6   7    2.86    2.09   1
  -1  -6   7    0.80    1.76   1
  -1  -6   7    3.27    1.89   1
   0   6  -7   33.59    2.65   1
   0   6  -7   35.83    3.38   1
   0  -6   7   32.53    2.40   1
   0  -6   7   28.10    2.31   1
   0  -6   7   35.30    2.56   1
   0  -6   7   36.88    2.88   1
   0  -6   7   38.09    2.51   1
   0  -6   7   34.43    2.88   1
   0  -6   7   36.36    2.51   1
  -1   6  -7   12.63    2.66   1
  -1   6  -7   19.77    2.29   1
  -1   6  -7   18.30    2.49   1
   1  -6   7   21.58    2.19   1
   1  -6   7   17.47    1.90   1
   1  -6   7   19.59    1.90   1
   1  -6   7   18.03    2.14   1
   1  -6   7   18.78    1.88   1
   1  -6   7   12.33    1.95   1
   1  -6   7   14.74    2.07   1
  -2   6  -7    0.10    1.93   1
  -2   6  -7    1.11    3.62   1
   2  -6   7    1.41    2.74   1
   2  -6   7   -0.33    1.86   1
   2  -6   7   -0.26    1.86   1
   2  -6   7    2.47    2.12   1
   2  -6   7   -2.57    2.61   1
  -3   6  -7  365.14   10.80   1
  -3   6  -7  369.64   13.27   1
   3  -6   7  346.07   14.13   1
   3  -6   7  346.77    8.64   1
   3  -6   7  348.92   10.20   1
   3  -6   7  340.76   15.50   1
   3  -6   7  333.81   13.76   1
  -4   6  -7   20.07    2.13   1
  -4   6  -7   21.81    3.60   1
   4  -6   7   24.59    2.92   1
   4  -6   7   17.63    2.57   1
   4  -6   7   20.30    2.60   1
   4  -6   7   22.56    2.70   1
  -5   6  -7   25.56    4.06   1
  -5   6  -7   19.70    2.36   1
   5  -6   7   22.88    3.56   1
   5  -6   7   22.14    3.47   1
   5  -6   7   29.07    3.82   1
   5  -6   7   22.94    3.49   1
  -6   6  -7   -1.43    3.78   1
   6  -6   7   -0.72    2.52   1
   6  -6   7    2.09    2.81   1
   6  -6   7    0.54    2.54   1
   6  -6   7    0.17    2.51   1
  -7   6  -7   26.79    5.21   1
   7  -6   7   29.25    3.96   1
   7  -6   7   37.45    4.08   1
   7  -6   7   36.85    4.08   1
   7  -6   7   35.69    4.24   1
   5   5  -7   16.09    3.52   1
   5   5  -7   10.68    2.68   1
  -5  -5   7    9.24    4.15   1
   4   5  -7   16.05    3.11   1
   4   5  -7   16.62    3.13   1
  -4  -5   7   12.94    3.01   1
  -4  -5   7   12.07    1.93   1
  -4  -5   7   11.89    1.91   1
   3   5  -7  149.55    5.83   1
   3   5  -7  165.84    5.53   1
  -3  -5   7  159.19    5.32   1
  -3  -5   7  152.38    5.19   1
  -3  -5   7  169.11    7.07   1
   2   5  -7    0.93    1.53   1
   2   5  -7   -0.85    2.75   1
  -2  -5   7   -1.11    1.25   1
  -2  -5   7    0.49    1.28   1
  -2  -5   7   -0.33    1.85   1
   1   5  -7   51.99    3.25   1
   1   5  -7   45.29    2.70   1
   1   5  -7   52.11    3.79   1
  -1  -5   7   51.64    2.51   1
  -1  -5   7   51.59    2.66   1
  -1  -5   7   62.36    3.16   1
   0   5  -7   35.52    2.40   1
   0   5  -7   30.38    2.67   1
   0   5  -7   29.38    2.49   1
   0  -5   7   30.36    2.40   1
   0  -5   7   36.36    2.97   1
   0  -5   7   33.67    3.20   1
   0  -5   7   30.56    2.14   1
   0  -5   7   29.38    2.33   1
  -1   5  -7   42.43    2.56   1
  -1   5  -7   50.50    2.76   1
   1  -5   7   52.76    2.85   1
   1  -5   7   50.03    2.81   1
   1  -5   7   50.15    2.83   1
   1  -5   7   53.90    2.50   1
   1  -5   7   46.98    2.68   1
   1  -5   7   49.19    2.79   1
   1  -5   7   48.99    2.90   1
  -2   5  -7  230.70   11.34   1
  -2   5  -7  231.45    6.40   1
   2  -5   7  211.63    7.23   1
   2  -5   7  228.18    6.40   1
   2  -5   7  238.84    7.53   1
   2  -5   7  240.89    6.20   1
   2  -5   7  237.74    8.65   1
  -3   5  -7   89.96    3.92   1
  -3   5  -7   87.09    5.04   1
   3  -5   7   88.25    3.43   1
   3  -5   7   84.03    3.36   1
   3  -5   7   90.16    4.05   1
   3  -5   7   82.48    3.67   1
   3  -5   7  100.33    3.91   1
  -4   5  -7   34.40    2.49   1
  -4   5  -7   32.98    4.12   1
   4  -5   7   30.01    3.06   1
   4  -5   7   41.25    3.41   1
   4  -5   7   33.16    2.61   1
   4  -5   7   33.20    2.63   1
  -5   5  -7   91.99    5.53   1
  -5   5  -7   92.80    4.16   1
   5  -5   7   99.03    4.49   1
   5  -5   7   94.96    4.44   1
   5  -5   7  110.60    4.76   1
   5  -5   7   87.67    4.10   1
  -6   5  -7    2.92    2.02   1
  -6   5  -7    3.75    4.42   1
   6  -5   7    5.41    2.98   1
   6  -5   7    0.93    2.94   1
   6  -5   7    5.41    3.04   1
   6  -5   7    7.91    3.08   1
  -7   5  -7    9.26    4.93   1
   7  -5   7    7.66    3.47   1
   7  -5   7    8.32    3.30   1
   7  -5   7   10.33    3.47   1
   7  -5   7    7.89    3.38   1
   6   4  -7   13.01    4.29   1
  -6  -4   7   14.74    3.64   1
   5   4  -7   13.43    2.39   1
   5   4  -7   12.54    2.42   1
   5   4  -7    9.15    3.69   1
  -5  -4   7   14.59    3.30   1
  -5  -4   7    5.41    2.53   1
  -5  -4   7    5.47    2.45   1
   4   4  -7   33.00    2.49   1
   4   4  -7   28.93    3.38   1
   4   4  -7   40.07    3.40   1
  -4  -4   7   31.85    3.15   1
  -4  -4   7   29.77    2.42   1
  -4  -4   7   33.87    2.54   1
   3   4  -7   15.57    1.84   1
   3   4  -7   13.96    3.12   1
   3   4  -7   18.62    1.92   1
  -3  -4   7   16.31    2.01   1
  -3  -4   7   14.44    1.92   1
   2   4  -7    0.36    1.01   1
   2   4  -7    0.03    2.08   1
  -2  -4   7    0.77    1.28   1
  -2  -4   7    0.17    1.28   1
  -2  -4   7   -0.24    1.28   1
   1   4  -7    4.93    2.74   1
   1   4  -7    4.93    1.11   1
   1   4  -7    5.12    1.18   1
   1   4  -7    1.83    2.15   1
   1   4  -7    6.50    1.70   1
  -1  -4   7    6.20    2.06   1
  -1  -4   7    3.76    1.47   1
  -1  -4   7    5.69    1.77   1
  -1  -4   7    5.29    2.09   1
  -1  -4   7    4.35    1.47   1
   0   4  -7   48.28    2.47   1
   0   4  -7   53.84    2.67   1
   0   4  -7   54.39    2.50   1
   0   4  -7   58.64    2.76   1
   0  -4   7   52.70    2.34   1
   0  -4   7   57.09    2.41   1
   0  -4   7   54.76    4.68   1
   0  -4   7   56.00    2.37   1
   0  -4   7   57.42    3.85   1
  -1   4  -7  112.43    4.67   1
  -1   4  -7  127.63    6.10   1
  -1   4  -7  119.76    4.94   1
   1  -4   7  118.25    3.44   1
   1  -4   7  124.43    4.59   1
   1  -4   7  126.34    3.53   1
   1  -4   7  129.27    3.64   1
   1  -4   7  118.09    4.47   1
   1  -4   7  119.81    4.90   1
  -2   4  -7   11.87    1.48   1
  -2   4  -7   11.95    2.21   1
  -2   4  -7   10.65    1.40   1
   2  -4   7   12.65    1.73   1
   2  -4   7   12.60    1.67   1
   2  -4   7   12.03    1.72   1
   2  -4   7   14.57    1.75   1
   2  -4   7   14.13    1.35   1
  -3   4  -7   89.34    4.12   1
  -3   4  -7   86.59    3.18   1
  -3   4  -7   74.36    5.91   1
   3  -4   7   83.55    3.10   1
   3  -4   7   80.63    4.10   1
   3  -4   7   84.54    3.16   1
   3  -4   7   82.65    3.18   1
  -4   4  -7   33.93    2.79   1
  -4   4  -7   37.56    3.47   1
  -4   4  -7   29.02    2.47   1
   4  -4   7   33.78    2.72   1
   4  -4   7   38.86    2.83   1
   4  -4   7   34.70    2.54   1
   4  -4   7   38.60    2.61   1
  -5   4  -7    0.83    2.27   1
  -5   4  -7    5.09    3.49   1
   5  -4   7    2.18    2.11   1
   5  -4   7    0.99    2.11   1
   5  -4   7    2.21    2.18   1
   5  -4   7    3.14    2.27   1
  -6   4  -7   98.96    5.25   1
  -6   4  -7  105.54    6.59   1
   6  -4   7   96.90    4.42   1
   6  -4   7   95.96    4.34   1
   6  -4   7  104.44    4.46   1
   6  -4   7  100.71    5.08   1
  -7   4  -7   -2.24    5.79   1
  -7   4  -7   -0.44    3.02   1
   7  -4   7    1.55    2.69   1
   7  -4   7    0.57    2.53   1
   7   3  -7   14.74    5.48   1
  -7  -3   7   20.81    4.05   1
   6   3  -7    3.95    3.89   1
  -6  -3   7    4.14    3.42   1
   5   3  -7   80.67    5.29   1
   5   3  -7   73.85    4.60   1
   5   3  -7   87.55    5.31   1
  -5  -3   7   87.16    4.99   1
   4   3  -7  168.96    6.01   1
   4   3  -7  168.33    6.74   1
   4   3  -7  170.30    5.32   1
  -4  -3   7  178.03    6.08   1
  -4  -3   7  168.90    6.35   1
  -4  -3   7  157.34    5.71   1
  -4  -3   7  166.32   13.22   1
   3   3  -7    0.66    1.18   1
   3   3  -7   -0.49    0.81   1
   3   3  -7    0.25    1.71   1
  -3  -3   7    0.20    0.95   1
  -3  -3   7    0.51    1.42   1
  -3  -3   7   -0.10    0.95   1
   2   3  -7  277.71    8.76   1
   2   3  -7  259.11    9.63   1
   2   3  -7  281.87   14.33   1
  -2  -3   7  278.62   19.94   1
  -2  -3   7  272.88    7.57   1
  -2  -3   7  280.27    7.67   1
  -2  -3   7  284.83   13.99   1
   1   3  -7  176.20    5.75   1
   1   3  -7  178.17    7.06   1
   1   3  -7  177.78    5.01   1
   1   3  -7  185.09    6.49   1
   1   3  -7  177.33    7.41   1
   1   3  -7  185.57    7.37   1
  -1  -3   7  186.40    7.05   1
  -1  -3   7  178.06    6.02   1
  -1  -3   7  182.33   11.45   1
  -1  -3   7  190.89   10.83   1
  -1  -3   7  183.32    5.46   1
  -1  -3   7  166.71   14.20   1
   0   3  -7   36.38    2.48   1
   0   3  -7   39.11    2.31   1
   0   3  -7   41.25    2.44   1
   0   3  -7   38.03    2.15   1
   0   3  -7   41.39    1.95   1
   0   3  -7   37.54    2.17   1
   0  -3   7   37.88    2.01   1
   0  -3   7   39.78    2.06   1
   0  -3   7   39.28    2.98   1
   0  -3   7   38.43    1.99   1
   0  -3   7   41.45    2.66   1
   0  -3   7   42.20    1.88   1
  -1   3  -7   80.00    2.58   1
  -1   3  -7   79.54    2.65   1
  -1   3  -7   86.33    3.37   1
  -1   3  -7   85.37    2.78   1
  -1   3  -7   78.91    4.08   1
  -1   3  -7   79.96    2.86   1
   1  -3   7   80.54    2.43   1
   1  -3   7   81.50    3.52   1
   1  -3   7   80.14    2.67   1
   1  -3   7   79.50    4.42   1
   1  -3   7   84.20    2.73   1
  -2   3  -7    0.18    0.35   1
  -2   3  -7    0.25    0.58   1
  -2   3  -7    1.07    1.17   1
  -2   3  -7    0.20    0.45   1
   2  -3   7    0.10    1.20   1
   2  -3   7    0.75    0.82   1
   2  -3   7    1.95    1.30   1
   2  -3   7    0.22    0.90   1
   2  -3   7    1.03    0.60   1
   2  -3   7    0.38    0.87   1
  -3   3  -7    3.05    0.62   1
  -3   3  -7    2.37    1.76   1
  -3   3  -7    2.76    0.88   1
  -3   3  -7    3.32    1.07   1
   3  -3   7    4.62    1.98   1
   3  -3   7    3.09    1.46   1
   3  -3   7    4.61    1.53   1
   3  -3   7    5.49    2.08   1
  -4   3  -7   30.76    3.54   1
  -4   3  -7   24.65    2.01   1
  -4   3  -7   27.34    1.76   1
  -4   3  -7   29.76    2.36   1
   4  -3   7   35.84    2.22   1
   4  -3   7   34.68    2.20   1
   4  -3   7   30.45    2.22   1
   4  -3   7   32.23    2.22   1
  -5   3  -7   11.42    2.99   1
  -5   3  -7   14.47    2.29   1
  -5   3  -7   11.67    1.50   1
   5  -3   7   16.91    2.17   1
   5  -3   7   20.48    2.24   1
   5  -3   7   14.79    2.05   1
   5  -3   7   17.36    2.17   1
  -6   3  -7    1.27    2.05   1
  -6   3  -7   -1.09    5.16   1
   6  -3   7    1.40    2.30   1
   6  -3   7   -0.56    3.01   1
   6  -3   7    1.99    2.30   1
   6  -3   7    1.24    3.01   1
  -7   3  -7   51.64    3.91   1
  -7   3  -7   64.70    6.11   1
   7  -3   7   73.85    3.80   1
   7  -3   7   65.94    3.74   1
   7   2  -7   35.31    4.41   1
  -7  -2   7   33.35    4.32   1
   6   2  -7    1.85    5.01   1
  -6  -2   7   -0.16    3.06   1
   5   2  -7   18.78    1.90   1
   5   2  -7   13.10    2.86   1
   5   2  -7   19.32    1.73   1
  -5  -2   7   13.52    2.59   1
   4   2  -7  131.58    5.03   1
   4   2  -7  133.50    5.75   1
   4   2  -7  133.71    5.42   1
  -4  -2   7  129.66    7.32   1
  -4  -2   7  130.64    6.73   1
  -4  -2   7  135.59    5.14   1
   3   2  -7   29.60    1.34   1
   3   2  -7   32.89    1.70   1
   3   2  -7   28.85    1.57   1
   3   2  -7   22.89    2.37   1
   3   2  -7   25.76    2.39   1
  -3  -2   7   29.10    2.30   1
  -3  -2   7   28.04    1.61   1
   2   2  -7   20.49    0.98   1
   2   2  -7   17.42    1.85   1
   2   2  -7   18.97    2.19   1
   2   2  -7   18.77    1.92   1
   2   2  -7   16.36    2.21   1
   2   2  -7   18.52    1.21   1
  -2  -2   7   18.87    1.52   1
  -2  -2   7   20.62    1.85   1
  -2  -2   7   19.31    1.65   1
  -2  -2   7   18.10    1.94   1
  -2  -2   7   17.08    1.50   1
  -2  -2   7   14.56    1.89   1
   1   2  -7   70.61    3.74   1
   1   2  -7   71.72    4.30   1
   1   2  -7   66.33    3.01   1
   1   2  -7   68.54    2.90   1
   1   2  -7   74.80    2.97   1
  -1  -2   7   73.01    3.33   1
  -1  -2   7   61.49    2.52   1
  -1  -2   7   70.01    3.01   1
  -1  -2   7   69.64    2.97   1
  -1  -2   7   65.81    2.30   1
  -1  -2   7   71.74    2.86   1
   0   2  -7   34.05    1.53   1
   0   2  -7   36.26    1.71   1
   0   2  -7   33.50    2.14   1
   0   2  -7   35.58    2.94   1
   0   2  -7   33.19    1.66   1
   0   2  -7   30.71    1.93   1
   0   2  -7   35.25    1.64   1
   0  -2   7   32.86    1.46   1
   0  -2   7   34.36    2.00   1
   0  -2   7   33.61    1.53   1
   0  -2   7   37.11    1.82   1
   0  -2   7   36.69    1.96   1
  -1   2  -7    9.00    1.78   1
  -1   2  -7    8.49    0.83   1
  -1   2  -7    6.56    1.16   1
  -1   2  -7    7.96    0.83   1
  -1   2  -7    6.77    1.19   1
  -1   2  -7    7.40    1.42   1
   1  -2   7    7.81    0.71   1
   1  -2   7    7.96    1.37   1
   1  -2   7    8.13    1.19   1
   1  -2   7    8.37    0.74   1
   1  -2   7   10.57    1.31   1
  -2   2  -7  190.94    7.31   1
  -2   2  -7  198.10    9.18   1
  -2   2  -7  188.50    8.83   1
  -2   2  -7  199.99    7.66   1
  -2   2  -7  192.09    4.79   1
  -2   2  -7  193.64    7.45   1
   2  -2   7  189.29    4.32   1
   2  -2   7  192.93    5.88   1
   2  -2   7  179.48    8.07   1
   2  -2   7  192.83    5.58   1
   2  -2   7  178.46    4.79   1
  -3   2  -7    0.37    1.66   1
  -3   2  -7    1.25    0.61   1
  -3   2  -7    0.07    1.28   1
  -3   2  -7    0.24    1.35   1
   3  -2   7    1.35    1.65   1
   3  -2   7    0.91    1.22   1
   3  -2   7    0.17    1.69   1
   3  -2   7    0.84    1.18   1
  -4   2  -7   25.11    1.61   1
  -4   2  -7   20.44    2.15   1
  -4   2  -7   23.09    1.80   1
  -4   2  -7   26.04    1.69   1
   4  -2   7   23.09    1.78   1
   4  -2   7   28.64    1.97   1
   4  -2   7   29.30    2.01   1
   4  -2   7   24.52    1.88   1
  -5   2  -7   84.66    4.00   1
  -5   2  -7   86.24    3.55   1
   5  -2   7   82.27    3.12   1
   5  -2   7   88.18    3.45   1
   5  -2   7   86.87    3.53   1
   5  -2   7   90.68    3.30   1
  -6   2  -7  206.69   10.11   1
   6  -2   7  211.85    6.44   1
   6  -2   7  211.59    7.17   1
  -7   2  -7   16.99    5.52   1
  -7   2  -7   17.32    4.18   1
   7  -2   7   17.12    3.24   1
   7  -2   7   15.78    3.17   1
   7   1  -7   18.20    3.68   1
  -7  -1   7   16.92    3.65   1
   6   1  -7   36.09    4.51   1
   6   1  -7   44.74    3.47   1
  -6  -1   7   46.80    4.56   1
   5   1  -7  115.13    7.66   1
   5   1  -7  119.82    5.55   1
   5   1  -7  111.43    4.90   1
  -5  -1   7  113.92    4.47   1
  -5  -1   7  113.37    4.99   1
   4   1  -7    5.07    2.05   1
   4   1  -7    9.45    0.91   1
   4   1  -7   11.93    1.55   1
   4   1  -7    9.10    2.24   1
   4   1  -7   11.82    1.07   1
  -4  -1   7   10.41    1.07   1
  -4  -1   7   10.47    1.36   1
  -4  -1   7    7.40    2.00   1
   3   1  -7  332.13    8.29   1
   3   1  -7  328.44   13.88   1
   3   1  -7  325.84   12.30   1
   3   1  -7  334.24   10.03   1
   3   1  -7  343.77    8.94   1
  -3  -1   7  326.24    7.58   1
  -3  -1   7  346.36   11.80   1
  -3  -1   7  343.69   13.83   1
   2   1  -7   57.11    2.42   1
   2   1  -7   60.74    3.50   1
   2   1  -7   55.07    2.68   1
   2   1  -7   56.76    2.12   1
   2   1  -7   56.89    3.01   1
  -2  -1   7   56.85    2.55   1
  -2  -1   7   61.14    3.72   1
  -2  -1   7   58.41    2.47   1
  -2  -1   7   64.56    2.49   1
  -2  -1   7   59.43    2.40   1
   1   1  -7  144.77    4.85   1
   1   1  -7  140.92    6.18   1
   1   1  -7  147.90    4.75   1
   1   1  -7  145.55    7.38   1
   1   1  -7  148.60    4.38   1
   1   1  -7  142.93    8.25   1
  -1  -1   7  149.61    4.19   1
  -1  -1   7  145.51    5.00   1
  -1  -1   7  144.75    7.76   1
  -1  -1   7  145.25    3.82   1
   0   1  -7    5.45    1.00   1
   0   1  -7    4.84    0.86   1
   0   1  -7    5.65    1.06   1
   0   1  -7    8.65    1.20   1
   0  -1   7    6.12    0.94   1
   0  -1   7    4.93    1.03   1
   0  -1   7    8.12    0.97   1
   0  -1   7    8.24    1.00   1
   0  -1   7    7.85    0.75   1
  -1   1  -7    9.65    1.32   1
  -1   1  -7    8.93    1.12   1
  -1   1  -7    6.15    1.20   1
  -1   1  -7    7.47    0.95   1
  -1   1  -7    7.77    1.03   1
  -1   1  -7   10.21    1.46   1
  -1   1  -7    5.69    0.95   1
   1  -1   7    8.24    1.23   1
   1  -1   7    9.60    0.53   1
   1  -1   7    9.14    0.98   1
   1  -1   7    7.17    1.29   1
   1  -1   7    9.54    1.01   1
  -2   1  -7   -0.36    1.19   1
  -2   1  -7    1.90    1.49   1
  -2   1  -7   -0.24    1.16   1
  -2   1  -7    0.71    0.95   1
  -2   1  -7    1.10    1.82   1
  -2   1  -7    1.16    0.68   1
   2  -1   7    0.30    0.72   1
   2  -1   7    0.92    0.74   1
   2  -1   7    0.88    1.18   1
   2  -1   7    1.19    0.74   1
   2  -1   7    0.59    1.10   1
   2  -1   7    0.98    0.78   1
  -3   1  -7   83.50    4.94   1
  -3   1  -7   82.41    3.36   1
  -3   1  -7   83.80    3.70   1
  -3   1  -7   80.68    2.91   1
  -3   1  -7   89.20    3.34   1
   3  -1   7   79.07    2.44   1
   3  -1   7   80.20    2.55   1
   3  -1   7   81.61    2.35   1
   3  -1   7   84.29    3.53   1
   3  -1   7   85.52    2.72   1
  -4   1  -7    1.72    0.81   1
  -4   1  -7    1.04    1.40   1
  -4   1  -7    1.76    1.66   1
  -4   1  -7    1.73    1.66   1
  -4   1  -7    0.85    1.37   1
   4  -1   7    2.54    1.82   1
   4  -1   7    1.63    1.24   1
   4  -1   7    2.12    1.30   1
   4  -1   7    3.19    1.79   1
   4  -1   7   -0.62    2.67   1
  -5   1  -7    9.00    1.69   1
  -5   1  -7   11.17    2.23   1
   5  -1   7   13.32    1.75   1
   5  -1   7   11.48    1.78   1
   5  -1   7   10.35    1.67   1
   5  -1   7   10.16    1.69   1
   5  -1   7    9.20    2.43   1
  -6   1  -7   14.03    2.61   1
   6  -1   7   22.09    2.69   1
   6  -1   7   18.33    3.05   1
   6  -1   7   14.86    2.50   1
  -7   1  -7   11.94    2.96   1
  -7   1  -7   11.96    3.93   1
   7  -1   7    9.70    3.20   1
   8   0  -7    2.57    4.28   1
  -8   0   7    4.52    4.31   1
   7   0  -7   14.02    3.61   1
  -7   0   7   11.12    3.45   1
   6   0  -7   23.47    3.86   1
   6   0  -7   20.50    3.17   1
  -6   0   7   21.81    3.10   1
  -6   0   7   18.76    2.02   1
   5   0  -7   18.73    2.74   1
   5   0  -7   12.90    2.51   1
   5   0  -7   15.89    1.86   1
  -5   0   7   14.91    2.03   1
  -5   0   7   11.80    2.43   1
   4   0  -7  114.10    4.75   1
   4   0  -7  118.16    4.58   1
   4   0  -7  112.70    4.52   1
  -4   0   7  115.24    3.83   1
  -4   0   7  115.97    3.83   1
  -4   0   7  124.87    4.50   1
  -4   0   7  113.57    4.50   1
   3   0  -7   65.20    2.35   1
   3   0  -7   64.49    3.28   1
   3   0  -7   57.24    2.78   1
  -3   0   7   61.03    7.56   1
  -3   0   7   64.82    2.15   1
  -3   0   7   58.66    7.86   1
  -3   0   7   56.32    2.80   1
  -3   0   7   70.43    2.46   1
   2   0  -7  434.60   15.89   1
   2   0  -7  467.37   13.99   1
   2   0  -7  434.57   12.73   1
   2   0  -7  449.82   12.36   1
  -2   0   7  462.23   10.13   1
  -2   0   7  456.49   27.14   1
  -2   0   7  435.67   17.32   1
  -2   0   7  453.15   10.52   1
   1   0  -7 1509.81   54.41   1
   1   0  -7 1505.50   45.20   1
   1   0  -7 1476.14   48.47   1
   1   0  -7 1590.21   43.75   1
   1   0  -7 1492.88   36.82   1
  -1   0   7 1547.00   33.35   1
  -1   0   7 1556.08   46.59   1
  -1   0   7 1497.82   39.69   1
  -1   0   7 1587.47   38.58   1
  -1   0   7 1558.95   46.92   1
   0   0  -7   17.81    1.22   1
   0   0  -7   17.89    1.41   1
   0   0  -7   22.62    1.37   1
   0   0  -7   18.92    1.51   1
   0   0  -7   18.38    1.90   1
   0   0   7   20.54    1.12   1
   0   0   7   19.06    1.37   1
   0   0   7   20.38    1.29   1
   0   0   7   21.79    1.15   1
   0   0   7   21.53    1.66   1
   0   0   7   19.87    1.49   1
  -1   0  -7  274.61   20.29   1
  -1   0  -7  259.30    9.00   1
  -1   0  -7  262.98   13.95   1
  -1   0  -7  270.26   14.74   1
  -1   0  -7  271.79   12.86   1
   1   0   7  259.60   10.88   1
   1   0   7  259.74   10.36   1
   1   0   7  265.22    9.16   1
   1   0   7  259.70    7.69   1
   1   0   7  245.69    9.08   1
   1   0   7  257.06    7.62   1
  -2   0  -7  552.33   17.88   1
  -2   0  -7  519.02   23.48   1
  -2   0  -7  493.26   23.16   1
  -2   0  -7  502.28   20.36   1
  -2   0  -7  520.24   34.99   1
  -2   0  -7  541.26   18.08   1
  -2   0  -7  539.18   18.80   1
   2   0   7  487.16   18.51   1
   2   0   7  491.26   13.14   1
   2   0   7  505.03   11.58   1
   2   0   7  495.14    8.59   1
   2   0   7  486.03   14.98   1
   2   0   7  489.36    9.13   1
   2   0   7  497.13   12.30   1
  -3   0  -7   12.47    1.73   1
  -3   0  -7   12.40    0.90   1
  -3   0  -7    9.84    1.16   1
   3   0   7   14.26    1.27   1
   3   0   7   13.77    1.21   1
   3   0   7   14.36    1.21   1
   3   0   7   14.38    2.09   1
   3   0   7   12.60    1.24   1
  -4   0  -7  134.67    6.78   1
  -4   0  -7  126.51    5.91   1
  -4   0  -7  128.78    3.92   1
  -4   0  -7  133.87    3.71   1
   4   0   7  127.50    3.49   1
   4   0   7  129.82    3.64   1
   4   0   7  118.14    5.09   1
   4   0   7  126.36    4.52   1
   4   0   7  129.63    5.95   1
  -5   0  -7    9.39    1.47   1
  -5   0  -7    9.47    2.31   1
   5   0   7   13.28    1.88   1
   5   0   7   14.34    1.88   1
   5   0   7   10.29    2.59   1
  -6   0  -7   16.13    3.43   1
   6   0   7   22.51    3.14   1
  -7   0  -7    7.25    3.08   1
   7   0   7   15.44    4.23   1
   8  -1  -7   31.60    4.29   1
  -8   1   7   27.67    4.36   1
   7  -1  -7    6.39    3.40   1
  -7   1   7    4.47    2.53   1
  -7   1   7    2.33    3.28   1
   6  -1  -7   74.05    4.60   1
   6  -1  -7   77.81    4.68   1
  -6   1   7   72.03    4.38   1
  -6   1   7   83.12    5.27   1
   5  -1  -7   86.78    4.02   1
   5  -1  -7   89.24    4.06   1
  -5   1   7   88.41    3.53   1
  -5   1   7   85.37    4.81   1
  -5   1   7   89.08    3.72   1
  -5   1   7   88.59    6.18   1
  -5   1   7   82.10    5.84   1
   4  -1  -7   53.27    3.03   1
   4  -1  -7   56.99    3.16   1
   4  -1  -7   56.66    3.01   1
  -4   1   7   55.22    2.88   1
  -4   1   7   55.07    2.73   1
  -4   1   7   54.82    3.32   1
  -4   1   7   57.49    2.43   1
  -4   1   7   55.70    2.71   1
  -4   1   7   58.70    3.19   1
   3  -1  -7   78.94    3.10   1
   3  -1  -7   87.66    3.76   1
   3  -1  -7   82.88    3.08   1
  -3   1   7   88.27    3.25   1
  -3   1   7   84.22    3.31   1
  -3   1   7   86.96    4.47   1
  -3   1   7   90.96    3.29   1
  -3   1   7   87.11    2.86   1
  -3   1   7   84.63    3.38   1
   2  -1  -7   79.95    2.63   1
   2  -1  -7   81.10    3.13   1
   2  -1  -7   79.74    2.65   1
   2  -1  -7   71.17    2.35   1
  -2   1   7   90.36    3.19   1
  -2   1   7   80.60    3.28   1
  -2   1   7   82.49    2.13   1
  -2   1   7   79.65    3.58   1
  -2   1   7   81.19    2.39   1
   1  -1  -7    0.31    0.82   1
   1  -1  -7    0.65    0.70   1
   1  -1  -7    1.78    1.07   1
   1  -1  -7    1.07    0.54   1
  -1   1   7    0.03    0.74   1
  -1   1   7    0.17    0.54   1
  -1   1   7    0.17    0.73   1
  -1   1   7    1.98    1.41   1
  -1   1   7    0.79    0.73   1
   0  -1  -7    8.36    1.65   1
   0  -1  -7    9.15    1.24   1
   0  -1  -7    7.68    1.15   1
   0  -1  -7    9.58    1.20   1
   0  -1  -7   10.01    1.24   1
   0   1   7    5.74    1.41   1
   0   1   7    8.47    1.38   1
   0   1   7    7.03    1.09   1
   0   1   7   10.41    0.86   1
   0   1   7    8.15    1.29   1
  -1  -1  -7   60.09    2.18   1
  -1  -1  -7   47.82    3.16   1
  -1  -1  -7   53.18    2.76   1
  -1  -1  -7   48.42    2.51   1
  -1  -1  -7   48.52    3.09   1
  -1  -1  -7   52.68    2.47   1
   1   1   7   53.28    1.78   1
   1   1   7   54.86    2.45   1
   1   1   7   49.69    2.49   1
   1   1   7   51.47    1.73   1
   1   1   7   53.34    1.67   1
   1   1   7   53.70    2.47   1
   1   1   7   52.69    2.51   1
  -2  -1  -7  158.93    8.19   1
  -2  -1  -7  155.12    6.72   1
  -2  -1  -7  163.33    5.32   1
   2   1   7  152.77    4.83   1
   2   1   7  151.26    4.92   1
   2   1   7  153.81    2.56   1
   2   1   7  156.06    6.73   1
   2   1   7  152.20    2.97   1
   2   1   7  149.92    3.87   1
   2   1   7  155.11    5.00   1
  -3  -1  -7   33.49    1.28   1
  -3  -1  -7   35.27    2.38   1
  -3  -1  -7   33.72    1.30   1
  -3  -1  -7   31.94    1.51   1
   3   1   7   34.18    1.64   1
   3   1   7   31.73    2.72   1
   3   1   7   32.87    1.21   1
   3   1   7   34.01    1.78   1
   3   1   7   32.11    1.73   1
   3   1   7   33.82    1.41   1
   3   1   7   37.37    2.83   1
  -4  -1  -7   -0.82    1.16   1
  -4  -1  -7   -0.71    1.64   1
   4   1   7   -0.42    0.73   1
   4   1   7    0.34    0.74   1
   4   1   7   -0.46    2.54   1
   4   1   7   -1.40    1.65   1
   4   1   7   -0.56    1.17   1
  -5  -1  -7    7.04    2.65   1
  -5  -1  -7    4.38    1.88   1
   5   1   7    3.97    2.62   1
   5   1   7    5.72    3.70   1
  -6  -1  -7   45.36    4.36   1
   6   1   7   40.47    3.91   1
  -7  -1  -7   -3.08    4.93   1
   7   1   7    1.84    3.49   1
   8  -2  -7   14.73    3.76   1
  -8   2   7   11.14    3.76   1
  -8   2   7   10.75    3.10   1
   7  -2  -7    2.47    3.57   1
   7  -2  -7    2.79    3.24   1
  -7   2   7   -1.72    4.64   1
  -7   2   7   -1.43    4.02   1
   6  -2  -7    2.48    2.54   1
   6  -2  -7    3.09    3.47   1
  -6   2   7   -0.53    3.75   1
  -6   2   7    2.60    3.34   1
   5  -2  -7  322.76   10.52   1
   5  -2  -7  338.22   11.39   1
  -5   2   7  326.52   14.46   1
  -5   2   7  333.27    9.02   1
   4  -2  -7   42.68    2.53   1
   4  -2  -7   44.49    2.78   1
  -4   2   7   42.54    1.62   1
  -4   2   7   42.65    1.82   1
  -4   2   7   44.21    3.60   1
  -4   2   7   40.28    1.71   1
   3  -2  -7   77.84    2.93   1
   3  -2  -7   83.00    2.95   1
  -3   2   7   81.64    4.32   1
  -3   2   7   80.54    2.67   1
  -3   2   7   78.08    3.40   1
   2  -2  -7   35.85    1.29   1
   2  -2  -7   37.49    2.22   1
   2  -2  -7   34.01    1.80   1
  -2   2   7   39.13    2.19   1
  -2   2   7   42.70    2.66   1
  -2   2   7   40.66    1.64   1
  -2   2   7   37.64    2.29   1
  -2   2   7   37.36    1.66   1
  -2   2   7   38.04    2.11   1
   1  -2  -7   10.54    1.36   1
   1  -2  -7    7.65    1.16   1
   1  -2  -7   10.35    0.97   1
   1  -2  -7    8.94    1.41   1
  -1   2   7   10.76    1.22   1
  -1   2   7   10.73    1.27   1
  -1   2   7    8.24    1.30   1
  -1   2   7    8.40    1.50   1
  -1   2   7    9.79    1.16   1
  -1   2   7   10.76    1.64   1
  -1   2   7    8.67    0.92   1
  -1   2   7    9.34    1.25   1
   0  -2  -7  414.37   14.57   1
   0  -2  -7  415.27   22.71   1
   0  -2  -7  437.57   14.80   1
   0  -2  -7  409.04   13.09   1
   0   2   7  404.72   12.63   1
   0   2   7  445.62    9.12   1
   0   2   7  424.38    9.56   1
   0   2   7  416.10    8.76   1
   0   2   7  426.41    9.88   1
   0   2   7  438.31    9.47   1
   0   2   7  410.38   10.72   1
  -1  -2  -7   36.67    1.92   1
  -1  -2  -7   29.76    2.21   1
  -1  -2  -7   32.83    2.28   1
  -1  -2  -7   34.89    1.49   1
   1   2   7   37.06    1.08   1
   1   2   7   27.95    2.82   1
   1   2   7   35.28    2.15   1
   1   2   7   37.79    1.13   1
   1   2   7   33.57    1.38   1
   1   2   7   34.02    1.40   1
   1   2   7   30.31    2.58   1
   1   2   7   35.62    1.76   1
  -2  -2  -7    5.03    1.11   1
  -2  -2  -7    8.16    1.68   1
   2   2   7    7.73    1.14   1
   2   2   7    4.63    1.99   1
   2   2   7    7.67    2.70   1
   2   2   7    9.29    1.76   1
  -3  -2  -7   74.48    3.30   1
  -3  -2  -7   77.64    4.07   1
   3   2   7   67.77    3.60   1
   3   2   7   76.19    4.35   1
   3   2   7   69.12    3.90   1
  -4  -2  -7   33.94    2.92   1
  -4  -2  -7   28.28    2.11   1
   4   2   7   29.93    3.19   1
   4   2   7   33.04    3.26   1
  -5  -2  -7    6.87    3.76   1
  -5  -2  -7    2.54    2.08   1
   5   2   7    6.11    3.02   1
   5   2   7    8.81    4.02   1
  -6  -2  -7    1.88    3.47   1
   6   2   7    5.23    3.89   1
   6   2   7    1.04    3.70   1
   8  -3  -7    5.80    3.88   1
  -8   3   7   -0.41    5.45   1
  -8   3   7    2.12    4.67   1
   7  -3  -7   40.68    3.81   1
   7  -3  -7   48.20    4.03   1
  -7   3   7   42.71    4.48   1
  -7   3   7   42.37    4.26   1
   6  -3  -7   97.42    4.79   1
   6  -3  -7  108.28    5.61   1
  -6   3   7  102.72    5.08   1
   5  -3  -7    4.81    2.32   1
   5  -3  -7    5.39    2.31   1
  -5   3   7    1.79    3.38   1
  -5   3   7    1.89    1.59   1
   4  -3  -7    6.26    1.85   1
   4  -3  -7    6.14    1.88   1
  -4   3   7    2.35    1.06   1
  -4   3   7    2.94    2.03   1
  -4   3   7    3.98    0.44   1
  -4   3   7    5.07    0.44   1
   3  -3  -7   26.70    1.89   1
   3  -3  -7   27.58    1.91   1
  -3   3   7   30.12    2.43   1
  -3   3   7   29.44    1.94   1
   2  -3  -7    4.06    1.19   1
   2  -3  -7    4.48    0.55   1
  -2   3   7    3.02    1.28   1
  -2   3   7    7.43    2.35   1
  -2   3   7    3.20    1.34   1
  -2   3   7    5.36    1.49   1
   1  -3  -7  144.34    5.65   1
   1  -3  -7  158.14    5.97   1
   1  -3  -7  152.74    4.26   1
  -1   3   7  162.33    4.81   1
  -1   3   7  160.38    5.31   1
  -1   3   7  168.01    5.64   1
  -1   3   7  159.59    4.68   1
  -1   3   7  155.61    4.51   1
  -1   3   7  152.51    5.61   1
  -1   3   7  159.04    5.17   1
  -1   3   7  164.98    4.63   1
   0  -3  -7   16.52    1.51   1
   0  -3  -7   12.73    1.73   1
   0  -3  -7   17.09    1.46   1
   0  -3  -7   18.16    1.64   1
   0   3   7   17.64    1.26   1
   0   3   7   16.15    1.46   1
   0   3   7   17.48    1.24   1
   0   3   7   18.55    1.88   1
   0   3   7   16.22    2.40   1
   0   3   7   14.61    2.33   1
   0   3   7   18.48    1.21   1
   0   3   7   19.27    1.26   1
  -1  -3  -7  136.97    4.74   1
  -1  -3  -7  148.78    6.02   1
   1   3   7  140.69    7.79   1
   1   3   7  147.09    3.89   1
   1   3   7  145.18    5.87   1
   1   3   7  141.77    4.61   1
   1   3   7  144.12    6.53   1
   1   3   7  145.67    6.34   1
   1   3   7  144.26    4.54   1
   1   3   7  140.86    3.78   1
   1   3   7  146.05    3.97   1
   1   3   7  138.07    3.65   1
  -2  -3  -7  181.79    9.35   1
  -2  -3  -7  184.46    8.47   1
   2   3   7  184.14   12.23   1
   2   3   7  184.28    6.05   1
   2   3   7  193.86    7.91   1
   2   3   7  179.50    6.47   1
  -3  -3  -7   15.90    2.28   1
  -3  -3  -7   14.32    1.66   1
   3   3   7   13.06    3.31   1
   3   3   7   12.29    2.63   1
  -4  -3  -7   76.26    4.08   1
  -4  -3  -7   66.24    3.32   1
   4   3   7   68.72    5.05   1
   4   3   7   63.17    4.36   1
  -5  -3  -7    4.81    4.40   1
   5   3   7    6.41    5.10   1
   5   3   7    2.15    3.62   1
  -6  -3  -7    8.27    5.71   1
   6   3   7    2.65    4.11   1
   6   3   7    6.85    4.41   1
   8  -4  -7   27.18    4.69   1
   8  -4  -7   27.37    4.11   1
  -8   4   7   23.64    4.23   1
  -8   4   7   20.95    4.45   1
   7  -4  -7    5.91    3.12   1
   7  -4  -7    6.18    3.18   1
  -7   4   7    3.93    3.66   1
   6  -4  -7   77.04    4.14   1
   6  -4  -7   70.80    4.70   1
  -6   4   7   69.81    4.31   1
   5  -4  -7   84.84    4.02   1
   5  -4  -7   75.02    3.96   1
  -5   4   7   75.47    3.51   1
  -5   4   7   77.69    4.11   1
   4  -4  -7  136.59    4.93   1
   4  -4  -7  139.38    5.91   1
  -4   4   7  132.25    7.95   1
  -4   4   7  141.29    5.06   1
   3  -4  -7  167.77    6.27   1
  -3   4   7  182.65    8.66   1
  -3   4   7  177.34    7.32   1
   2  -4  -7   48.49    2.30   1
   2  -4  -7   52.95    1.75   1
  -2   4   7   55.01    3.09   1
  -2   4   7   50.27    3.19   1
   1  -4  -7  202.69    5.54   1
   1  -4  -7  210.98    8.00   1
  -1   4   7  213.13    7.04   1
  -1   4   7  219.88    8.00   1
  -1   4   7  206.25    6.65   1
  -1   4   7  208.86    8.00   1
  -1   4   7  214.53    6.35   1
  -1   4   7  221.40    5.84   1
  -1   4   7  220.58    6.29   1
   0  -4  -7   44.55    2.24   1
   0  -4  -7   46.02    2.40   1
   0  -4  -7   36.69    2.35   1
   0   4   7   36.71    3.25   1
   0   4   7   45.21    1.92   1
   0   4   7   45.64    1.84   1
   0   4   7   48.14    2.82   1
   0   4   7   45.20    1.74   1
   0   4   7   39.00    2.89   1
   0   4   7   45.76    1.94   1
  -1  -4  -7    0.40    0.99   1
  -1  -4  -7   -0.20    1.07   1
   1   4   7   -0.77    1.78   1
   1   4   7    0.32    0.15   1
   1   4   7    0.17    0.15   1
   1   4   7    0.50    1.24   1
   1   4   7    0.22    0.17   1
   1   4   7    0.47    0.15   1
   1   4   7   -0.57    2.53   1
  -2  -4  -7   23.81    1.97   1
  -2  -4  -7   32.26    2.49   1
   2   4   7   24.56    3.67   1
   2   4   7   27.98    3.15   1
   2   4   7   31.60    2.45   1
  -3  -4  -7    4.30    2.48   1
  -3  -4  -7    1.70    1.86   1
   3   4   7    5.34    3.26   1
   3   4   7    1.40    2.93   1
  -4  -4  -7    1.77    2.78   1
  -4  -4  -7    3.04    2.53   1
   4   4   7   -0.32    3.39   1
   4   4   7    2.00    3.33   1
  -5  -4  -7   46.72    4.25   1
   5   4   7   46.85    5.00   1
   5   4   7   45.20    5.34   1
   7  -5  -7    3.07    4.48   1
   7  -5  -7    2.80    3.17   1
  -7   5   7    1.59    5.97   1
   6  -5  -7    8.65    2.50   1
   6  -5  -7    9.93    2.56   1
  -6   5   7    3.70    3.19   1
   5  -5  -7   21.17    2.77   1
   5  -5  -7   20.47    3.27   1
  -5   5   7   21.16    3.15   1
  -5   5   7   16.64    2.21   1
   4  -5  -7   58.78    2.92   1
   4  -5  -7   50.63    2.70   1
  -4   5   7   46.48    2.85   1
  -4   5   7   52.81    4.05   1
   3  -5  -7   47.59    2.78   1
  -3   5   7   42.96    2.91   1
  -3   5   7   47.30    3.31   1
   2  -5  -7   38.03    2.33   1
   2  -5  -7   38.88    2.33   1
  -2   5   7   30.70    2.78   1
  -2   5   7   40.27    3.01   1
   1  -5  -7   24.50    2.06   1
   1  -5  -7   30.03    1.71   1
  -1   5   7   27.57    2.06   1
  -1   5   7   19.15    3.09   1
  -1   5   7   27.27    1.94   1
  -1   5   7   25.84    1.97   1
  -1   5   7   25.45    1.92   1
  -1   5   7   23.84    2.53   1
   0  -5  -7   13.03    1.88   1
   0  -5  -7   13.36    1.60   1
   0  -5  -7   11.40    1.83   1
   0   5   7   16.21    1.30   1
   0   5   7   13.43    1.15   1
   0   5   7   13.54    2.21   1
   0   5   7    9.11    2.52   1
   0   5   7   14.53    1.12   1
   0   5   7   13.57    1.30   1
   0   5   7    8.83    2.44   1
  -1  -5  -7  109.68    7.07   1
  -1  -5  -7  111.43    5.89   1
   1   5   7  106.14    5.80   1
   1   5   7   95.17    6.75   1
   1   5   7  102.89    5.61   1
  -2  -5  -7    1.95    2.73   1
  -2  -5  -7    1.11    3.00   1
   2   5   7   -0.33    1.95   1
   2   5   7    1.08    3.09   1
   2   5   7   -1.20    4.39   1
  -3  -5  -7  142.59    6.78   1
  -3  -5  -7  143.74    7.59   1
   3   5   7  125.98    8.67   1
   3   5   7  121.41    8.79   1
  -4  -5  -7   49.78    3.94   1
  -4  -5  -7   64.20    4.52   1
   4   5   7   50.16    5.81   1
   4   5   7   56.32    5.12   1
  -7   6   7    8.84    5.98   1
   6  -6  -7   13.45    3.54   1
   6  -6  -7   14.57    3.69   1
  -6   6   7    5.88    3.89   1
   5  -6  -7   12.21    3.02   1
   5  -6  -7    8.64    2.85   1
  -5   6   7    2.82    3.29   1
  -5   6   7    9.18    2.80   1
   4  -6  -7  107.91    6.67   1
   4  -6  -7   99.13    4.29   1
  -4   6   7  105.32    6.54   1
  -4   6   7  116.57    5.39   1
   3  -6  -7    8.19    2.04   1
   3  -6  -7    7.22    2.09   1
  -3   6   7    8.38    3.33   1
  -3   6   7   13.87    2.85   1
   2  -6  -7   20.16    2.00   1
  -2   6   7   21.22    2.90   1
  -2   6   7   12.38    3.30   1
   1  -6  -7    0.08    0.78   1
   1  -6  -7    0.54    1.52   1
   1  -6  -7    0.38    1.35   1
  -1   6   7   -0.72    2.27   1
  -1   6   7   -1.55    3.21   1
  -1   6   7    0.05    1.76   1
   0  -6  -7    2.13    1.66   1
   0  -6  -7    0.34    1.54   1
   0  -6  -7    0.77    1.50   1
   0   6   7    1.92    1.84   1
   0   6   7    1.01    2.42   1
   0   6   7   -2.30    2.30   1
  -1  -6  -7    1.16    2.13   1
  -1  -6  -7    2.38    2.00   1
   1   6   7    2.22    2.45   1
   1   6   7    2.48    3.71   1
   1   6   7    2.22    3.51   1
  -2  -6  -7   17.49    3.42   1
  -2  -6  -7   12.09    2.51   1
   2   6   7   13.08    3.76   1
   2   6   7   19.90    2.74   1
   2   6   7   12.88    3.89   1
  -3  -6  -7    7.59    2.58   1
  -3  -6  -7    8.02    2.88   1
   3   6   7   13.09    4.37   1
   3   6   7    6.26    4.18   1
  -6   7   7   14.63    6.10   1
   5  -7  -7   29.61    5.50   1
   5  -7  -7   21.17    2.94   1
  -5   7   7   17.76    3.18   1
  -5   7   7   21.53    5.11   1
   4  -7  -7   -2.12    2.12   1
   4  -7  -7    0.20    2.14   1
   4  -7  -7    1.23    2.31   1
  -4   7   7   -0.44    3.53   1
  -4   7   7   -0.42    2.86   1
   3  -7  -7  300.74   11.86   1
  -3   7   7  329.84   18.88   1
  -3   7   7  318.82   16.78   1
   2  -7  -7    8.96    2.05   1
  -2   7   7   11.53    4.08   1
  -2   7   7    5.62    4.68   1
   1  -7  -7   69.17    4.05   1
   1  -7  -7   84.49    4.53   1
  -1   7   7   71.68    5.63   1
  -1   7   7   69.48    4.91   1
  -1   7   7   80.58    4.40   1
   0  -7  -7   17.69    2.79   1
   0  -7  -7   16.22    2.90   1
   0   7   7    8.87    3.62   1
   0   7   7   17.89    3.10   1
   0   7   7   13.52    3.80   1
  -1  -7  -7    0.10    2.83   1
  -1  -7  -7    4.23    3.06   1
  -1  -7  -7    3.94    3.42   1
   1   7   7    1.99    4.36   1
   1   7   7   -2.38    4.59   1
   1   7   7    2.02    2.93   1
  -2  -7  -7   11.84    3.18   1
  -2  -7  -7    3.92    2.98   1
   2   7   7    9.48    5.12   1
   2   7   7    2.09    4.42   1
  -4   8   7    5.67    4.11   1
  -4   8   7    3.11    3.91   1
   3  -8  -7   18.68    2.86   1
  -3   8   7   22.75    4.05   1
  -3   8   7   11.08    3.78   1
   2  -8  -7    5.86    2.35   1
  -2   8   7    1.28    6.04   1
  -2   8   7    9.55    3.81   1
   1  -8  -7    1.49    2.62   1
  -1   8   7   -2.54    4.16   1
  -1   8   7   -1.21    2.83   1
  -1   8   7    0.68    5.59   1
   0  -8  -7   13.18    2.91   1
   0  -8  -7   10.22    3.98   1
   0   8   7   13.39    4.50   1
   0   8   7   10.80    4.48   1
   0   8   7   19.19    3.41   1
  -1   9  -8    0.20    4.58   1
   1  -9   8    1.56    4.77   1
   1  -9   8    1.20    5.14   1
   1  -9   8    4.61    3.85   1
   1  -9   8    7.06    4.67   1
   1  -9   8    1.82    3.65   1
  -2   9  -8   24.54    4.50   1
   2  -9   8   25.59    4.45   1
   2  -9   8   25.73    4.74   1
   2  -9   8   27.98    3.22   1
   2  -9   8   20.04    4.31   1
   2  -9   8   15.04    4.45   1
  -3   9  -8    1.71    4.56   1
  -3   9  -8    4.97    5.14   1
   3  -9   8    2.94    5.74   1
   3  -9   8    1.39    2.68   1
   3  -9   8    4.07    5.30   1
   3  -9   8    0.52    5.92   1
   3  -9   8    4.04    5.37   1
   2   8  -8   11.64    4.89   1
  -2  -8   8   10.46    3.41   1
   1   8  -8    7.30    3.84   1
  -1  -8   8    5.59    2.96   1
  -1  -8   8    1.06    2.46   1
  -1  -8   8    1.84    2.68   1
  -1  -8   8    1.81    2.65   1
  -1  -8   8    7.74    3.34   1
   0   8  -8   -1.62    3.08   1
   0  -8   8   -0.08    3.12   1
   0  -8   8   -1.01    2.08   1
   0  -8   8    1.29    2.20   1
   0  -8   8    0.89    2.49   1
   0  -8   8   -0.35    2.16   1
  -1   8  -8   17.36    3.59   1
   1  -8   8   16.80    2.55   1
   1  -8   8   11.93    2.55   1
   1  -8   8   14.47    2.70   1
   1  -8   8   13.71    2.75   1
   1  -8   8   14.03    2.82   1
  -2   8  -8    4.04    3.20   1
  -2   8  -8    0.28    3.39   1
   2  -8   8   -0.44    3.73   1
   2  -8   8    1.15    2.81   1
   2  -8   8    2.24    2.18   1
   2  -8   8    4.20    2.93   1
   2  -8   8    1.81    2.68   1
  -3   8  -8    1.42    2.25   1
  -3   8  -8    0.93    2.99   1
  -3   8  -8    2.33    3.14   1
   3  -8   8    1.22    2.33   1
   3  -8   8   -2.22    2.41   1
   3  -8   8    0.39    2.34   1
   3  -8   8    2.10    2.52   1
   3  -8   8    1.00    1.66   1
  -4   8  -8   40.35    4.74   1
   4  -8   8   32.87    3.67   1
   4  -8   8   29.08    4.29   1
   4  -8   8   35.17    3.85   1
   4  -8   8   33.07    4.27   1
  -5   8  -8    0.09    7.11   1
   5  -8   8   -0.03    3.44   1
   5  -8   8    0.21    3.50   1
   5  -8   8   -1.00    3.68   1
   5  -8   8    0.03    3.50   1
   3   7  -8    4.77    3.63   1
   3   7  -8    0.20    3.16   1
  -3  -7   8    0.24    3.12   1
   2   7  -8   30.83    3.52   1
  -2  -7   8   25.11    3.01   1
  -2  -7   8   25.81    2.52   1
  -2  -7   8   25.92    2.52   1
  -2  -7   8   32.21    3.40   1
  -2  -7   8   28.90    3.14   1
   1   7  -8   20.92    3.20   1
  -1  -7   8   14.47    2.95   1
  -1  -7   8   14.27    2.33   1
  -1  -7   8    9.36    2.80   1
  -1  -7   8   12.41    2.21   1
   0   7  -8   21.95    2.38   1
   0   7  -8   12.36    3.54   1
   0  -7   8   15.26    2.28   1
   0  -7   8   18.31    2.43   1
   0  -7   8   17.42    2.40   1
   0  -7   8   12.99    2.15   1
   0  -7   8   16.73    2.45   1
  -1   7  -8   32.44    3.15   1
  -1   7  -8   33.29    3.33   1
  -1   7  -8   21.89    2.92   1
   1  -7   8   31.51    3.20   1
   1  -7   8   23.15    2.97   1
   1  -7   8   33.80    2.67   1
   1  -7   8   29.14    2.74   1
   1  -7   8   29.36    2.67   1
  -2   7  -8   50.11    3.44   1
  -2   7  -8   59.38    4.79   1
  -2   7  -8   63.83    4.66   1
   2  -7   8   56.01    3.22   1
   2  -7   8   55.06    3.36   1
   2  -7   8   61.13    3.62   1
   2  -7   8   53.62    3.42   1
   2  -7   8   52.52    3.29   1
  -3   7  -8   24.69    3.58   1
  -3   7  -8   18.15    2.46   1
   3  -7   8   18.42    2.73   1
   3  -7   8   20.19    2.49   1
   3  -7   8   17.37    2.54   1
   3  -7   8   17.61    2.65   1
   3  -7   8   18.20    2.79   1
  -4   7  -8    3.23    2.40   1
  -4   7  -8    9.32    4.76   1
   4  -7   8    4.60    3.00   1
   4  -7   8    5.46    3.00   1
   4  -7   8    3.70    3.19   1
   4  -7   8    1.15    2.91   1
  -5   7  -8   16.92    4.74   1
   5  -7   8   13.73    3.14   1
   5  -7   8   12.73    3.27   1
   5  -7   8   14.99    3.30   1
   5  -7   8   12.93    3.20   1
  -6   7  -8    0.78    6.52   1
   6  -7   8    0.13    3.44   1
   6  -7   8    1.64    3.29   1
   6  -7   8    2.18    3.08   1
   6  -7   8   -0.41    3.05   1
   4   6  -8   -0.16    2.16   1
   4   6  -8   -0.03    2.26   1
  -4  -6   8   -0.35    2.79   1
   3   6  -8   19.98    2.92   1
  -3  -6   8   14.83    2.82   1
  -3  -6   8    7.99    2.45   1
  -3  -6   8   11.64    2.50   1
   2   6  -8    6.09    3.27   1
  -2  -6   8    3.59    2.59   1
  -2  -6   8    3.12    2.53   1
  -2  -6   8    7.80    2.59   1
   1   6  -8    2.58    1.88   1
   1   6  -8    0.47    0.84   1
  -1  -6   8    0.66    1.43   1
  -1  -6   8    1.43    1.50   1
  -1  -6   8    1.06    2.09   1
   0   6  -8   -0.03    1.15   1
   0   6  -8   -0.36    2.27   1
   0   6  -8    2.21    1.97   1
   0  -6   8   -0.29    1.33   1
   0  -6   8    0.14    1.31   1
   0  -6   8    1.26    1.40   1
   0  -6   8   -0.24    1.29   1
   0  -6   8   -0.20    1.60   1
   0  -6   8   -0.10    1.36   1
   0  -6   8    0.03    0.99   1
  -1   6  -8    7.73    2.50   1
  -1   6  -8    3.37    2.50   1
  -1   6  -8    2.79    2.31   1
   1  -6   8    6.02    2.18   1
   1  -6   8    4.61    2.27   1
   1  -6   8    9.25    1.38   1
   1  -6   8   10.09    2.37   1
   1  -6   8    7.79    1.19   1
   1  -6   8    4.16    1.98   1
  -2   6  -8  101.29    4.06   1
  -2   6  -8  101.99    4.55   1
   2  -6   8   85.71    3.66   1
   2  -6   8  100.98    4.34   1
   2  -6   8   90.05    3.70   1
   2  -6   8   97.54    4.49   1
   2  -6   8   94.18    4.74   1
  -3   6  -8  147.46    7.25   1
  -3   6  -8  157.55    5.43   1
   3  -6   8  138.46    5.03   1
   3  -6   8  141.18    6.02   1
   3  -6   8  145.40    5.23   1
   3  -6   8  140.59    7.17   1
   3  -6   8  143.54    5.65   1
  -4   6  -8    4.44    4.01   1
  -4   6  -8    1.73    1.99   1
   4  -6   8    4.34    2.77   1
   4  -6   8    3.55    2.68   1
   4  -6   8    1.79    2.64   1
   4  -6   8    4.14    2.68   1
  -5   6  -8   15.45    2.20   1
  -5   6  -8   22.07    4.60   1
   5  -6   8   18.55    2.99   1
   5  -6   8   18.59    3.83   1
   5  -6   8   20.51    3.04   1
   5  -6   8   19.00    3.91   1
  -6   6  -8    8.81    5.56   1
   6  -6   8    0.36    3.67   1
   6  -6   8    3.38    3.78   1
   6  -6   8    2.32    3.65   1
   6  -6   8    4.34    3.51   1
  -7   6  -8    7.27    5.35   1
   7  -6   8   11.35    4.03   1
   7  -6   8   15.54    5.24   1
   7  -6   8   15.94    4.27   1
  -5  -5   8   28.61    3.77   1
   4   5  -8   -1.59    4.79   1
   4   5  -8    2.67    3.01   1
   4   5  -8    2.55    2.20   1
  -4  -5   8   -0.09    3.88   1
  -4  -5   8    0.40    2.67   1
  -4  -5   8   -0.72    2.53   1
   3   5  -8   54.25    4.49   1
   3   5  -8   56.60    3.26   1
  -3  -5   8   50.59    2.66   1
  -3  -5   8   56.41    2.82   1
  -3  -5   8   61.16    4.23   1
   2   5  -8  187.91    7.48   1
   2   5  -8  183.39    5.71   1
  -2  -5   8  184.91    8.67   1
  -2  -5   8  174.13    8.34   1
  -2  -5   8  176.46    7.53   1
   1   5  -8   88.09    4.19   1
   1   5  -8   90.69    3.46   1
   1   5  -8   94.29    4.61   1
   1   5  -8   93.75    4.61   1
  -1  -5   8   92.08    3.95   1
  -1  -5   8   94.50    3.63   1
  -1  -5   8   89.32    3.31   1
   0   5  -8   95.37    3.72   1
   0   5  -8   78.44    6.51   1
   0   5  -8   90.13    3.27   1
   0   5  -8   86.36    4.01   1
   0  -5   8   88.99    3.48   1
   0  -5   8   86.18    3.39   1
   0  -5   8   93.98    6.12   1
   0  -5   8   88.24    3.46   1
   0  -5   8   97.79    4.99   1
  -1   5  -8    2.42    1.98   1
  -1   5  -8    1.84    2.72   1
   1  -5   8    2.85    0.84   1
   1  -5   8    1.61    2.38   1
   1  -5   8    1.71    2.31   1
   1  -5   8    4.33    2.45   1
   1  -5   8    2.82    1.78   1
   1  -5   8    3.66    1.41   1
  -2   5  -8  104.75    4.34   1
  -2   5  -8  101.57    4.57   1
   2  -5   8   97.53    5.04   1
   2  -5   8   92.39    4.55   1
   2  -5   8  105.69    4.17   1
   2  -5   8  109.98    4.17   1
   2  -5   8  103.42    4.59   1
  -3   5  -8   21.19    3.49   1
  -3   5  -8   19.61    1.86   1
   3  -5   8   18.65    1.53   1
   3  -5   8   17.39    2.48   1
   3  -5   8   17.21    2.45   1
   3  -5   8   17.63    2.52   1
   3  -5   8   22.06    2.62   1
  -4   5  -8    8.72    2.24   1
  -4   5  -8    9.83    3.24   1
   4  -5   8    7.53    2.95   1
   4  -5   8    7.72    2.93   1
   4  -5   8    6.51    2.78   1
   4  -5   8    8.12    2.90   1
  -5   5  -8    1.40    2.96   1
  -5   5  -8    1.42    2.58   1
   5  -5   8    1.48    2.43   1
   5  -5   8    1.05    1.86   1
   5  -5   8    1.32    2.42   1
   5  -5   8   -1.77    1.77   1
  -6   5  -8    0.00    1.93   1
  -6   5  -8    2.03    4.43   1
   6  -5   8    4.39    2.84   1
   6  -5   8    2.93    2.90   1
   6  -5   8    5.90    3.15   1
   6  -5   8    4.21    3.09   1
  -7   5  -8   11.10    4.80   1
   7  -5   8   15.48    3.26   1
   7  -5   8   16.17    3.28   1
   7  -5   8   16.75    3.41   1
   7  -5   8   13.54    3.33   1
   6   4  -8    3.89    4.21   1
  -6  -4   8    6.02    4.70   1
   5   4  -8    5.05    2.23   1
   5   4  -8   -1.01    5.41   1
   5   4  -8    2.82    2.14   1
  -5  -4   8    0.87    2.98   1
  -5  -4   8   -0.52    2.79   1
  -5  -4   8    0.94    2.95   1
   4   4  -8    7.70    2.99   1
   4   4  -8   19.62    2.68   1
   4   4  -8   15.45    2.39   1
  -4  -4   8   11.98    2.29   1
  -4  -4   8    8.89    3.20   1
  -4  -4   8   13.93    2.40   1
   3   4  -8   16.01    2.68   1
   3   4  -8   20.90    2.00   1
  -3  -4   8   24.26    3.13   1
  -3  -4   8   18.20    1.90   1
  -3  -4   8   18.11    1.88   1
   2   4  -8   11.67    2.67   1
   2   4  -8   16.77    0.52   1
   2   4  -8   16.22    0.57   1
   2   4  -8   15.19    1.75   1
  -2  -4   8   12.50    1.60   1
  -2  -4   8   13.10    1.67   1
  -2  -4   8   15.36    2.10   1
   1   4  -8   85.72    3.29   1
   1   4  -8   75.25    3.46   1
   1   4  -8   85.86    6.33   1
   1   4  -8   85.24    3.57   1
   1   4  -8   77.07    3.70   1
  -1  -4   8   79.00    3.38   1
  -1  -4   8   80.91    2.97   1
  -1  -4   8   79.29    5.11   1
  -1  -4   8   82.64    6.12   1
  -1  -4   8   84.48    3.44   1
   0   4  -8   16.41    2.02   1
   0   4  -8   15.51    1.49   1
   0   4  -8   15.71    2.26   1
   0  -4   8   15.53    1.63   1
   0  -4   8   19.36    1.51   1
   0  -4   8   20.70    1.73   1
   0  -4   8   19.12    1.46   1
   0  -4   8   14.78    1.66   1
  -1   4  -8   28.63    2.16   1
  -1   4  -8   36.13    2.22   1
  -1   4  -8   32.83    1.51   1
   1  -4   8   41.00    1.49   1
   1  -4   8   37.02    2.14   1
   1  -4   8   39.17    2.16   1
   1  -4   8   37.01    1.87   1
  -2   4  -8   85.01    4.19   1
  -2   4  -8   94.64    3.38   1
  -2   4  -8   87.35    3.51   1
   2  -4   8   88.67    3.72   1
   2  -4   8   97.42    3.18   1
   2  -4   8   82.07    3.68   1
   2  -4   8   83.55    3.29   1
   2  -4   8   91.58    3.81   1
  -3   4  -8   -0.10    1.44   1
  -3   4  -8    3.44    3.01   1
   3  -4   8    3.44    2.32   1
   3  -4   8    0.65    1.57   1
   3  -4   8    3.28    2.42   1
   3  -4   8    2.88    1.73   1
  -4   4  -8   77.91    3.73   1
   4  -4   8   77.90    3.36   1
   4  -4   8   82.54    3.53   1
   4  -4   8   74.66    3.23   1
   4  -4   8   73.12    3.26   1
  -5   4  -8   86.63    5.91   1
  -5   4  -8   79.94    4.99   1
   5  -4   8   85.49    4.35   1
   5  -4   8   80.12    3.68   1
   5  -4   8   81.08    3.77   1
   5  -4   8   83.74    3.83   1
  -6   4  -8    2.66    4.22   1
  -6   4  -8    2.24    2.27   1
   6  -4   8    5.25    2.79   1
   6  -4   8    4.06    2.89   1
   6  -4   8    5.84    2.79   1
   6  -4   8    6.39    2.85   1
  -7   4  -8  137.95    6.90   1
  -7   4  -8  139.02    9.45   1
   7  -4   8  148.03    8.50   1
   7  -4   8  143.22    8.57   1
   7  -4   8  131.03    7.29   1
   7  -4   8  143.46    8.12   1
   7   3  -8    6.05    5.92   1
  -7  -3   8   -2.42    5.75   1
   6   3  -8   19.57    4.01   1
  -6  -3   8   21.39    4.30   1
   5   3  -8   37.96    3.78   1
   5   3  -8   44.48    3.67   1
  -5  -3   8   33.99    2.56   1
  -5  -3   8   44.58    2.78   1
  -5  -3   8   45.93    3.71   1
   4   3  -8   -0.54    2.70   1
   4   3  -8    1.12    1.75   1
   4   3  -8    2.90    1.78   1
  -4  -3   8    0.63    2.19   1
  -4  -3   8    0.89    1.66   1
  -4  -3   8    1.34    1.62   1
   3   3  -8   82.43    3.94   1
   3   3  -8   81.04    2.82   1
   3   3  -8   81.11    2.93   1
  -3  -3   8   79.44    3.68   1
  -3  -3   8   79.53    3.47   1
  -3  -3   8   82.96    3.02   1
   2   3  -8  201.47    8.03   1
   2   3  -8  214.30    6.75   1
   2   3  -8  222.71    6.04   1
   2   3  -8  205.17    6.34   1
  -2  -3   8  225.24    6.31   1
  -2  -3   8  223.79    8.57   1
  -2  -3   8  216.13    6.58   1
   1   3  -8   35.27    2.44   1
   1   3  -8   36.34    1.77   1
   1   3  -8   37.07    2.80   1
   1   3  -8   32.49    2.36   1
   1   3  -8   37.84    1.66   1
   1   3  -8   28.23    2.49   1
  -1  -3   8   37.73    2.09   1
  -1  -3   8   37.12    1.93   1
  -1  -3   8   33.31    1.84   1
  -1  -3   8   34.39    2.45   1
  -1  -3   8   36.66    2.22   1
   0   3  -8   60.71    3.04   1
   0   3  -8   69.25    2.85   1
   0   3  -8   58.28    2.83   1
   0   3  -8   60.95    2.48   1
   0   3  -8   54.01    3.30   1
   0  -3   8   53.79    2.18   1
   0  -3   8   48.87    8.89   1
   0  -3   8   59.58    2.18   1
   0  -3   8   61.66    3.67   1
   0  -3   8   58.76    2.29   1
  -1   3  -8    1.45    1.16   1
  -1   3  -8    0.42    0.86   1
  -1   3  -8    0.15    0.89   1
  -1   3  -8    0.74    1.34   1
   1  -3   8    2.16    0.71   1
   1  -3   8    1.53    0.68   1
   1  -3   8   -0.80    1.30   1
   1  -3   8   -0.15    1.46   1
   1  -3   8    1.93    1.57   1
  -2   3  -8   -0.05    0.51   1
  -2   3  -8   -0.21    0.53   1
  -2   3  -8    0.48    1.35   1
  -2   3  -8   -0.03    0.87   1
   2  -3   8   -0.11    0.54   1
   2  -3   8   -0.41    1.39   1
   2  -3   8    0.95    1.52   1
   2  -3   8    0.00    1.05   1
   2  -3   8   -0.44    1.01   1
  -3   3  -8   49.45    2.39   1
  -3   3  -8   54.76    1.89   1
  -3   3  -8   46.05    3.60   1
  -3   3  -8   49.30    2.52   1
   3  -3   8   50.28    2.35   1
   3  -3   8   47.57    2.35   1
   3  -3   8   48.97    2.33   1
   3  -3   8   51.47    2.43   1
  -4   3  -8   18.79    1.63   1
  -4   3  -8   21.59    1.35   1
  -4   3  -8   18.27    2.23   1
   4  -3   8   23.35    2.40   1
   4  -3   8   25.27    2.06   1
   4  -3   8   21.78    2.35   1
   4  -3   8   25.62    2.06   1
  -5   3  -8   15.41    1.65   1
  -5   3  -8   22.01    2.24   1
   5  -3   8   19.13    2.63   1
   5  -3   8   20.19    2.19   1
   5  -3   8   23.98    2.31   1
   5  -3   8   18.74    2.60   1
  -6   3  -8    0.83    3.06   1
  -6   3  -8   -0.88    1.61   1
   6  -3   8    1.44    1.92   1
   6  -3   8    0.36    1.86   1
   6  -3   8   -0.63    2.56   1
   6  -3   8   -1.32    2.37   1
  -7   3  -8   29.17    3.12   1
  -7   3  -8   32.27    5.81   1
   7  -3   8   38.55    3.18   1
   7  -3   8   43.20    3.27   1
   7   2  -8    1.06    4.28   1
  -7  -2   8    2.26    4.12   1
   6   2  -8    1.47    3.48   1
  -6  -2   8    0.45    4.00   1
   5   2  -8   35.22    4.15   1
   5   2  -8   39.37    2.46   1
   5   2  -8   41.60    2.75   1
  -5  -2   8   35.38    3.32   1
   4   2  -8   42.86    2.63   1
   4   2  -8   37.93    3.67   1
   4   2  -8   41.31    3.87   1
   4   2  -8   46.04    2.36   1
   4   2  -8   43.32    2.63   1
  -4  -2   8   40.58    2.48   1
  -4  -2   8   34.94    2.91   1
   3   2  -8   -0.05    1.57   1
   3   2  -8    0.40    1.66   1
   3   2  -8   -0.11    0.78   1
   3   2  -8    0.39    0.87   1
   3   2  -8    0.42    0.85   1
  -3  -2   8    0.34    0.68   1
  -3  -2   8    0.40    1.32   1
   2   2  -8  113.30    4.16   1
   2   2  -8  109.74    4.87   1
   2   2  -8   98.11    4.39   1
   2   2  -8  101.27    3.66   1
   2   2  -8  115.47    3.88   1
   2   2  -8  112.18    5.06   1
  -2  -2   8  105.75    3.04   1
  -2  -2   8  113.59    7.46   1
  -2  -2   8  110.06    3.17   1
  -2  -2   8  104.92    3.88   1
  -2  -2   8  117.94    4.50   1
   1   2  -8    6.53    1.40   1
   1   2  -8    7.66    1.52   1
   1   2  -8    8.65    1.28   1
   1   2  -8    7.58    1.85   1
   1   2  -8    7.42    1.76   1
  -1  -2   8    6.59    1.22   1
  -1  -2   8    8.02    1.64   1
  -1  -2   8    8.89    1.22   1
  -1  -2   8    7.90    1.46   1
  -1  -2   8   10.40    1.43   1
  -1  -2   8    5.43    1.52   1
   0   2  -8  330.06   13.14   1
   0   2  -8  325.23   11.60   1
   0   2  -8  324.82   10.63   1
   0   2  -8  319.64   17.21   1
   0   2  -8  335.27    8.73   1
   0   2  -8  343.49   15.04   1
   0   2  -8  329.96    9.74   1
   0   2  -8  327.56    7.13   1
   0  -2   8  334.88    8.36   1
   0  -2   8  325.74    7.90   1
   0  -2   8  316.89   17.02   1
   0  -2   8  322.62    7.81   1
   0  -2   8  317.40   17.70   1
  -1   2  -8  279.89   11.17   1
  -1   2  -8  282.89   11.81   1
  -1   2  -8  273.85   11.25   1
  -1   2  -8  270.37    9.35   1
  -1   2  -8  286.66   12.23   1
  -1   2  -8  289.47    8.39   1
   1  -2   8  263.91   10.03   1
   1  -2   8  245.43    8.41   1
   1  -2   8  270.64    6.17   1
   1  -2   8  270.01    5.99   1
   1  -2   8  252.22   12.18   1
  -2   2  -8   21.65    0.85   1
  -2   2  -8   18.61    2.36   1
  -2   2  -8   20.39    1.61   1
  -2   2  -8   23.61    1.73   1
  -2   2  -8   21.72    1.12   1
  -2   2  -8   21.13    1.58   1
   2  -2   8   22.00    1.51   1
   2  -2   8   17.25    4.62   1
   2  -2   8   20.93    1.51   1
   2  -2   8   20.72    1.46   1
   2  -2   8   20.51    1.49   1
  -3   2  -8  334.64   18.75   1
  -3   2  -8  330.28   13.76   1
  -3   2  -8  322.82   21.68   1
  -3   2  -8  328.02   14.38   1
  -3   2  -8  313.01   10.38   1
  -3   2  -8  330.80   18.25   1
   3  -2   8  314.34    7.88   1
   3  -2   8  310.47    9.09   1
   3  -2   8  308.87    9.12   1
   3  -2   8  301.44   10.00   1
  -4   2  -8   28.64    1.98   1
  -4   2  -8   27.52    1.62   1
  -4   2  -8   29.23    2.21   1
  -4   2  -8   24.93    2.60   1
   4  -2   8   35.16    2.08   1
   4  -2   8   29.16    1.92   1
   4  -2   8   34.18    2.37   1
   4  -2   8   31.88    2.37   1
  -5   2  -8   27.46    2.43   1
   5  -2   8   28.49    2.54   1
   5  -2   8   28.23    2.52   1
   5  -2   8   31.29    2.63   1
   5  -2   8   29.14    2.45   1
  -6   2  -8   66.93    3.64   1
   6  -2   8   69.53    3.46   1
   6  -2   8   65.18    3.20   1
   6  -2   8   64.40    3.16   1
   6  -2   8   62.82    3.29   1
  -7   2  -8    2.85    2.95   1
  -7   2  -8    4.18    4.72   1
   7  -2   8    5.95    3.64   1
   7  -2   8    3.30    3.58   1
   7   1  -8   52.61    4.79   1
  -7  -1   8   43.14    4.48   1
   6   1  -8   58.94    4.39   1
  -6  -1   8   49.11    4.68   1
   5   1  -8    8.97    2.94   1
   5   1  -8   12.57    1.26   1
   5   1  -8   10.09    2.86   1
   5   1  -8    8.94    1.83   1
  -5  -1   8    7.92    1.37   1
  -5  -1   8    9.29    2.75   1
   4   1  -8   -0.05    0.47   1
   4   1  -8    0.03    1.79   1
   4   1  -8   -1.64    2.50   1
   4   1  -8    0.18    1.16   1
  -4  -1   8    0.31    0.75   1
  -4  -1   8   -0.33    1.57   1
   3   1  -8    0.70    1.63   1
   3   1  -8    0.90    0.31   1
   3   1  -8    0.54    1.10   1
   3   1  -8    0.70    0.28   1
   3   1  -8    0.99    1.58   1
  -3  -1   8    1.63    1.46   1
  -3  -1   8    1.35    1.10   1
  -3  -1   8    1.72    1.21   1
   2   1  -8   49.24    2.59   1
   2   1  -8   52.29    2.30   1
   2   1  -8   54.40    2.59   1
   2   1  -8   52.89    2.70   1
   2   1  -8   53.62    1.99   1
   2   1  -8   47.60    2.44   1
  -2  -1   8   50.72    3.34   1
  -2  -1   8   51.70    2.24   1
  -2  -1   8   54.40    2.50   1
  -2  -1   8   48.37    2.90   1
  -2  -1   8   48.54    2.55   1
   1   1  -8   -0.56    1.12   1
   1   1  -8    0.54    0.74   1
   1   1  -8   -0.17    0.62   1
   1   1  -8    0.16    0.77   1
   1   1  -8    0.45    0.87   1
  -1  -1   8   -0.71    0.74   1
  -1  -1   8    0.41    0.74   1
  -1  -1   8    0.09    0.76   1
  -1  -1   8    0.11    0.75   1
  -1  -1   8    0.31    0.84   1
   0   1  -8   53.06    4.03   1
   0   1  -8   57.10    4.78   1
   0   1  -8   56.85    2.31   1
   0   1  -8   58.21    4.73   1
   0   1  -8   59.65    2.59   1
   0  -1   8   49.50    3.47   1
   0  -1   8   59.13    1.96   1
   0  -1   8   55.01    1.89   1
   0  -1   8   55.64    2.42   1
   0  -1   8   58.62    2.68   1
  -1   1  -8   78.22    3.29   1
  -1   1  -8   79.13    3.10   1
  -1   1  -8   77.90    3.16   1
  -1   1  -8   77.10    2.58   1
  -1   1  -8   70.67    6.11   1
  -1   1  -8   73.04    3.10   1
  -1   1  -8   74.72    2.88   1
   1  -1   8   71.20    2.17   1
   1  -1   8   74.90    2.24   1
   1  -1   8   74.28    2.63   1
   1  -1   8   77.03    3.03   1
   1  -1   8   69.35    3.72   1
  -2   1  -8    1.27    1.03   1
  -2   1  -8    0.07    1.04   1
  -2   1  -8    0.03    1.12   1
  -2   1  -8    0.93    1.22   1
  -2   1  -8   -0.12    0.74   1
  -2   1  -8   -0.38    0.82   1
  -2   1  -8    1.03    1.27   1
   2  -1   8   -0.19    0.98   1
   2  -1   8    0.09    0.84   1
   2  -1   8    0.55    0.87   1
   2  -1   8    0.77    0.84   1
   2  -1   8    0.96    0.84   1
   2  -1   8   -0.19    0.96   1
  -3   1  -8    0.25    1.03   1
  -3   1  -8    0.16    1.28   1
  -3   1  -8   -0.59    1.05   1
   3  -1   8   -0.37    0.97   1
   3  -1   8   -0.58    1.35   1
   3  -1   8   -1.72    2.40   1
   3  -1   8   -0.72    1.34   1
   3  -1   8    0.42    0.94   1
  -4   1  -8   57.39    2.94   1
  -4   1  -8   49.52    3.10   1
  -4   1  -8   48.20    2.99   1
  -4   1  -8   58.89    3.08   1
   4  -1   8   57.04    2.35   1
   4  -1   8   55.83    2.28   1
   4  -1   8   59.26    2.31   1
   4  -1   8   56.99    2.33   1
   4  -1   8   57.01    4.06   1
  -5   1  -8   62.12    4.34   1
   5  -1   8   66.18    2.94   1
   5  -1   8   63.97    2.96   1
   5  -1   8   66.95    3.00   1
   5  -1   8   70.40    2.98   1
   5  -1   8   59.58    4.04   1
  -6   1  -8    4.45    2.35   1
   6  -1   8    8.65    2.45   1
   6  -1   8   12.42    3.77   1
   6  -1   8   12.47    2.51   1
  -7   1  -8   32.37    4.50   1
  -7   1  -8   46.76    4.59   1
   7  -1   8   37.85    4.03   1
   8   0  -8    0.65    4.83   1
  -8   0   8   -0.63    3.25   1
   7   0  -8   -1.96    4.22   1
  -7   0   8   -0.27    2.77   1
   6   0  -8    0.06    2.69   1
   6   0  -8    0.52    2.91   1
  -6   0   8    0.03    2.11   1
  -6   0   8   -1.11    2.51   1
   5   0  -8   77.13    4.16   1
   5   0  -8   78.47    4.24   1
   5   0  -8   71.46    4.37   1
  -5   0   8   74.77    4.13   1
  -5   0   8   78.46    4.95   1
   4   0  -8  150.87    5.41   1
   4   0  -8  156.27    5.67   1
   4   0  -8  142.91    6.35   1
  -4   0   8  159.43    5.63   1
  -4   0   8  150.64    6.10   1
  -4   0   8  150.87    7.04   1
   3   0  -8  548.77   14.32   1
   3   0  -8  545.46   19.26   1
   3   0  -8  542.95   16.20   1
  -3   0   8  585.23   13.23   1
  -3   0   8  535.82   13.08   1
  -3   0   8  551.76   21.33   1
   2   0  -8   23.88    1.78   1
   2   0  -8   23.21    1.58   1
   2   0  -8   25.06    1.67   1
   2   0  -8   28.35    1.88   1
  -2   0   8   25.57    1.80   1
  -2   0   8   25.98    2.06   1
  -2   0   8   23.25    1.27   1
  -2   0   8   26.81    1.69   1
   1   0  -8  174.56    5.58   1
   1   0  -8  168.14    5.37   1
   1   0  -8  165.77    5.58   1
   1   0  -8  168.42    5.29   1
   1   0  -8  166.98    4.64   1
  -1   0   8  166.10    3.68   1
  -1   0   8  168.28   10.44   1
  -1   0   8  176.19    4.97   1
  -1   0   8  169.02    7.08   1
  -1   0   8  177.09    7.42   1
   0   0  -8   45.62    1.82   1
   0   0  -8   37.53    1.75   1
   0   0  -8   39.90    2.57   1
   0   0  -8   41.13    1.68   1
   0   0  -8   41.84    3.53   1
   0   0   8   39.97    2.22   1
   0   0   8   38.66    2.51   1
   0   0   8   40.06    2.17   1
   0   0   8   36.51    1.93   1
   0   0   8   40.24    1.53   1
   0   0   8   42.79    1.60   1
  -1   0  -8   61.84    3.91   1
  -1   0  -8   59.49    2.64   1
  -1   0  -8   62.95    2.68   1
  -1   0  -8   64.66    2.64   1
  -1   0  -8   57.10    3.22   1
   1   0   8   59.81    1.73   1
   1   0   8   58.26    2.46   1
   1   0   8   57.57    1.75   1
   1   0   8   60.27    2.38   1
   1   0   8   58.67    1.68   1
  -2   0  -8    0.34    1.47   1
  -2   0  -8    1.75    1.07   1
  -2   0  -8    1.74    1.62   1
  -2   0  -8    0.18    1.47   1
  -2   0  -8    1.75    1.08   1
   2   0   8    2.45    0.70   1
   2   0   8    1.50    0.89   1
   2   0   8    2.74    0.74   1
   2   0   8    3.62    1.66   1
   2   0   8    2.15    0.92   1
  -3   0  -8   34.30    1.92   1
  -3   0  -8   28.71    2.12   1
  -3   0  -8   34.62    1.37   1
  -3   0  -8   34.23    1.83   1
   3   0   8   33.90    1.44   1
   3   0   8   33.63    1.46   1
   3   0   8   38.28    1.57   1
   3   0   8   31.91    2.67   1
   3   0   8   36.50    1.55   1
  -4   0  -8    1.09    1.70   1
  -4   0  -8    0.43    1.21   1
  -4   0  -8    0.35    0.77   1
  -4   0  -8    0.92    1.26   1
   4   0   8    1.63    1.26   1
   4   0   8    1.00    1.26   1
   4   0   8    0.72    2.06   1
   4   0   8    1.24    1.32   1
   4   0   8    1.06    1.29   1
  -5   0  -8   28.12    2.85   1
   5   0   8   22.91    3.48   1
   5   0   8   29.63    1.75   1
   5   0   8   28.74    1.77   1
  -6   0  -8    0.44    2.44   1
   6   0   8   -1.98    2.36   1
  -7   0  -8   -2.52    2.78   1
   7   0   8    1.45    2.92   1
   8  -1  -8    1.25    6.11   1
  -8   1   8    1.44    5.98   1
   7  -1  -8   48.75    4.25   1
   7  -1  -8   55.45    4.61   1
  -7   1   8   48.46    4.43   1
  -7   1   8   45.76    3.74   1
   6  -1  -8    8.24    2.85   1
   6  -1  -8    2.99    2.59   1
  -6   1   8    4.44    2.73   1
  -6   1   8    6.42    2.82   1
   5  -1  -8  347.35    9.37   1
   5  -1  -8  337.24    8.84   1
  -5   1   8  344.06   15.79   1
  -5   1   8  351.87   20.84   1
  -5   1   8  334.51    9.82   1
  -5   1   8  328.13   14.17   1
   4  -1  -8    1.01    1.55   1
   4  -1  -8    0.67    1.53   1
  -4   1   8    0.91    2.07   1
  -4   1   8    0.39    0.81   1
  -4   1   8    0.31    1.22   1
   3  -1  -8    3.37    2.01   1
   3  -1  -8    2.96    1.54   1
   3  -1  -8    3.74    1.54   1
   3  -1  -8    4.19    1.14   1
  -3   1   8    1.98    1.04   1
  -3   1   8    4.98    1.51   1
   2  -1  -8  258.48    9.05   1
   2  -1  -8  239.80    5.82   1
   2  -1  -8  235.84    7.40   1
   2  -1  -8  236.37   11.75   1
   2  -1  -8  251.08   11.64   1
  -2   1   8  271.89    6.37   1
  -2   1   8  260.47   14.56   1
  -2   1   8  263.56   13.90   1
  -2   1   8  260.33   12.10   1
  -2   1   8  250.46    9.28   1
   1  -1  -8   48.18    1.93   1
   1  -1  -8   39.95    2.49   1
   1  -1  -8   49.83    2.11   1
   1  -1  -8   46.05    2.29   1
  -1   1   8   46.12    2.89   1
  -1   1   8   42.05    2.77   1
  -1   1   8   43.28    2.77   1
  -1   1   8   44.61    2.87   1
  -1   1   8   44.54    2.44   1
   0  -1  -8    2.48    0.91   1
   0  -1  -8    2.61    1.12   1
   0  -1  -8    0.68    1.86   1
   0  -1  -8    2.61    1.46   1
   0  -1  -8    0.99    1.02   1
   0   1   8    1.77    1.15   1
   0   1   8    2.78    0.71   1
   0   1   8    0.84    1.01   1
   0   1   8    1.26    1.53   1
   0   1   8    1.49    1.84   1
  -1  -1  -8  394.50   11.79   1
  -1  -1  -8  394.11   10.46   1
  -1  -1  -8  399.98   17.06   1
  -1  -1  -8  416.20   18.43   1
  -1  -1  -8  401.02   16.07   1
   1   1   8  380.23    8.67   1
   1   1   8  380.73   11.72   1
   1   1   8  406.63   25.51   1
   1   1   8  378.01   11.24   1
   1   1   8  359.52   12.13   1
   1   1   8  401.25   10.46   1
   1   1   8  382.24   10.48   1
  -2  -1  -8    4.83    2.01   1
  -2  -1  -8    3.60    0.62   1
   2   1   8    5.45    0.68   1
   2   1   8    5.19    0.94   1
   2   1   8    3.05    1.85   1
   2   1   8    6.75    0.75   1
   2   1   8    5.58    0.72   1
   2   1   8    3.34    1.85   1
   2   1   8    5.12    0.72   1
  -3  -1  -8  196.86    8.76   1
  -3  -1  -8  185.32    7.52   1
   3   1   8  183.07    4.30   1
   3   1   8  190.21    4.00   1
   3   1   8  195.92    8.55   1
   3   1   8  192.78    7.92   1
   3   1   8  186.00    6.02   1
   3   1   8  191.67    5.58   1
   3   1   8  194.69    6.31   1
  -4  -1  -8   81.38    4.32   1
  -4  -1  -8   89.90    4.08   1
   4   1   8   79.44    2.58   1
   4   1   8   75.51    4.15   1
   4   1   8   76.59    3.09   1
   4   1   8   85.90    4.02   1
   4   1   8   80.47    4.99   1
  -5  -1  -8   17.35    3.58   1
   5   1   8   14.82    3.13   1
  -6  -1  -8   18.41    3.19   1
   6   1   8   16.08    3.36   1
  -7  -1  -8   42.48    4.32   1
   7   1   8   36.80    4.45   1
   8  -2  -8   12.76    5.15   1
  -8   2   8    7.67    3.87   1
   7  -2  -8   13.83    4.47   1
   7  -2  -8   20.08    3.53   1
  -7   2   8   15.66    4.50   1
  -7   2   8   12.08    3.58   1
   6  -2  -8    2.03    3.28   1
   6  -2  -8   -3.01    3.06   1
  -6   2   8   -1.31    2.56   1
  -6   2   8   -0.17    2.06   1
   5  -2  -8    8.02    2.14   1
   5  -2  -8   12.77    3.01   1
  -5   2   8    6.61    0.94   1
  -5   2   8    6.69    2.04   1
   4  -2  -8   93.93    3.72   1
   4  -2  -8   97.90    3.87   1
  -4   2   8   98.38    3.17   1
  -4   2   8   95.06    3.55   1
  -4   2   8   98.82    5.05   1
  -4   2   8   88.99    4.68   1
   3  -2  -8  185.63    7.42   1
   3  -2  -8  175.72    3.81   1
   3  -2  -8  184.47    5.65   1
  -3   2   8  186.35   11.04   1
  -3   2   8  183.02    7.75   1
  -3   2   8  195.27    8.88   1
   2  -2  -8   24.41    1.14   1
   2  -2  -8   24.55    1.45   1
   2  -2  -8   25.90    1.78   1
  -2   2   8   25.74    2.04   1
  -2   2   8   26.34    1.51   1
  -2   2   8   24.65    2.04   1
  -2   2   8   29.56    2.46   1
  -2   2   8   23.51    1.61   1
  -2   2   8   23.69    1.49   1
   1  -2  -8  157.03    5.14   1
   1  -2  -8  154.76    7.51   1
   1  -2  -8  137.21   11.41   1
   1  -2  -8  144.12    4.26   1
  -1   2   8  156.31    4.07   1
  -1   2   8  158.56    3.64   1
  -1   2   8  153.58    4.30   1
  -1   2   8  156.95    4.64   1
  -1   2   8  159.33    5.80   1
  -1   2   8  150.55    6.14   1
  -1   2   8  147.67    6.31   1
  -1   2   8  149.68    7.64   1
   0  -2  -8    0.29    0.82   1
   0  -2  -8   -0.03    1.21   1
   0  -2  -8    0.10    1.11   1
   0  -2  -8    0.00    5.40   1
   0   2   8    3.57    3.34   1
   0   2   8    1.77    0.85   1
   0   2   8    1.48    0.88   1
   0   2   8    1.41    1.48   1
   0   2   8    0.46    1.44   1
   0   2   8    1.48    1.67   1
   0   2   8    0.29    2.03   1
  -1  -2  -8    7.50    1.39   1
  -1  -2  -8    7.55    1.44   1
  -1  -2  -8    7.32    1.01   1
   1   2   8    6.86    2.23   1
   1   2   8    7.76    1.04   1
   1   2   8    9.05    2.14   1
   1   2   8    7.84    1.97   1
   1   2   8    5.44    1.79   1
   1   2   8    9.49    0.75   1
   1   2   8    7.87    0.78   1
   1   2   8    7.63    0.72   1
   1   2   8    6.94    0.72   1
  -2  -2  -8    0.30    1.80   1
  -2  -2  -8    0.72    0.67   1
   2   2   8    0.55    0.33   1
   2   2   8    0.33    0.28   1
   2   2   8    0.39    0.33   1
   2   2   8    1.99    1.88   1
   2   2   8    1.71    1.16   1
   2   2   8    1.22    1.41   1
   2   2   8    0.61    0.28   1
   2   2   8    0.88    1.71   1
   2   2   8    0.58    0.30   1
   2   2   8    0.97    0.30   1
  -3  -2  -8   28.08    1.83   1
  -3  -2  -8   28.82    2.48   1
   3   2   8   21.93    3.21   1
   3   2   8   30.03    2.04   1
   3   2   8   26.28    2.89   1
  -4  -2  -8   21.15    2.65   1
  -4  -2  -8   17.16    1.58   1
   4   2   8   15.27    2.84   1
   4   2   8   15.73    2.86   1
  -5  -2  -8    2.38    2.87   1
   5   2   8    4.98    3.17   1
   5   2   8    4.17    3.17   1
  -6  -2  -8    2.31    3.16   1
   6   2   8    8.20    3.66   1
   6   2   8    1.38    3.64   1
   8  -3  -8    1.45    4.74   1
   8  -3  -8    2.19    3.16   1
  -8   3   8   -1.04    3.55   1
  -8   3   8    1.00    4.26   1
   7  -3  -8    7.92    4.35   1
   7  -3  -8    9.43    4.60   1
  -7   3   8    5.63    3.43   1
  -7   3   8    2.29    2.97   1
   6  -3  -8   83.17    4.41   1
   6  -3  -8   76.59    4.31   1
  -6   3   8   74.43    5.01   1
   5  -3  -8    2.35    2.22   1
   5  -3  -8    1.04    2.12   1
  -5   3   8   -0.26    3.42   1
  -5   3   8    1.18    1.47   1
   4  -3  -8    5.30    2.00   1
   4  -3  -8    5.02    1.94   1
  -4   3   8    3.72    0.54   1
  -4   3   8    4.79    3.08   1
  -4   3   8    3.68    1.17   1
   3  -3  -8   33.89    2.11   1
   3  -3  -8   36.79    2.41   1
  -3   3   8   35.34    1.59   1
  -3   3   8   35.15    2.59   1
  -3   3   8   35.24    2.02   1
   2  -3  -8    8.02    0.66   1
   2  -3  -8    6.83    1.41   1
   2  -3  -8    7.18    1.50   1
  -2   3   8    5.14    1.50   1
  -2   3   8    8.59    2.10   1
  -2   3   8    5.65    2.53   1
  -2   3   8    4.60    1.95   1
  -2   3   8    4.57    1.02   1
  -2   3   8    7.69    2.13   1
   1  -3  -8   72.36    2.05   1
   1  -3  -8   63.92    3.21   1
   1  -3  -8   69.14    2.83   1
  -1   3   8   73.35    3.10   1
  -1   3   8   75.92    2.78   1
  -1   3   8   68.21    2.50   1
  -1   3   8   59.06    2.91   1
  -1   3   8   68.14    2.98   1
  -1   3   8   67.03    3.11   1
   0  -3  -8  210.94    8.13   1
   0  -3  -8  205.71    7.46   1
   0   3   8  223.64    8.18   1
   0   3   8  213.60    8.64   1
   0   3   8  225.29    6.19   1
   0   3   8  217.10    8.55   1
   0   3   8  210.56   11.39   1
   0   3   8  217.17   11.39   1
   0   3   8  220.85    9.92   1
   0   3   8  213.53    9.21   1
  -1  -3  -8   24.98    1.62   1
  -1  -3  -8   26.65    2.29   1
   1   3   8   25.97    2.67   1
   1   3   8   23.84    0.84   1
   1   3   8   22.57    2.02   1
   1   3   8   28.32    1.09   1
   1   3   8   28.28    2.27   1
   1   3   8   28.33    1.04   1
   1   3   8   21.87    2.51   1
   1   3   8   27.74    1.14   1
   1   3   8   29.02    1.16   1
   1   3   8   24.83    0.90   1
  -2  -3  -8  111.08    5.29   1
  -2  -3  -8  104.58    4.55   1
   2   3   8  111.48    4.77   1
   2   3   8  102.44    5.07   1
   2   3   8  105.71    5.26   1
   2   3   8  118.71    6.96   1
  -3  -3  -8   40.36    3.02   1
  -3  -3  -8   46.46    2.75   1
   3   3   8   43.10    3.68   1
   3   3   8   39.18    3.65   1
  -4  -3  -8    1.93    1.73   1
  -4  -3  -8    6.12    3.04   1
   4   3   8   -0.88    4.38   1
   4   3   8    1.24    4.48   1
  -5  -3  -8   23.98    3.58   1
   5   3   8   22.70    4.05   1
   5   3   8   23.29    4.07   1
  -6  -3  -8    0.72    3.13   1
   6   3   8    2.41    3.62   1
   6   3   8   -0.64    4.83   1
   7  -4  -8   33.85    3.64   1
   7  -4  -8   25.47    3.94   1
  -7   4   8   27.18    4.59   1
   6  -4  -8    3.96    2.57   1
   6  -4  -8    7.95    2.91   1
  -6   4   8    7.33    3.34   1
   5  -4  -8   53.71    3.24   1
   5  -4  -8   55.20    3.48   1
  -5   4   8   57.01    2.93   1
  -5   4   8   58.60    3.84   1
   4  -4  -8   55.24    2.94   1
   4  -4  -8   58.94    3.29   1
  -4   4   8   49.46    3.09   1
  -4   4   8   52.53    3.53   1
   3  -4  -8   12.77    1.77   1
  -3   4   8   14.35    2.48   1
  -3   4   8    8.33    2.21   1
   2  -4  -8   41.73    2.44   1
   2  -4  -8   42.02    2.30   1
  -2   4   8   36.66    2.93   1
  -2   4   8   39.07    3.25   1
   1  -4  -8   68.78    2.98   1
   1  -4  -8   72.36    2.20   1
  -1   4   8   68.13    2.61   1
  -1   4   8   63.47    3.45   1
  -1   4   8   64.29    3.69   1
  -1   4   8   65.10    4.25   1
  -1   4   8   68.08    3.56   1
  -1   4   8   66.05    4.40   1
  -1   4   8   69.48    2.64   1
   0  -4  -8    0.56    1.16   1
   0  -4  -8    0.09    1.30   1
   0  -4  -8    0.17    1.38   1
   0   4   8    0.57    0.74   1
   0   4   8    1.07    1.89   1
   0   4   8    1.81    1.02   1
   0   4   8    0.09    2.73   1
   0   4   8    0.40    0.99   1
   0   4   8    1.08    2.26   1
   0   4   8    0.43    1.08   1
  -1  -4  -8   16.22    1.71   1
  -1  -4  -8   13.86    2.07   1
   1   4   8   15.91    0.68   1
   1   4   8   15.15    0.61   1
   1   4   8   19.89    2.88   1
   1   4   8   14.72    2.61   1
   1   4   8   16.23    2.12   1
   1   4   8   14.45    0.51   1
   1   4   8   16.33    0.73   1
  -2  -4  -8   32.26    2.40   1
  -2  -4  -8   41.12    2.82   1
   2   4   8   39.92    3.04   1
   2   4   8   41.70    3.69   1
   2   4   8   35.38    3.54   1
  -3  -4  -8    8.19    2.41   1
  -3  -4  -8   10.52    2.52   1
   3   4   8   10.22    3.31   1
   3   4   8    6.22    3.07   1
  -4  -4  -8   49.71    3.92   1
   4   4   8   43.73    4.43   1
   4   4   8   45.59    4.52   1
  -5  -4  -8    3.32    4.18   1
   5   4   8   -1.73    5.00   1
   5   4   8    0.20    4.93   1
   7  -5  -8    0.95    2.46   1
   7  -5  -8   -0.27    2.39   1
  -7   5   8    2.44    3.20   1
   6  -5  -8   12.55    2.80   1
   6  -5  -8   17.57    3.02   1
  -6   5   8    8.03    4.63   1
   5  -5  -8   19.71    2.47   1
   5  -5  -8   22.17    2.98   1
  -5   5   8   16.73    3.22   1
  -5   5   8   15.31    2.17   1
   4  -5  -8   62.41    3.34   1
   4  -5  -8   57.35    3.27   1
  -4   5   8   55.28    3.43   1
  -4   5   8   56.38    4.37   1
   3  -5  -8   88.71    3.63   1
  -3   5   8   98.43    4.46   1
  -3   5   8   84.41    4.79   1
   2  -5  -8  243.85   16.15   1
   2  -5  -8  263.61    8.89   1
  -2   5   8  255.64   13.53   1
  -2   5   8  268.84    9.13   1
   1  -5  -8   66.86    3.54   1
   1  -5  -8   63.25    3.28   1
  -1   5   8   61.13    4.45   1
  -1   5   8   53.95    4.37   1
  -1   5   8   62.49    4.21   1
  -1   5   8   56.42    4.91   1
  -1   5   8   61.94    3.47   1
  -1   5   8   62.80    5.76   1
  -1   5   8   67.27    4.15   1
   0  -5  -8    8.84    2.23   1
   0  -5  -8   17.69    2.71   1
   0  -5  -8   13.59    1.67   1
   0   5   8   13.96    2.97   1
   0   5   8    6.71    2.62   1
   0   5   8    8.56    3.45   1
  -1  -5  -8    0.86    1.35   1
  -1  -5  -8   -1.11    1.89   1
   1   5   8   -0.78    2.28   1
   1   5   8   -0.44    2.31   1
   1   5   8   -2.11    2.11   1
  -2  -5  -8   99.61    5.16   1
  -2  -5  -8   84.37    4.20   1
   2   5   8   83.32    4.58   1
   2   5   8   83.90    5.61   1
   2   5   8   86.97    6.19   1
  -3  -5  -8    8.14    2.19   1
  -3  -5  -8   13.86    3.70   1
   3   5   8   11.49    3.78   1
   3   5   8    6.78    3.43   1
  -4  -5  -8    1.40    2.56   1
   4   5   8    1.69    4.99   1
   4   5   8    2.23    3.43   1
   6  -6  -8   -0.87    3.50   1
   6  -6  -8   -0.58    3.07   1
  -6   6   8   -0.14    5.11   1
   5  -6  -8   38.35    2.99   1
   5  -6  -8   37.85    2.93   1
  -5   6   8   25.98    3.52   1
  -5   6   8   33.03    4.04   1
   4  -6  -8    5.64    2.18   1
   4  -6  -8    3.98    1.99   1
  -4   6   8   -0.42    2.77   1
  -4   6   8    4.53    5.02   1
   3  -6  -8    1.76    1.85   1
  -3   6   8    1.49    4.20   1
  -3   6   8    3.93    3.12   1
   2  -6  -8   68.72    3.23   1
  -2   6   8   64.17    4.88   1
  -2   6   8   62.90    4.81   1
   1  -6  -8    5.86    1.99   1
   1  -6  -8    8.20    1.65   1
  -1   6   8    0.96    4.24   1
  -1   6   8    4.38    3.63   1
  -1   6   8    2.58    4.15   1
   0  -6  -8    7.83    2.65   1
   0  -6  -8   13.24    2.19   1
   0  -6  -8   17.29    2.50   1
   0   6   8    8.06    4.20   1
   0   6   8   11.25    4.30   1
   0   6   8   11.57    2.65   1
  -1  -6  -8    1.00    1.95   1
  -1  -6  -8   -0.86    2.06   1
  -1  -6  -8   -0.75    2.59   1
   1   6   8    0.06    4.64   1
   1   6   8    1.31    2.23   1
   1   6   8   -0.20    3.26   1
  -2  -6  -8   17.61    3.14   1
  -2  -6  -8   30.57    3.63   1
   2   6   8   20.20    5.09   1
   2   6   8   27.44    3.42   1
   2   6   8   23.01    4.29   1
  -3  -6  -8   17.57    3.49   1
   3   6   8   25.88    4.70   1
   3   6   8   18.80    4.56   1
   5  -7  -8   -0.78    1.76   1
   5  -7  -8    2.05    1.93   1
  -5   7   8    1.44    3.37   1
   4  -7  -8   50.70    3.22   1
  -4   7   8   40.67    4.61   1
  -4   7   8   47.23    4.34   1
   3  -7  -8   90.38    5.62   1
  -3   7   8   87.60    5.60   1
  -3   7   8   99.27    5.39   1
   2  -7  -8  120.39    6.67   1
  -2   7   8  116.09    5.96   1
  -2   7   8  115.70    5.98   1
   1  -7  -8   11.03    3.08   1
  -1   7   8   12.48    4.10   1
  -1   7   8    7.54    3.99   1
  -1   7   8    6.80    3.79   1
   0  -7  -8    9.59    2.74   1
   0  -7  -8   16.58    2.82   1
   0   7   8    8.68    4.03   1
   0   7   8    9.80    2.95   1
   0   7   8    6.41    5.02   1
  -1  -7  -8    4.26    3.67   1
  -1  -7  -8   -1.61    2.98   1
  -1  -7  -8    3.24    4.43   1
   1   7   8    2.85    3.11   1
   1   7   8    3.80    4.79   1
   1   7   8    4.40    6.90   1
   3  -8  -8    6.26    2.72   1
  -3   8   8   -1.21    4.42   1
  -3   8   8    0.29    5.73   1
   2  -8  -8    0.63    2.25   1
  -2   8   8    0.23    3.88   1
  -2   8   8    3.56    4.76   1
  -2   8   8   -2.79    5.84   1
   1  -8  -8   31.92    3.71   1
  -1   8   8   31.18    3.97   1
  -1   8   8   26.42    4.64   1
  -1   8   8   17.12    5.90   1
  -2   9  -9   -0.93    3.73   1
   2  -9   9   -0.38    2.14   1
   2  -9   9   -0.76    2.83   1
   2  -9   9   -1.94    4.05   1
   2   8  -9   10.26    3.77   1
  -2  -8   9   11.39    3.56   1
   1   8  -9    3.93    5.08   1
  -1  -8   9    6.08    4.34   1
  -1  -8   9    1.92    2.60   1
  -1  -8   9    1.92    2.63   1
  -1  -8   9    2.01    2.57   1
  -1  -8   9   -1.09    2.54   1
   0   8  -9   11.66    4.97   1
   0  -8   9    9.51    2.89   1
   0  -8   9    5.59    2.71   1
   0  -8   9    5.22    2.74   1
   0  -8   9    4.65    2.71   1
   0  -8   9    4.09    2.71   1
  -1   8  -9   19.45    4.56   1
   1  -8   9   10.28    2.67   1
   1  -8   9   15.50    3.07   1
   1  -8   9   14.52    2.77   1
   1  -8   9   11.77    2.67   1
   1  -8   9   10.50    2.53   1
  -2   8  -9   33.05    4.45   1
  -2   8  -9   32.33    4.06   1
  -2   8  -9   32.28    3.75   1
   2  -8   9   26.49    3.21   1
   2  -8   9   22.87    3.63   1
   2  -8   9   24.32    3.24   1
   2  -8   9   29.44    3.19   1
   2  -8   9   24.41    3.75   1
  -3   8  -9   -4.19    4.19   1
  -3   8  -9   -0.58    3.84   1
  -3   8  -9   -1.96    3.14   1
   3  -8   9    1.74    3.19   1
   3  -8   9    2.18    3.12   1
   3  -8   9   -0.88    2.17   1
   3  -8   9   -1.59    3.00   1
   3  -8   9   -2.99    3.08   1
  -4   8  -9  200.80   12.32   1
   4  -8   9  177.21    7.16   1
   4  -8   9  182.01    8.77   1
   4  -8   9  197.88   10.46   1
   4  -8   9  171.45    8.79   1
  -5   8  -9   20.94    5.29   1
   5  -8   9   10.38    3.49   1
   5  -8   9   11.78    3.62   1
   5  -8   9   12.86    3.78   1
   5  -8   9   12.67    3.73   1
   3   7  -9   14.51    4.25   1
  -3  -7   9   12.92    3.32   1
  -3  -7   9    5.47    2.45   1
  -3  -7   9    7.10    2.50   1
   2   7  -9   44.34    4.40   1
  -2  -7   9   45.57    4.36   1
  -2  -7   9   37.97    2.95   1
  -2  -7   9   35.60    2.95   1
   1   7  -9    2.82    4.31   1
  -1  -7   9    0.58    7.85   1
  -1  -7   9    1.15    2.75   1
  -1  -7   9    2.07    2.51   1
  -1  -7   9    2.58    5.85   1
  -1  -7   9    0.31    2.34   1
   0   7  -9   12.22    3.04   1
   0  -7   9    9.63    2.34   1
   0  -7   9    9.07    2.37   1
   0  -7   9    7.92    2.23   1
   0  -7   9    7.50    2.34   1
  -1   7  -9   27.69    3.38   1
  -1   7  -9   30.35    3.94   1
  -1   7  -9   23.24    3.10   1
   1  -7   9   19.84    3.03   1
   1  -7   9   18.43    3.05   1
   1  -7   9   22.46    3.17   1
   1  -7   9   27.02    2.54   1
   1  -7   9   20.00    3.05   1
  -2   7  -9   12.00    3.41   1
  -2   7  -9   17.54    3.28   1
  -2   7  -9   18.61    3.25   1
   2  -7   9   11.19    2.45   1
   2  -7   9   10.31    2.50   1
   2  -7   9   14.60    2.06   1
   2  -7   9   13.71    2.55   1
   2  -7   9   11.18    2.55   1
  -3   7  -9   63.22    3.79   1
  -3   7  -9   64.58    5.24   1
   3  -7   9   57.89    4.18   1
   3  -7   9   55.44    3.68   1
   3  -7   9   57.43    4.68   1
   3  -7   9   55.29    3.60   1
   3  -7   9   55.85    3.86   1
  -4   7  -9    4.31    4.63   1
  -4   7  -9    1.71    2.53   1
   4  -7   9    1.25    3.25   1
   4  -7   9    3.52    3.39   1
   4  -7   9    2.17    3.06   1
   4  -7   9   -0.17    3.06   1
  -5   7  -9    1.92    4.86   1
   5  -7   9    2.66    4.55   1
   5  -7   9   -0.25    4.46   1
   5  -7   9    2.60    3.38   1
   5  -7   9    0.06    3.28   1
  -6   7  -9   -0.69    8.47   1
   6  -7   9    0.59    3.90   1
   6  -7   9    5.22    6.03   1
   6  -7   9   -1.87    3.78   1
   6  -7   9   -5.31    5.31   1
   4   6  -9   10.14    3.71   1
   4   6  -9    9.24    3.77   1
  -4  -6   9    2.14    2.08   1
  -4  -6   9    5.70    4.24   1
  -4  -6   9    4.33    2.10   1
   3   6  -9   30.21    3.55   1
  -3  -6   9   23.46    2.36   1
  -3  -6   9   25.95    2.48   1
  -3  -6   9   34.09    3.96   1
  -2  -6   9    2.84    2.08   1
  -2  -6   9    4.19    3.45   1
  -2  -6   9    1.44    1.99   1
   1   6  -9    2.53    2.39   1
   1   6  -9    2.12    1.41   1
  -1  -6   9    5.76    2.32   1
  -1  -6   9    2.96    2.19   1
  -1  -6   9    2.59    2.22   1
   0   6  -9   34.35    2.92   1
   0   6  -9   36.09    2.37   1
   0   6  -9   24.80    2.92   1
   0  -6   9   29.11    2.49   1
   0  -6   9   29.78    2.40   1
   0  -6   9   29.13    2.37   1
   0  -6   9   32.90    2.81   1
   0  -6   9   30.21    2.47   1
  -1   6  -9   49.94    3.58   1
  -1   6  -9   47.59    3.31   1
  -1   6  -9   46.01    3.24   1
   1  -6   9   42.51    2.88   1
   1  -6   9   44.94    2.88   1
   1  -6   9   43.84    2.81   1
   1  -6   9   45.97    2.90   1
   1  -6   9   44.18    3.01   1
  -2   6  -9   44.30    3.07   1
  -2   6  -9   48.20    3.53   1
   2  -6   9   35.79    3.14   1
   2  -6   9   48.76    2.46   1
   2  -6   9   38.06    3.23   1
   2  -6   9   38.33    2.92   1
   2  -6   9   41.99    2.92   1
  -3   6  -9    0.66    3.61   1
  -3   6  -9   -0.27    1.62   1
   3  -6   9   -0.40    1.85   1
   3  -6   9    1.72    1.85   1
   3  -6   9    1.93    1.96   1
   3  -6   9    0.55    1.93   1
   3  -6   9   -0.64    1.01   1
  -4   6  -9   57.58    5.20   1
  -4   6  -9   46.67    4.18   1
   4  -6   9   44.39    3.24   1
   4  -6   9   49.32    3.42   1
   4  -6   9   46.12    3.31   1
   4  -6   9   53.38    3.53   1
  -5   6  -9   10.99    4.43   1
  -5   6  -9    8.53    2.91   1
   5  -6   9    7.52    2.86   1
   5  -6   9    8.79    3.05   1
   5  -6   9    8.65    3.03   1
   5  -6   9    8.36    2.97   1
  -6   6  -9    8.51    5.52   1
   6  -6   9    4.80    3.35   1
   6  -6   9    5.07    3.38   1
   6  -6   9    3.98    3.32   1
   6  -6   9    5.50    3.56   1
   5   5  -9    3.21    6.01   1
  -5  -5   9    1.76    2.08   1
  -5  -5   9    2.71    2.08   1
  -5  -5   9    6.46    4.67   1
   4   5  -9  113.61    8.55   1
   4   5  -9  113.19    6.85   1
   4   5  -9  105.13    5.65   1
  -4  -5   9  111.24    6.98   1
  -4  -5   9  119.70    6.21   1
  -4  -5   9  113.73    6.41   1
   3   5  -9  126.44    6.42   1
   3   5  -9  119.03    6.44   1
  -3  -5   9  132.37    4.35   1
  -3  -5   9  118.63    4.28   1
  -3  -5   9  138.44    7.58   1
   2   5  -9   11.78    2.43   1
   2   5  -9   19.50    2.26   1
  -2  -5   9   17.01    2.04   1
  -2  -5   9   15.81    1.99   1
  -2  -5   9   19.47    2.53   1
   1   5  -9  135.04    6.04   1
   1   5  -9  148.64    5.46   1
   1   5  -9  138.47    5.38   1
   1   5  -9  138.21    5.48   1
   1   5  -9  133.48    5.59   1
  -1  -5   9  143.36    5.50   1
  -1  -5   9  146.94    4.69   1
  -1  -5   9  143.51    4.39   1
   0   5  -9    0.52    1.55   1
   0   5  -9    0.42    1.40   1
   0   5  -9    0.88    2.20   1
   0   5  -9   -0.56    1.59   1
   0  -5   9    0.20    1.13   1
   0  -5   9    0.12    1.23   1
   0  -5   9   -0.27    1.00   1
   0  -5   9   -0.20    1.25   1
   0  -5   9    0.61    1.05   1
  -1   5  -9   12.43    2.94   1
  -1   5  -9    7.12    1.28   1
  -1   5  -9    7.52    2.02   1
   1  -5   9    6.90    2.34   1
   1  -5   9    7.64    1.74   1
   1  -5   9    9.31    1.88   1
   1  -5   9   11.56    1.88   1
   1  -5   9    5.45    2.34   1
  -2   5  -9   14.84    2.02   1
  -2   5  -9   18.93    2.66   1
   2  -5   9   13.69    2.26   1
   2  -5   9   17.23    1.45   1
   2  -5   9   19.32    2.48   1
   2  -5   9   11.89    2.26   1
   2  -5   9   11.48    2.29   1
  -3   5  -9    3.96    3.22   1
  -3   5  -9    0.71    1.59   1
   3  -5   9    1.69    1.96   1
   3  -5   9    4.37    3.08   1
   3  -5   9    4.47    2.98   1
   3  -5   9    2.71    2.07   1
  -4   5  -9    4.86    3.24   1
  -4   5  -9    5.42    1.80   1
   4  -5   9    4.15    2.15   1
   4  -5   9    3.21    2.94   1
   4  -5   9    4.69    2.18   1
   4  -5   9    2.80    2.85   1
  -5   5  -9    4.63    4.20   1
  -5   5  -9    1.02    2.89   1
   5  -5   9    3.19    3.73   1
   5  -5   9    1.29    2.57   1
   5  -5   9   -0.10    3.75   1
   5  -5   9    1.52    2.71   1
  -6   5  -9    1.19    4.73   1
  -6   5  -9    0.92    3.22   1
   6  -5   9   -0.95    4.14   1
   6  -5   9    3.15    4.62   1
   6  -5   9    0.33    2.90   1
   6  -5   9    1.88    3.10   1
  -7   5  -9    2.80    5.41   1
  -7   5  -9    3.42    2.59   1
   7  -5   9    9.63    3.89   1
   7  -5   9   10.79    3.98   1
   7  -5   9    7.69    3.71   1
   7  -5   9   10.67    3.86   1
   6   4  -9    9.43    4.17   1
  -6  -4   9   13.68    3.57   1
  -6  -4   9    9.25    2.32   1
  -6  -4   9    7.10    2.25   1
   5   4  -9    0.56    3.28   1
  -5  -4   9   -2.46    2.46   1
  -5  -4   9    0.76    1.82   1
  -5  -4   9    1.17    1.87   1
   4   4  -9   42.52    2.82   1
   4   4  -9   33.73    3.58   1
   4   4  -9   40.65    4.09   1
  -4  -4   9   30.77    2.35   1
  -4  -4   9   40.00    3.49   1
  -4  -4   9   36.76    2.51   1
   3   4  -9  106.42    5.31   1
   3   4  -9  113.03    5.33   1
  -3  -4   9  108.79    4.00   1
  -3  -4   9  110.46    5.09   1
  -3  -4   9  113.83    3.85   1
   2   4  -9  112.80    3.98   1
   2   4  -9  118.30    3.34   1
   2   4  -9  116.54    4.18   1
   2   4  -9  111.12    5.61   1
  -2  -4   9  117.09    3.90   1
  -2  -4   9  118.30    4.32   1
  -2  -4   9  121.22    4.43   1
   1   4  -9   21.00    2.06   1
   1   4  -9   20.61    2.38   1
   1   4  -9   15.95    1.94   1
   1   4  -9   24.55    1.63   1
  -1  -4   9   17.21    1.77   1
  -1  -4   9   19.52    1.84   1
  -1  -4   9   24.40    2.14   1
  -1  -4   9   22.77    1.87   1
  -1  -4   9   23.01    1.82   1
   0   4  -9  252.73   10.37   1
   0   4  -9  245.96   11.07   1
   0   4  -9  254.67    7.36   1
   0   4  -9  249.35   10.24   1
   0  -4   9  243.31   17.09   1
   0  -4   9  234.66    6.40   1
   0  -4   9  239.87    8.09   1
   0  -4   9  256.00    6.91   1
  -1   4  -9   16.57    1.30   1
  -1   4  -9   19.26    1.37   1
  -1   4  -9   18.84    2.19   1
  -1   4  -9   20.04    2.04   1
   1  -4   9   21.04    1.14   1
   1  -4   9   20.69    1.94   1
   1  -4   9   20.00    1.47   1
   1  -4   9   19.15    1.89   1
  -2   4  -9    0.77    0.67   1
  -2   4  -9    0.71    0.84   1
  -2   4  -9    0.45    1.67   1
  -2   4  -9    0.61    1.35   1
   2  -4   9    0.39    0.68   1
   2  -4   9   -0.90    1.54   1
   2  -4   9    1.06    1.58   1
   2  -4   9    1.22    1.51   1
   2  -4   9    1.38    1.51   1
  -3   4  -9   95.17    4.02   1
  -3   4  -9   96.98    7.50   1
   3  -4   9  104.83    3.58   1
   3  -4   9   98.46    3.48   1
   3  -4   9  102.35    3.82   1
   3  -4   9   96.28    3.72   1
  -4   4  -9    0.22    1.34   1
   4  -4   9   -0.50    2.20   1
   4  -4   9   -1.23    2.29   1
   4  -4   9    1.51    1.67   1
   4  -4   9    0.62    1.67   1
  -5   4  -9    2.56    3.70   1
  -5   4  -9    2.43    2.62   1
   5  -4   9    1.31    2.24   1
   5  -4   9    5.98    2.43   1
   5  -4   9    3.36    2.34   1
   5  -4   9    7.96    2.52   1
  -6   4  -9   28.63    4.41   1
  -6   4  -9   28.55    2.78   1
   6  -4   9   29.70    3.01   1
   6  -4   9   29.62    2.90   1
   6  -4   9   35.04    3.20   1
   6  -4   9   35.27    3.24   1
  -7   4  -9   60.85    6.69   1
  -7   4  -9   60.98    3.84   1
   7  -4   9   65.72    4.16   1
   7  -4   9   71.26    4.77   1
   7  -4   9   66.19    4.66   1
   7  -4   9   66.90    4.62   1
  -7  -3   9   35.21    4.57   1
   6   3  -9    4.14    3.60   1
  -6  -3   9    9.34    3.36   1
  -6  -3   9    5.47    2.33   1
  -6  -3   9    5.96    2.33   1
   5   3  -9    8.60    3.52   1
   5   3  -9   10.49    2.03   1
   5   3  -9   15.77    4.25   1
  -5  -3   9    8.88    2.91   1
   4   3  -9   42.29    2.30   1
   4   3  -9   34.99    3.43   1
   4   3  -9   40.94    2.44   1
  -4  -3   9   39.93    2.89   1
  -4  -3   9   40.52    2.84   1
  -4  -3   9   44.33    3.54   1
   3   3  -9   24.54    1.27   1
   3   3  -9   16.72    3.21   1
   3   3  -9   21.85    1.72   1
   3   3  -9   22.33    2.73   1
  -3  -3   9   16.47    2.18   1
  -3  -3   9   17.04    2.23   1
  -3  -3   9   17.88    2.64   1
   2   3  -9   71.22    2.48   1
   2   3  -9   73.71    3.47   1
   2   3  -9   68.28    3.40   1
   2   3  -9   75.30    3.49   1
   2   3  -9   68.26    2.67   1
  -2  -3   9   75.79    3.29   1
  -2  -3   9   64.15    2.65   1
  -2  -3   9   70.29    2.73   1
   1   3  -9   27.60    1.63   1
   1   3  -9   21.83    1.96   1
   1   3  -9   28.30    1.73   1
   1   3  -9   27.04    2.08   1
   1   3  -9   22.51    2.29   1
   1   3  -9   20.46    2.24   1
  -1  -3   9   24.15    2.05   1
  -1  -3   9   25.94    1.87   1
  -1  -3   9   28.20    1.98   1
  -1  -3   9   23.24    1.75   1
  -1  -3   9   26.59    1.91   1
   0   3  -9   83.74    3.81   1
   0   3  -9   89.01    4.25   1
   0   3  -9   91.47    4.06   1
   0   3  -9   93.52    3.40   1
   0   3  -9   92.46    4.17   1
   0  -3   9   90.98    2.99   1
   0  -3   9   88.73    3.27   1
   0  -3   9   88.29    2.97   1
   0  -3   9   86.62    5.45   1
  -1   3  -9   -0.23    0.59   1
  -1   3  -9    0.39    0.93   1
  -1   3  -9   -0.19    0.55   1
  -1   3  -9    1.73    1.56   1
  -1   3  -9    0.00    0.94   1
   1  -3   9   -0.21    0.98   1
   1  -3   9    0.03    0.99   1
   1  -3   9    0.55    0.55   1
   1  -3   9    0.16    0.46   1
  -2   3  -9   81.50    3.42   1
  -2   3  -9   86.44    3.79   1
  -2   3  -9   76.63    3.15   1
  -2   3  -9   83.69    3.72   1
   2  -3   9   82.21    2.89   1
   2  -3   9   80.05    2.85   1
   2  -3   9   74.43    2.80   1
   2  -3   9   79.29    2.91   1
   2  -3   9   77.17    2.93   1
  -3   3  -9    7.68    1.00   1
  -3   3  -9    8.25    2.05   1
  -3   3  -9    5.58    0.94   1
   3  -3   9    8.59    1.62   1
   3  -3   9    8.34    1.65   1
   3  -3   9    8.22    1.62   1
   3  -3   9    9.76    1.71   1
  -4   3  -9  138.18    6.43   1
  -4   3  -9  126.73    5.38   1
   4  -3   9  128.88    4.22   1
   4  -3   9  132.56    4.42   1
   4  -3   9  123.15    4.09   1
   4  -3   9  127.29    3.99   1
  -5   3  -9    1.26    1.55   1
   5  -3   9   -0.17    1.41   1
   5  -3   9   -0.85    2.16   1
   5  -3   9   -2.13    2.13   1
   5  -3   9    1.79    1.56   1
  -6   3  -9   18.79    2.55   1
  -6   3  -9   13.06    3.86   1
   6  -3   9   24.41    3.29   1
   6  -3   9   18.26    3.03   1
   6  -3   9   24.20    3.25   1
   6  -3   9   17.84    3.08   1
  -7   3  -9    5.89    5.33   1
  -7   3  -9    1.76    2.93   1
   7  -3   9    7.51    3.25   1
   7  -3   9    9.10    3.22   1
   7   2  -9   18.02    5.45   1
  -7  -2   9   15.74    5.02   1
   6   2  -9    3.03    3.45   1
  -6  -2   9   -0.42    2.65   1
   5   2  -9    6.48    1.13   1
   5   2  -9    5.56    1.38   1
   5   2  -9    5.29    3.18   1
  -5  -2   9    3.79    3.66   1
   4   2  -9    4.03    2.64   1
   4   2  -9    5.85    1.13   1
   4   2  -9    7.08    1.23   1
   4   2  -9    4.09    2.74   1
   4   2  -9    7.61    1.32   1
  -4  -2   9    5.85    2.48   1
  -4  -2   9    3.77    1.10   1
   3   2  -9   27.63    3.02   1
   3   2  -9   27.54    1.35   1
   3   2  -9   31.94    1.42   1
   3   2  -9   33.47    2.82   1
   3   2  -9   34.01    1.58   1
  -3  -2   9   32.54    2.54   1
  -3  -2   9   29.33    1.49   1
   2   2  -9   25.30    1.37   1
   2   2  -9   26.80    2.64   1
   2   2  -9   27.44    1.27   1
   2   2  -9   21.58    2.13   1
   2   2  -9   28.76    2.18   1
   2   2  -9   23.58    2.15   1
  -2  -2   9   24.77    1.99   1
  -2  -2   9   25.07    1.99   1
  -2  -2   9   25.65    2.04   1
   1   2  -9  177.43    6.13   1
   1   2  -9  186.85    5.19   1
   1   2  -9  174.86    7.91   1
   1   2  -9  181.64    7.53   1
   1   2  -9  181.39    6.99   1
  -1  -2   9  166.19   12.55   1
  -1  -2   9  176.77   12.91   1
  -1  -2   9  183.75    5.98   1
  -1  -2   9  178.95    4.22   1
  -1  -2   9  183.80    4.39   1
   0   2  -9 1096.24   43.59   1
   0   2  -9 1102.94   34.43   1
   0   2  -9 1065.50   25.96   1
   0   2  -9 1098.22   34.22   1
   0   2  -9 1068.59   31.09   1
   0   2  -9 1075.64   34.26   1
   0  -2   9 1023.29   33.57   1
   0  -2   9 1034.99   27.59   1
   0  -2   9 1009.10   38.11   1
   0  -2   9 1065.38   27.33   1
   0  -2   9 1007.04   57.25   1
  -1   2  -9    6.98    1.34   1
  -1   2  -9    6.84    1.29   1
  -1   2  -9    7.91    1.01   1
  -1   2  -9    7.06    1.62   1
  -1   2  -9    8.07    0.95   1
  -1   2  -9    7.15    1.29   1
  -1   2  -9    8.35    1.62   1
   1  -2   9    7.78    1.29   1
   1  -2   9    7.45    1.07   1
   1  -2   9    8.99    0.75   1
   1  -2   9    7.79    1.26   1
  -2   2  -9  122.64    6.00   1
  -2   2  -9  121.30    5.94   1
  -2   2  -9  128.75    4.72   1
  -2   2  -9  135.64    5.36   1
  -2   2  -9  130.73    5.96   1
   2  -2   9  124.79    3.16   1
   2  -2   9  124.91    3.42   1
   2  -2   9  126.86    3.25   1
   2  -2   9  128.39    3.38   1
  -3   2  -9  141.69    7.07   1
  -3   2  -9  140.96   10.51   1
   3  -2   9  151.08    4.24   1
   3  -2   9  137.55    5.96   1
   3  -2   9  147.26    3.97   1
   3  -2   9  139.15    5.42   1
  -4   2  -9    3.43    2.04   1
  -4   2  -9    0.65    1.98   1
  -4   2  -9    4.73    1.83   1
   4  -2   9    8.23    2.29   1
   4  -2   9    6.28    2.23   1
   4  -2   9    5.54    2.13   1
   4  -2   9    5.29    2.13   1
  -5   2  -9    1.79    2.11   1
   5  -2   9    1.79    2.46   1
   5  -2   9    2.56    1.86   1
   5  -2   9    1.22    1.89   1
   5  -2   9    1.47    2.49   1
  -6   2  -9   13.98    2.57   1
   6  -2   9   21.28    2.50   1
   6  -2   9   16.69    2.32   1
   6  -2   9   19.43    2.35   1
   6  -2   9   15.78    2.20   1
  -7   2  -9    0.82    3.16   1
  -7   2  -9    3.92    5.07   1
   7   1  -9   31.69    4.39   1
  -7  -1   9   26.46    4.15   1
   6   1  -9   11.13    3.33   1
  -6  -1   9   13.11    3.20   1
   5   1  -9    8.28    3.01   1
   5   1  -9    9.84    2.05   1
   5   1  -9    8.94    4.00   1
  -5  -1   9    8.19    2.86   1
  -5  -1   9    7.46    1.78   1
   4   1  -9  198.63    8.80   1
   4   1  -9  203.37    9.87   1
   4   1  -9  195.74    6.49   1
  -4  -1   9  212.51    6.49   1
  -4  -1   9  199.03    9.56   1
   3   1  -9    1.65    0.95   1
   3   1  -9   -0.33    1.74   1
   3   1  -9    2.56    2.62   1
  -3  -1   9   -0.70    1.49   1
  -3  -1   9    1.22    1.31   1
   2   1  -9    6.34    1.61   1
   2   1  -9    7.44    0.66   1
   2   1  -9   15.85    3.07   1
   2   1  -9    7.46    1.98   1
   2   1  -9    8.46    1.46   1
   2   1  -9    8.15    0.69   1
   2   1  -9    8.20    0.60   1
  -2  -1   9    6.20    1.49   1
  -2  -1   9    6.89    4.27   1
  -2  -1   9    6.51    1.43   1
  -2  -1   9    5.50    1.15   1
   1   1  -9  138.17    7.37   1
   1   1  -9  139.04    4.28   1
   1   1  -9  134.87    3.36   1
   1   1  -9  132.42    3.90   1
   1   1  -9  142.63    6.43   1
   1   1  -9  140.28    6.60   1
  -1  -1   9  138.17    3.96   1
  -1  -1   9  130.80    3.68   1
  -1  -1   9  132.15    7.09   1
  -1  -1   9  147.31    9.70   1
  -1  -1   9  142.07    3.66   1
  -1  -1   9  137.69    4.47   1
   0   1  -9   58.70    3.35   1
   0   1  -9   59.41    2.42   1
   0   1  -9   59.82    3.35   1
   0   1  -9   55.62    2.08   1
   0   1  -9   58.78    2.75   1
   0  -1   9   59.77    1.93   1
   0  -1   9   57.95    2.16   1
   0  -1   9   54.53    2.85   1
   0  -1   9   60.76    2.19   1
   0  -1   9   57.45    3.72   1
  -1   1  -9    6.18    1.68   1
  -1   1  -9    3.39    1.55   1
  -1   1  -9    4.53    1.68   1
  -1   1  -9    2.60    1.11   1
  -1   1  -9    4.84    1.65   1
  -1   1  -9    2.56    1.14   1
  -1   1  -9    3.96    0.98   1
   1  -1   9    5.16    1.74   1
   1  -1   9    4.24    1.07   1
   1  -1   9    4.40    1.05   1
   1  -1   9    2.18    1.27   1
   1  -1   9    5.10    0.38   1
  -2   1  -9  107.79    5.93   1
  -2   1  -9  104.30    4.44   1
  -2   1  -9  101.15    6.10   1
  -2   1  -9  113.72    6.53   1
   2  -1   9  108.30    2.80   1
   2  -1   9  105.69    2.85   1
   2  -1   9  103.60    3.74   1
  -3   1  -9  214.32   12.54   1
  -3   1  -9  217.71   11.32   1
  -3   1  -9  220.67   10.67   1
   3  -1   9  195.02    3.91   1
   3  -1   9  198.08    4.00   1
   3  -1   9  192.76    4.03   1
   3  -1   9  204.28    8.43   1
   3  -1   9  203.44    4.03   1
  -4   1  -9   21.25    1.87   1
  -4   1  -9   20.18    1.77   1
  -4   1  -9   22.02    2.19   1
   4  -1   9   28.74    2.14   1
   4  -1   9   23.68    1.98   1
   4  -1   9   20.95    2.52   1
   4  -1   9   26.90    2.01   1
   4  -1   9   25.38    1.94   1
  -5   1  -9    1.11    2.20   1
   5  -1   9    2.43    2.36   1
   5  -1   9   -1.05    3.48   1
   5  -1   9    6.05    2.43   1
   5  -1   9   -1.38    2.17   1
   5  -1   9    2.36    2.26   1
  -6   1  -9    6.43    3.43   1
   6  -1   9   16.95    2.66   1
   6  -1   9   12.75    3.96   1
   6  -1   9   15.53    2.55   1
  -7   1  -9    9.07    4.17   1
   7  -1   9   14.24    3.64   1
  -8   0   9   11.79    4.63   1
   7   0  -9   30.59    4.93   1
  -7   0   9   34.42    4.27   1
   6   0  -9   25.95    3.48   1
   6   0  -9   19.82    3.17   1
  -6   0   9   16.35    2.32   1
  -6   0   9   20.51    3.19   1
   5   0  -9   13.43    2.71   1
   5   0  -9   13.06    2.61   1
  -5   0   9   10.25    1.99   1
   4   0  -9  845.75   20.32   1
   4   0  -9  851.21   19.65   1
   4   0  -9  809.96   34.52   1
  -4   0   9  815.64   63.91   1
  -4   0   9  875.64   36.26   1
  -4   0   9  824.75   25.01   1
   3   0  -9    5.50    1.67   1
   3   0  -9    6.51    1.46   1
   3   0  -9    5.33    1.76   1
   3   0  -9    4.60    1.67   1
  -3   0   9    5.71    2.20   1
  -3   0   9    5.27    1.46   1
  -3   0   9    3.10    1.70   1
   2   0  -9  205.75    5.93   1
   2   0  -9  218.46    8.96   1
   2   0  -9  225.06    7.13   1
   2   0  -9  217.50    6.49   1
  -2   0   9  217.61   28.26   1
  -2   0   9  222.70   13.23   1
  -2   0   9  239.10    5.60   1
  -2   0   9  232.35    7.64   1
   1   0  -9   26.30    1.74   1
   1   0  -9   28.46    1.40   1
   1   0  -9   27.70    1.59   1
   1   0  -9   27.71    2.08   1
   1   0  -9   30.05    1.42   1
  -1   0   9   27.66    1.86   1
  -1   0   9   26.07    1.89   1
  -1   0   9   27.62    1.62   1
  -1   0   9   26.79    2.06   1
  -1   0   9   29.49    1.77   1
   0   0  -9    0.11    1.04   1
   0   0  -9    0.67    0.72   1
   0   0  -9    0.13    1.04   1
   0   0  -9   -0.13    0.71   1
   0   0  -9   -0.03    1.08   1
   0   0   9   -0.36    0.93   1
   0   0   9    0.80    0.80   1
   0   0   9    0.52    1.10   1
   0   0   9    0.67    0.93   1
   0   0   9    0.11    0.62   1
   0   0   9    0.96    1.04   1
   0   0   9   -0.15    0.91   1
  -1   0  -9   37.15    2.41   1
  -1   0  -9   33.29    2.68   1
  -1   0  -9   41.62    2.03   1
  -1   0  -9   35.79    1.85   1
  -1   0  -9   35.14    2.73   1
   1   0   9   38.67    1.65   1
   1   0   9   37.33    2.32   1
   1   0   9   35.73    2.08   1
   1   0   9   37.01    1.72   1
   1   0   9   38.26    1.54   1
   1   0   9   38.90    1.61   1
  -2   0  -9    1.79    1.19   1
  -2   0  -9    1.35    1.39   1
   2   0   9    1.88    1.69   1
   2   0   9    2.91    1.09   1
   2   0   9    2.85    1.12   1
  -3   0  -9    0.43    1.19   1
  -3   0  -9    0.67    1.25   1
  -3   0  -9    1.80    1.62   1
   3   0   9   -0.09    1.16   1
   3   0   9    0.31    0.80   1
   3   0   9    1.68    0.92   1
   3   0   9    1.50    1.17   1
   3   0   9    0.86    2.75   1
  -4   0  -9   26.82    2.48   1
  -4   0  -9   22.72    1.49   1
   4   0   9   26.61    1.58   1
   4   0   9   24.84    1.51   1
   4   0   9   26.47    1.79   1
   4   0   9   19.39    3.23   1
   4   0   9   26.35    1.79   1
  -5   0  -9   -0.56    2.26   1
   5   0   9    1.15    2.79   1
   5   0   9    2.40    1.97   1
   5   0   9    1.67    1.87   1
  -6   0  -9    8.05    2.76   1
   6   0   9   12.76    4.16   1
  -7   0  -9    6.55    4.84   1
   7   0   9    5.53    3.80   1
   8  -1  -9   13.41    6.81   1
  -8   1   9    4.07    6.34   1
   7  -1  -9   -1.24    3.47   1
   7  -1  -9    0.28    3.77   1
  -7   1   9   -1.36    2.56   1
  -7   1   9    0.61    3.68   1
   6  -1  -9   47.93    3.89   1
   6  -1  -9   38.16    3.58   1
  -6   1   9   39.87    3.04   1
  -6   1   9   44.74    3.89   1
   5  -1  -9   78.12    4.21   1
   5  -1  -9   74.76    4.04   1
  -5   1   9   80.46    3.74   1
  -5   1   9   85.74    5.10   1
   4  -1  -9    3.14    2.05   1
   4  -1  -9    4.49    2.18   1
  -4   1   9    3.68    2.40   1
  -4   1   9    5.83    2.27   1
  -4   1   9    2.97    1.09   1
   3  -1  -9   56.95    2.82   1
   3  -1  -9   64.94    2.28   1
   3  -1  -9   63.02    3.43   1
  -3   1   9   52.84    3.15   1
  -3   1   9   61.39    3.00   1
   2  -1  -9   82.50    4.29   1
   2  -1  -9   86.32    2.99   1
   2  -1  -9   81.77    4.16   1
   2  -1  -9   84.99    3.50   1
   2  -1  -9   86.88    2.99   1
  -2   1   9   87.41    5.15   1
  -2   1   9   87.51    3.35   1
  -2   1   9   86.36    2.80   1
  -2   1   9   85.27    3.63   1
   1  -1  -9   98.38    3.68   1
   1  -1  -9   97.99    4.79   1
   1  -1  -9  104.49    3.81   1
   1  -1  -9  102.53    2.87   1
  -1   1   9   94.64    3.38   1
  -1   1   9   96.52    4.92   1
  -1   1   9   95.96    4.97   1
  -1   1   9   99.06    4.35   1
  -1   1   9  106.93    3.53   1
   0  -1  -9  228.63    8.62   1
   0  -1  -9  251.49    7.77   1
   0  -1  -9  244.10    9.06   1
   0  -1  -9  233.44    7.35   1
   0  -1  -9  251.13    7.39   1
   0   1   9  243.39    7.16   1
   0   1   9  249.73    6.41   1
   0   1   9  242.04   14.06   1
   0   1   9  251.75   10.91   1
   0   1   9  241.44    7.33   1
  -1  -1  -9    5.44    1.41   1
  -1  -1  -9    5.60    1.35   1
  -1  -1  -9    7.74    1.81   1
  -1  -1  -9    5.11    1.62   1
   1   1   9    5.05    0.98   1
   1   1   9    5.63    0.70   1
   1   1   9    7.16    1.04   1
   1   1   9    3.64    1.59   1
   1   1   9    5.17    1.68   1
   1   1   9    5.20    1.65   1
   1   1   9    1.41    1.96   1
  -2  -1  -9  190.69    7.81   1
  -2  -1  -9  191.14    7.75   1
   2   1   9  184.42    6.68   1
   2   1   9  184.92    7.36   1
   2   1   9  183.83    7.79   1
   2   1   9  186.06    6.72   1
   2   1   9  182.96   10.57   1
   2   1   9  183.90    8.04   1
   2   1   9  179.38   10.32   1
  -3  -1  -9  172.55    8.04   1
  -3  -1  -9  170.65    8.86   1
   3   1   9  168.64    5.86   1
   3   1   9  175.07    7.40   1
   3   1   9  173.63    4.62   1
   3   1   9  179.11    8.47   1
   3   1   9  173.95    5.93   1
   3   1   9  171.34    4.38   1
   3   1   9  168.88    5.26   1
  -4  -1  -9   13.63    3.19   1
  -4  -1  -9    8.91    1.13   1
   4   1   9    8.58    2.61   1
   4   1   9    5.94    3.38   1
   4   1   9   10.04    1.10   1
  -5  -1  -9   54.43    4.06   1
   5   1   9   48.95    4.61   1
  -6  -1  -9    2.26    3.27   1
   6   1   9    4.16    4.65   1
   8  -2  -9   59.45    5.32   1
   8  -2  -9   67.23    6.01   1
  -8   2   9   52.12    5.28   1
   7  -2  -9   21.06    4.60   1
   7  -2  -9   21.78    4.70   1
  -7   2   9   12.71    4.40   1
  -7   2   9   14.56    3.61   1
   6  -2  -9   11.09    3.47   1
   6  -2  -9   13.41    2.85   1
  -6   2   9    9.62    2.40   1
  -6   2   9   13.93    3.12   1
   5  -2  -9   45.43    3.60   1
   5  -2  -9   40.30    3.11   1
  -5   2   9   40.41    2.98   1
   4  -2  -9  128.98    4.67   1
   4  -2  -9  136.68    4.93   1
  -4   2   9  130.23    6.18   1
  -4   2   9  127.87    6.26   1
  -4   2   9  135.14    4.59   1
  -4   2   9  133.86    7.09   1
   3  -2  -9   88.47    2.40   1
   3  -2  -9   92.77    3.45   1
   3  -2  -9   93.93    4.01   1
  -3   2   9   92.71    5.52   1
  -3   2   9  100.03    3.79   1
  -3   2   9   95.12    4.64   1
  -3   2   9   93.24    3.27   1
   2  -2  -9  177.56    4.71   1
   2  -2  -9  181.69    6.27   1
   2  -2  -9  171.43    6.77   1
  -2   2   9  180.49   17.47   1
  -2   2   9  192.05    6.49   1
  -2   2   9  169.13   15.20   1
  -2   2   9  179.37    8.99   1
  -2   2   9  189.84    5.87   1
  -2   2   9  188.36    8.42   1
   1  -2  -9  102.47    3.76   1
   1  -2  -9  104.06    4.06   1
   1  -2  -9   96.83    3.23   1
  -1   2   9  108.78    3.02   1
  -1   2   9  107.80    4.26   1
  -1   2   9   98.18    2.92   1
  -1   2   9  106.90    3.40   1
  -1   2   9  106.00    3.74   1
  -1   2   9  104.72    3.59   1
  -1   2   9  110.53    4.64   1
   0  -2  -9  219.49    8.96   1
   0  -2  -9  215.26    7.27   1
   0  -2  -9  208.16    7.91   1
   0   2   9  216.34    5.11   1
   0   2   9  223.72    6.45   1
   0   2   9  233.98    6.40   1
   0   2   9  228.24   12.75   1
   0   2   9  222.90    8.90   1
  -1  -2  -9    9.82    1.93   1
  -1  -2  -9    7.07    1.41   1
   1   2   9    9.30    0.76   1
   1   2   9   10.28    2.35   1
   1   2   9    8.83    2.07   1
   1   2   9   10.56    1.16   1
   1   2   9    7.78    2.07   1
   1   2   9   10.98    0.82   1
  -2  -2  -9    3.89    2.43   1
  -2  -2  -9    0.98    0.88   1
   2   2   9    3.24    0.54   1
   2   2   9    2.26    0.47   1
   2   2   9    1.49    2.33   1
   2   2   9    3.68    0.54   1
   2   2   9    3.86    1.59   1
   2   2   9    3.65    0.54   1
   2   2   9    2.40    0.47   1
   2   2   9    1.22    2.34   1
   2   2   9    3.45    0.54   1
  -3  -2  -9  144.35    4.45   1
  -3  -2  -9  139.39    6.04   1
   3   2   9  158.91    7.89   1
   3   2   9  137.20    8.34   1
   3   2   9  137.83    6.99   1
  -4  -2  -9    3.66    3.50   1
   4   2   9    3.11    4.09   1
   4   2   9    3.43    3.08   1
  -5  -2  -9   14.62    3.68   1
   5   2   9   17.79    3.51   1
   5   2   9   17.17    3.44   1
  -6  -2  -9   49.88    4.52   1
   6   2   9   39.66    4.56   1
   8  -3  -9    0.90    3.82   1
   8  -3  -9   -2.70    5.86   1
  -8   3   9    6.57    7.71   1
  -8   3   9    2.62    4.81   1
   7  -3  -9   18.39    4.59   1
   7  -3  -9   10.15    4.32   1
  -7   3   9    6.70    3.42   1
  -7   3   9    9.01    3.18   1
   6  -3  -9    0.46    2.33   1
   6  -3  -9    0.05    2.30   1
  -6   3   9   -0.08    3.32   1
   5  -3  -9    3.58    2.41   1
   5  -3  -9    2.83    2.29   1
  -5   3   9    0.35    2.57   1
   4  -3  -9   61.74    3.38   1
   4  -3  -9   57.09    3.22   1
  -4   3   9   59.58    3.03   1
  -4   3   9   47.56    3.53   1
   3  -3  -9   34.83    2.47   1
   3  -3  -9   37.90    1.42   1
  -3   3   9   36.79    2.18   1
  -3   3   9   42.03    2.85   1
  -3   3   9   38.04    1.45   1
   2  -3  -9  107.10    3.45   1
   2  -3  -9  103.37    4.82   1
   2  -3  -9   99.28    6.46   1
  -2   3   9  110.75    3.85   1
  -2   3   9  118.41    5.35   1
  -2   3   9  106.18    4.93   1
  -2   3   9  115.19    4.05   1
   1  -3  -9  132.10    4.30   1
   1  -3  -9  128.60    3.89   1
   1  -3  -9  130.26    7.12   1
  -1   3   9  140.44    5.66   1
  -1   3   9  147.74    5.93   1
  -1   3   9  148.04    4.62   1
  -1   3   9  133.69    7.29   1
  -1   3   9  130.88    4.66   1
  -1   3   9  148.65    6.37   1
   0  -3  -9   14.52    1.63   1
   0  -3  -9   13.55    1.66   1
   0   3   9    8.90    2.47   1
   0   3   9   13.90    1.46   1
   0   3   9   18.99    1.46   1
   0   3   9   12.19    2.35   1
   0   3   9   11.18    2.00   1
   0   3   9   15.76    1.36   1
  -1  -3  -9   30.25    2.23   1
  -1  -3  -9   24.26    1.81   1
  -1  -3  -9   28.19    2.05   1
   1   3   9   32.42    1.45   1
   1   3   9   32.46    1.24   1
   1   3   9   30.19    1.65   1
   1   3   9   29.68    1.15   1
   1   3   9   31.26    1.15   1
   1   3   9   25.94    1.93   1
   1   3   9   27.53    3.26   1
   1   3   9   31.62    1.26   1
   1   3   9   27.81    3.22   1
   1   3   9   26.01    2.34   1
  -2  -3  -9   63.47    4.40   1
  -2  -3  -9   66.26    3.38   1
   2   3   9   66.35    3.47   1
   2   3   9   67.74    4.10   1
   2   3   9   67.94    4.19   1
   2   3   9   65.24    3.34   1
  -3  -3  -9    0.70    1.06   1
  -3  -3  -9    0.61    2.63   1
   3   3   9    0.18    2.25   1
   3   3   9   -0.22    2.36   1
  -4  -3  -9   54.66    3.80   1
   4   3   9   45.01    4.82   1
   4   3   9   49.78    4.39   1
  -5  -3  -9   26.89    4.40   1
   5   3   9   24.94    4.21   1
   5   3   9   24.56    4.16   1
   7  -4  -9   20.37    3.35   1
   7  -4  -9   28.37    4.46   1
  -7   4   9   17.57    3.55   1
   6  -4  -9   12.23    2.83   1
   6  -4  -9    8.67    2.66   1
  -6   4   9   14.21    3.43   1
   5  -4  -9   -0.57    1.59   1
   5  -4  -9   -0.95    2.34   1
  -5   4   9    0.77    2.37   1
   4  -4  -9    8.89    1.91   1
   4  -4  -9   13.55    2.17   1
  -4   4   9    8.87    2.04   1
  -4   4   9   10.73    3.31   1
   3  -4  -9   23.09    2.08   1
  -3   4   9   25.38    2.73   1
  -3   4   9   19.88    2.36   1
   2  -4  -9    2.26    0.75   1
   2  -4  -9    1.38    1.54   1
  -2   4   9    0.69    2.00   1
  -2   4   9    0.13    1.86   1
  -2   4   9    2.42    2.36   1
   1  -4  -9  157.02    5.92   1
   1  -4  -9  157.57    5.58   1
  -1   4   9  172.52    7.01   1
  -1   4   9  162.92    5.84   1
  -1   4   9  164.32    7.38   1
  -1   4   9  169.16    6.72   1
  -1   4   9  160.34    5.34   1
  -1   4   9  168.82    8.11   1
  -1   4   9  155.44    8.00   1
   0  -4  -9    6.31    1.44   1
   0  -4  -9    2.46    1.72   1
   0   4   9    4.89    1.41   1
   0   4   9    6.04    1.44   1
   0   4   9    3.30    1.41   1
   0   4   9    2.81    3.52   1
   0   4   9    2.50    3.52   1
   0   4   9    1.73    2.04   1
   0   4   9    5.89    1.50   1
  -1  -4  -9   -0.36    1.20   1
  -1  -4  -9    0.95    1.38   1
  -1  -4  -9    1.00    2.17   1
   1   4   9    1.59    0.34   1
   1   4   9    1.39    0.48   1
   1   4   9    3.06    3.43   1
   1   4   9    2.23    3.34   1
   1   4   9    1.84    0.59   1
   1   4   9    2.00    0.56   1
   1   4   9    1.80    0.31   1
   1   4   9    0.42    1.66   1
  -2  -4  -9    1.88    1.48   1
  -2  -4  -9    2.61    2.03   1
   2   4   9    2.40    2.03   1
   2   4   9   -0.43    3.98   1
   2   4   9    1.88    2.99   1
  -3  -4  -9   51.74    2.97   1
  -3  -4  -9   55.71    3.68   1
   3   4   9   52.79    4.57   1
   3   4   9   52.54    4.50   1
  -4  -4  -9   11.40    3.89   1
   4   4   9   12.63    3.83   1
   4   4   9    6.80    4.63   1
  -5  -4  -9    9.57    3.56   1
   5   4   9    9.35    4.54   1
   5   4   9   12.14    4.67   1
   7  -5  -9   15.90    3.49   1
   7  -5  -9   22.21    3.67   1
  -7   5   9   12.70    4.04   1
   6  -5  -9    6.11    2.96   1
   6  -5  -9    5.78    2.87   1
  -6   5   9    2.62    3.61   1
   5  -5  -9   27.70    2.79   1
   5  -5  -9   28.85    3.31   1
  -5   5   9   24.46    4.37   1
   4  -5  -9   74.68    3.45   1
   4  -5  -9   66.51    3.39   1
  -4   5   9   64.85    4.13   1
  -4   5   9   60.96    3.69   1
   3  -5  -9   46.35    2.95   1
  -3   5   9   31.35    3.26   1
  -3   5   9   43.05    3.97   1
   2  -5  -9  461.80   21.02   1
   2  -5  -9  451.33   15.32   1
  -2   5   9  477.50   28.40   1
  -2   5   9  488.79   18.62   1
  -2   5   9  479.82   35.89   1
   1  -5  -9    5.64    1.54   1
   1  -5  -9    3.66    2.02   1
  -1   5   9   -0.57    3.73   1
  -1   5   9   11.01    4.11   1
  -1   5   9    2.02    3.80   1
   0  -5  -9   86.23    6.60   1
   0  -5  -9   87.19    5.08   1
   0  -5  -9   91.37    3.67   1
   0   5   9   89.53    5.01   1
   0   5   9   78.20    5.80   1
   0   5   9   75.22    5.95   1
  -1  -5  -9   10.08    2.37   1
  -1  -5  -9    6.92    2.21   1
  -1  -5  -9    4.70    2.30   1
   1   5   9    3.94    4.49   1
   1   5   9    3.04    3.33   1
   1   5   9    6.65    3.36   1
  -2  -5  -9    0.00    1.75   1
  -2  -5  -9   -0.56    1.46   1
   2   5   9    0.12    1.66   1
   2   5   9   -0.83    2.80   1
   2   5   9    0.12    2.77   1
  -3  -5  -9    1.85    2.09   1
  -3  -5  -9    4.65    2.89   1
   3   5   9    7.48    4.26   1
   3   5   9    6.55    4.14   1
   4   5   9   16.61    6.94   1
   4   5   9   12.47    6.63   1
   6  -6  -9   -0.42    2.15   1
   6  -6  -9   -0.73    2.01   1
  -6   6   9   -0.08    3.47   1
   5  -6  -9   -0.56    2.10   1
   5  -6  -9    0.44    2.84   1
  -5   6   9    2.76    3.60   1
   4  -6  -9    0.79    1.68   1
   4  -6  -9    1.82    1.85   1
  -4   6   9    7.61    3.69   1
  -4   6   9    1.68    3.01   1
   3  -6  -9   -0.44    2.07   1
  -3   6   9   -1.02    2.27   1
  -3   6   9   -1.05    3.49   1
   2  -6  -9   18.31    2.71   1
  -2   6   9   11.64    3.81   1
  -2   6   9   20.89    3.84   1
  -2   6   9    9.57    3.67   1
   1  -6  -9   69.68    4.42   1
  -1   6   9   54.90    4.60   1
  -1   6   9   54.57    4.14   1
  -1   6   9   62.53    3.98   1
   0  -6  -9    2.86    1.72   1
   0  -6  -9    0.55    2.15   1
   0   6   9    0.70    2.73   1
   0   6   9   -0.40    3.50   1
   0   6   9    1.69    3.41   1
  -1  -6  -9   71.07    4.27   1
  -1  -6  -9   63.61    4.07   1
  -1  -6  -9   64.62    4.29   1
   1   6   9   61.56    5.35   1
   1   6   9   48.37    5.46   1
   1   6   9   69.47    4.14   1
  -2  -6  -9   40.25    3.99   1
  -2  -6  -9   26.82    3.01   1
   2   6   9   25.27    5.45   1
   2   6   9   33.64    5.82   1
   2   6   9   35.84    3.31   1
  -3  -6  -9    0.84    3.37   1
   3   6   9    1.21    5.28   1
   3   6   9   -1.05    4.61   1
   5  -7  -9   10.61    3.34   1
   5  -7  -9   17.36    3.64   1
  -5   7   9   13.43    5.58   1
   4  -7  -9    1.10    2.57   1
  -4   7   9   -0.81    4.98   1
  -4   7   9    2.86    4.13   1
   3  -7  -9   18.83    2.56   1
  -3   7   9   14.46    4.30   1
  -3   7   9   13.31    4.59   1
   2  -7  -9    6.39    3.47   1
  -2   7   9    1.31    4.04   1
  -2   7   9   -2.00    3.97   1
  -2   7   9    1.18    4.79   1
   1  -7  -9   41.04    3.69   1
  -1   7   9   25.64    4.95   1
  -1   7   9   38.15    3.88   1
   0  -7  -9   11.92    2.84   1
   0  -7  -9    9.06    2.92   1
   0   7   9    7.97    4.01   1
   0   7   9    6.03    4.14   1
   0   7   9   13.52    3.30   1
  -1  -7  -9    0.61    2.58   1
  -1  -7  -9    1.18    3.80   1
   1   7   9   -1.31    5.90   1
   1   7   9   -0.96    3.63   1
   1   7   9    0.56    3.98   1
   1   8 -10    0.60    2.88   1
  -1  -8  10    0.08    2.40   1
  -1  -8  10   -2.16    2.38   1
  -1  -8  10    0.72    2.23   1
  -1  -8  10    0.18    2.10   1
  -1  -8  10   -1.64    1.96   1
   0   8 -10    4.12    3.66   1
   0  -8  10    1.83    3.07   1
   0  -8  10    2.87    3.30   1
   0  -8  10    6.27    3.33   1
   0  -8  10    7.12    3.14   1
   0  -8  10    1.44    2.91   1
  -1   8 -10   18.32    3.81   1
   1  -8  10   18.19    2.74   1
   1  -8  10   12.43    2.90   1
   1  -8  10   11.71    3.01   1
   1  -8  10   10.94    2.82   1
   1  -8  10    9.66    2.77   1
  -2   8 -10    2.07    3.66   1
  -2   8 -10    3.70    5.31   1
  -2   8 -10    1.75    3.73   1
   2  -8  10    0.97    5.20   1
   2  -8  10   -0.03    5.20   1
   2  -8  10    2.27    3.05   1
   2  -8  10    5.98    6.73   1
   2  -8  10    4.37    6.44   1
  -3   8 -10   95.31    6.43   1
  -3   8 -10   86.39    5.55   1
  -3   8 -10   89.96    5.98   1
   3  -8  10   83.90    5.57   1
   3  -8  10   77.09    4.46   1
   3  -8  10   86.33    5.49   1
   3  -8  10   84.19    6.69   1
   3  -8  10   81.99    7.27   1
  -4   8 -10   78.33    8.07   1
   4  -8  10   83.33    5.23   1
   4  -8  10   86.92    6.90   1
   4  -8  10   84.40    5.14   1
   4  -8  10   86.66    6.51   1
   3   7 -10    1.82    2.90   1
  -3  -7  10    2.20    3.40   1
  -3  -7  10   -0.37    3.48   1
  -3  -7  10    1.29    3.97   1
   2   7 -10    9.45    3.17   1
  -2  -7  10    5.31    2.49   1
  -2  -7  10    5.05    2.82   1
  -2  -7  10    3.97    2.42   1
   1   7 -10   52.98    3.88   1
  -1  -7  10   54.19    3.37   1
  -1  -7  10   53.46    3.42   1
  -1  -7  10   56.14    3.42   1
  -1  -7  10   45.08    3.26   1
  -1  -7  10   57.72    4.25   1
   0   7 -10   43.83    3.74   1
   0  -7  10   36.63    3.08   1
   0  -7  10   37.53    2.99   1
   0  -7  10   36.51    3.08   1
   0  -7  10   40.05    3.13   1
   0  -7  10   31.83    2.93   1
  -1   7 -10   54.43    4.00   1
  -1   7 -10   48.50    3.78   1
  -1   7 -10   42.42    3.71   1
   1  -7  10   45.68    3.22   1
   1  -7  10   38.40    3.53   1
   1  -7  10   47.59    3.53   1
   1  -7  10   39.26    3.49   1
   1  -7  10   33.35    2.99   1
  -2   7 -10    3.09    9.72   1
  -2   7 -10   -2.81    3.93   1
   2  -7  10    4.70    3.19   1
   2  -7  10    0.25    2.00   1
   2  -7  10    1.34    3.06   1
   2  -7  10    1.78    2.97   1
   2  -7  10   -0.39    2.94   1
  -3   7 -10   16.87    3.77   1
  -3   7 -10   12.13    2.73   1
   3  -7  10   10.34    2.73   1
   3  -7  10   10.77    2.65   1
   3  -7  10    8.71    3.21   1
   3  -7  10   12.43    3.44   1
   3  -7  10   14.32    2.01   1
  -4   7 -10   39.11    4.67   1
  -4   7 -10   37.64    3.26   1
   4  -7  10   37.87    4.26   1
   4  -7  10   42.89    4.27   1
   4  -7  10   33.36    4.06   1
   4  -7  10   30.54    4.11   1
  -5   7 -10   -0.90    3.08   1
  -5   7 -10    2.01    3.94   1
   5  -7  10    1.11    2.64   1
   5  -7  10   -0.87    2.52   1
   5  -7  10   -0.54    3.86   1
   5  -7  10    1.70    3.76   1
  -4  -6  10    0.87    1.87   1
  -4  -6  10   -0.05    2.43   1
  -4  -6  10    0.10    1.74   1
   3   6 -10   61.67    4.78   1
   3   6 -10   63.00    4.63   1
  -3  -6  10   57.57    3.63   1
  -3  -6  10   52.03    3.49   1
  -3  -6  10   70.34    4.45   1
   2   6 -10    5.54    4.15   1
   2   6 -10    9.32    2.67   1
  -2  -6  10    6.36    2.77   1
  -2  -6  10    2.23    2.17   1
  -2  -6  10    3.21    2.17   1
   1   6 -10   30.39    3.22   1
   1   6 -10   40.36    3.13   1
  -1  -6  10   32.80    3.10   1
  -1  -6  10   33.36    3.04   1
  -1  -6  10   39.24    3.38   1
   0   6 -10   58.14    3.49   1
   0   6 -10   57.43    3.80   1
   0   6 -10   58.06    3.34   1
   0  -6  10   49.33    2.97   1
   0  -6  10   45.05    2.88   1
   0  -6  10   47.58    2.97   1
   0  -6  10   53.01    2.97   1
   0  -6  10   48.21    2.90   1
  -1   6 -10    9.39    2.43   1
   1  -6  10    4.38    2.00   1
   1  -6  10    5.52    2.12   1
   1  -6  10    3.23    2.03   1
   1  -6  10    5.18    2.12   1
  -2   6 -10   21.49    2.63   1
  -2   6 -10   22.75    3.64   1
   2  -6  10   19.00    3.04   1
   2  -6  10   18.03    2.44   1
   2  -6  10   23.01    1.90   1
   2  -6  10   17.86    2.38   1
   2  -6  10   18.69    2.96   1
  -3   6 -10   21.40    2.99   1
  -3   6 -10   28.20    3.50   1
   3  -6  10   24.87    2.64   1
   3  -6  10   28.24    2.82   1
   3  -6  10   27.93    2.87   1
   3  -6  10   26.79    2.48   1
   3  -6  10   28.84    2.78   1
  -4   6 -10    1.48    3.72   1
  -4   6 -10    3.33    2.40   1
   4  -6  10    5.77    3.95   1
   4  -6  10    6.59    3.99   1
   4  -6  10    4.05    3.69   1
   4  -6  10    3.23    3.86   1
  -5   6 -10   27.21    4.60   1
   5  -6  10   29.13    3.24   1
   5  -6  10   27.33    3.33   1
   5  -6  10   31.73    3.40   1
   5  -6  10   27.91    3.24   1
  -6   6 -10    4.72    4.86   1
  -6   6 -10    8.04    3.11   1
   6  -6  10    6.34    3.21   1
   6  -6  10   12.58    4.33   1
   6  -6  10   12.24    4.33   1
   6  -6  10   15.34    3.42   1
   5   5 -10   20.49    5.44   1
  -5  -5  10   19.55    2.49   1
  -5  -5  10   22.93    2.58   1
  -5  -5  10   29.19    3.87   1
   4   5 -10   15.98    2.75   1
   4   5 -10   12.21    3.47   1
   4   5 -10   16.11    2.78   1
  -4  -5  10    7.02    1.96   1
  -4  -5  10    8.39    2.08   1
  -4  -5  10   11.24    2.88   1
   3   5 -10   14.87    2.72   1
   3   5 -10    5.75    3.93   1
  -3  -5  10   14.32    2.82   1
  -3  -5  10    7.62    1.93   1
  -3  -5  10   10.84    2.11   1
   2   5 -10   12.01    3.00   1
   2   5 -10    2.73    3.27   1
  -2  -5  10    5.20    2.94   1
  -2  -5  10    4.31    1.90   1
  -2  -5  10    4.81    1.93   1
   1   5 -10   20.76    1.74   1
   1   5 -10   14.50    2.63   1
   1   5 -10   13.10    2.58   1
   1   5 -10   21.35    1.69   1
   1   5 -10   18.06    2.58   1
  -1  -5  10   17.82    2.53   1
  -1  -5  10   16.41    2.04   1
  -1  -5  10   18.16    2.13   1
   0   5 -10    2.48    2.13   1
   0   5 -10    5.08    3.13   1
   0   5 -10    5.04    1.89   1
   0   5 -10    7.13    2.14   1
   0  -5  10    6.31    2.13   1
   0  -5  10    4.96    1.92   1
   0  -5  10    7.09    1.33   1
   0  -5  10    4.71    1.86   1
  -1   5 -10    3.37    2.01   1
  -1   5 -10    5.83    2.28   1
   1  -5  10    8.29    1.02   1
   1  -5  10    2.55    1.68   1
   1  -5  10    6.33    1.98   1
   1  -5  10    6.31    1.74   1
   1  -5  10    5.68    1.92   1
   1  -5  10    4.53    1.80   1
  -2   5 -10    6.26    2.59   1
   2  -5  10    4.76    1.87   1
   2  -5  10    5.50    1.82   1
   2  -5  10    1.73    1.64   1
   2  -5  10    6.44    1.21   1
   2  -5  10    2.31    1.73   1
  -3   5 -10    7.00    2.21   1
  -3   5 -10   10.68    2.95   1
   3  -5  10   11.44    2.13   1
   3  -5  10    9.58    2.05   1
   3  -5  10   12.42    2.23   1
   3  -5  10    8.97    2.05   1
  -4   5 -10   51.50    3.57   1
  -4   5 -10   57.71    4.50   1
   4  -5  10   56.84    3.44   1
   4  -5  10   51.03    3.15   1
   4  -5  10   57.26    3.42   1
   4  -5  10   53.05    3.28   1
  -5   5 -10   10.54    4.01   1
  -5   5 -10    6.88    2.74   1
   5  -5  10    6.58    2.41   1
   5  -5  10   10.69    2.71   1
   5  -5  10   12.65    2.71   1
   5  -5  10    8.24    2.44   1
  -6   5 -10   28.11    4.73   1
  -6   5 -10   30.39    2.98   1
   6  -5  10   30.81    3.32   1
   6  -5  10   37.33    3.55   1
   6  -5  10   35.76    3.48   1
   6  -5  10   32.23    3.39   1
   6   4 -10   -0.25    3.44   1
  -6  -4  10    0.39    2.83   1
  -6  -4  10    1.94    2.09   1
  -6  -4  10    0.17    1.97   1
   5   4 -10   -0.14    3.06   1
  -5  -4  10    0.67    2.46   1
  -5  -4  10    1.10    2.37   1
  -5  -4  10    1.46    3.28   1
   4   4 -10   93.37    6.40   1
   4   4 -10   89.38    5.09   1
   4   4 -10   84.72    7.25   1
  -4  -4  10   96.50    4.84   1
  -4  -4  10   94.50    4.00   1
  -4  -4  10   88.71    4.54   1
   3   4 -10  126.23    4.93   1
   3   4 -10  121.14    5.94   1
  -3  -4  10  122.02    4.35   1
  -3  -4  10  122.17    4.42   1
  -3  -4  10  129.67    5.06   1
   2   4 -10   41.88    1.71   1
   2   4 -10   38.23    2.96   1
   2   4 -10   45.49    2.51   1
  -2  -4  10   47.13    3.23   1
  -2  -4  10   42.51    2.69   1
  -2  -4  10   46.02    2.56   1
   1   4 -10  222.49    7.54   1
   1   4 -10  221.41    6.28   1
   1   4 -10  204.92   10.04   1
   1   4 -10  221.46   13.03   1
   1   4 -10  222.81    8.35   1
  -1  -4  10  212.12    6.45   1
  -1  -4  10  218.50    5.31   1
  -1  -4  10  220.42    6.90   1
   0   4 -10   36.06    2.92   1
   0   4 -10   36.72    2.51   1
   0   4 -10   34.21    2.62   1
   0   4 -10   39.05    2.80   1
   0   4 -10   31.69    2.39   1
   0  -4  10   34.86    2.23   1
   0  -4  10   38.35    2.17   1
   0  -4  10   35.61    2.10   1
   0  -4  10   29.87    2.17   1
  -1   4 -10  257.47   10.18   1
  -1   4 -10  257.43    9.85   1
  -1   4 -10  253.42   12.97   1
  -1   4 -10  257.98    9.95   1
   1  -4  10  242.39    7.93   1
   1  -4  10  253.82    5.71   1
   1  -4  10  256.42    5.86   1
   1  -4  10  248.40    8.87   1
  -2   4 -10   30.15    2.28   1
  -2   4 -10   36.75    2.35   1
  -2   4 -10   36.40    1.96   1
  -2   4 -10   35.07    1.76   1
   2  -4  10   35.36    2.35   1
   2  -4  10   37.71    2.42   1
   2  -4  10   34.42    1.87   1
   2  -4  10   36.59    2.37   1
   2  -4  10   36.00    2.31   1
  -3   4 -10   33.67    2.36   1
  -3   4 -10   32.14    1.90   1
  -3   4 -10   29.78    1.92   1
   3  -4  10   32.89    2.38   1
   3  -4  10   31.70    2.33   1
   3  -4  10   30.17    2.38   1
   3  -4  10   32.80    2.38   1
  -4   4 -10   83.68    5.36   1
   4  -4  10   91.36    3.74   1
   4  -4  10   87.86    4.55   1
   4  -4  10   79.40    3.81   1
   4  -4  10   84.50    4.42   1
  -5   4 -10    3.42    2.17   1
   5  -4  10    5.72    2.49   1
   5  -4  10    1.53    2.20   1
   5  -4  10    4.22    2.49   1
   5  -4  10    3.77    2.36   1
  -6   4 -10    4.80    3.00   1
  -6   4 -10    4.61    4.18   1
   6  -4  10    5.35    2.51   1
   6  -4  10    8.66    3.47   1
   6  -4  10    5.79    2.59   1
   6  -4  10    6.69    3.74   1
  -7   4 -10   56.88    5.89   1
  -7   4 -10   51.73    4.41   1
   7  -4  10   58.47    5.15   1
   7  -4  10   63.67    4.95   1
   7  -4  10   60.74    4.08   1
   7  -4  10   67.90    4.21   1
   6   3 -10   14.75    3.96   1
  -6  -3  10   17.16    3.57   1
   5   3 -10   24.50    4.77   1
  -5  -3  10   15.85    2.38   1
  -5  -3  10   26.51    4.15   1
  -5  -3  10   15.75    2.33   1
   4   3 -10    8.54    3.10   1
   4   3 -10    8.81    1.66   1
   4   3 -10   10.94    1.81   1
  -4  -3  10    5.08    3.19   1
  -4  -3  10    5.82    1.95   1
   3   3 -10    8.83    1.49   1
   3   3 -10    6.92    2.66   1
   3   3 -10    9.86    1.00   1
   3   3 -10    7.03    2.54   1
  -3  -3  10    3.69    1.74   1
  -3  -3  10    3.80    1.69   1
  -3  -3  10    7.88    2.20   1
   2   3 -10    0.64    2.29   1
   2   3 -10    0.27    1.96   1
   2   3 -10    0.34    0.66   1
   2   3 -10   -0.29    1.42   1
   2   3 -10   -0.37    0.73   1
  -2  -3  10   -0.03    1.63   1
  -2  -3  10   -0.95    1.00   1
  -2  -3  10    1.17    1.14   1
   1   3 -10    7.09    1.95   1
   1   3 -10   10.07    1.51   1
   1   3 -10    5.26    2.44   1
   1   3 -10    2.91    1.70   1
   1   3 -10    5.72    1.85   1
  -1  -3  10    7.04    1.64   1
  -1  -3  10    5.65    1.57   1
  -1  -3  10   11.28    1.92   1
  -1  -3  10    8.88    2.32   1
   0   3 -10   32.45    2.11   1
   0   3 -10   27.65    2.62   1
   0   3 -10   28.74    1.93   1
   0   3 -10   33.29    2.39   1
   0   3 -10   30.50    1.96   1
   0   3 -10   32.73    2.39   1
   0  -3  10   29.21    1.66   1
   0  -3  10   30.40    1.93   1
   0  -3  10   31.32    1.73   1
   0  -3  10   32.35    2.00   1
  -1   3 -10  128.84    4.48   1
  -1   3 -10  131.21    6.28   1
  -1   3 -10  138.65    6.30   1
  -1   3 -10  123.99    6.34   1
   1  -3  10  133.55    3.71   1
   1  -3  10  133.79    3.85   1
   1  -3  10  128.65    3.73   1
   1  -3  10  120.19    4.37   1
  -2   3 -10  139.84    7.27   1
  -2   3 -10  138.58    5.41   1
  -2   3 -10  142.78    8.50   1
  -2   3 -10  140.62    4.96   1
   2  -3  10  135.13    4.63   1
   2  -3  10  131.07    7.21   1
   2  -3  10  132.66    4.34   1
   2  -3  10  140.77    4.34   1
   2  -3  10  130.26    3.63   1
  -3   3 -10   46.98    2.61   1
  -3   3 -10   42.25    1.61   1
  -3   3 -10   45.92    1.96   1
   3  -3  10   47.00    2.52   1
   3  -3  10   40.64    2.37   1
   3  -3  10   43.67    2.41   1
   3  -3  10   42.19    2.39   1
  -4   3 -10    1.05    0.80   1
  -4   3 -10    0.37    1.73   1
   4  -3  10    0.77    2.40   1
   4  -3  10   -0.80    2.25   1
   4  -3  10    2.74    1.75   1
   4  -3  10    0.28    1.61   1
  -5   3 -10   60.09    3.37   1
   5  -3  10   61.85    3.19   1
   5  -3  10   60.39    3.22   1
   5  -3  10   54.83    3.28   1
   5  -3  10   63.81    3.18   1
  -6   3 -10   27.83    2.94   1
   6  -3  10   41.07    3.71   1
   6  -3  10   27.90    2.76   1
   6  -3  10   37.22    3.53   1
   6  -3  10   34.26    2.94   1
  -7   3 -10    1.31    5.41   1
  -7   3 -10    3.65    3.22   1
   7  -3  10    2.18    4.37   1
   7  -3  10   -0.36    3.07   1
   7  -3  10    5.38    4.40   1
   7  -3  10    2.38    3.39   1
   7   2 -10    4.66    4.79   1
  -7  -2  10    2.68    4.13   1
   6   2 -10    4.51    3.81   1
  -6  -2  10    7.90    3.31   1
   5   2 -10    6.40    3.16   1
   5   2 -10    4.45    3.24   1
  -5  -2  10    5.49    2.73   1
   4   2 -10   29.83    2.51   1
   4   2 -10   29.51    1.72   1
   4   2 -10   25.60    3.07   1
   4   2 -10   23.02    3.00   1
   4   2 -10   29.37    2.20   1
  -4  -2  10   31.62    3.04   1
  -4  -2  10   27.88    1.58   1
   3   2 -10   73.03    2.50   1
   3   2 -10   70.87    3.21   1
   3   2 -10   69.75    4.11   1
   3   2 -10   68.13    2.67   1
   3   2 -10   76.79    3.86   1
  -3  -2  10   66.81    2.56   1
  -3  -2  10   73.19    3.53   1
   2   2 -10  272.23   17.25   1
   2   2 -10  296.42    8.30   1
   2   2 -10  286.31    8.86   1
   2   2 -10  304.04    8.56   1
   2   2 -10  275.10   11.13   1
  -2  -2  10  292.78    8.75   1
  -2  -2  10  299.56    7.07   1
  -2  -2  10  288.03    8.12   1
   1   2 -10   58.78    2.91   1
   1   2 -10   58.11    2.61   1
   1   2 -10   67.96    3.41   1
   1   2 -10   64.08    3.00   1
   1   2 -10   60.49    2.63   1
   1   2 -10   55.50    2.70   1
  -1  -2  10   61.54    2.46   1
  -1  -2  10   61.97    2.52   1
  -1  -2  10   59.96    2.42   1
  -1  -2  10   58.45    5.56   1
   0   2 -10   58.60    2.42   1
   0   2 -10   65.01    2.50   1
   0   2 -10   62.19    3.73   1
   0   2 -10   57.23    2.50   1
   0   2 -10   53.15    2.83   1
   0   2 -10   51.21    2.72   1
   0  -2  10   60.12    2.31   1
   0  -2  10   54.19    2.11   1
   0  -2  10   57.57    2.78   1
   0  -2  10   57.44    2.33   1
  -1   2 -10   55.85    2.75   1
  -1   2 -10   51.88    2.56   1
  -1   2 -10   53.38    2.71   1
  -1   2 -10   46.85    2.60   1
   1  -2  10   47.79    2.10   1
   1  -2  10   52.89    2.18   1
   1  -2  10   47.78    1.99   1
  -2   2 -10    0.82    1.15   1
  -2   2 -10    0.25    0.93   1
   2  -2  10    0.00    0.91   1
   2  -2  10    0.67    0.99   1
  -3   2 -10    6.07    1.16   1
  -3   2 -10    9.18    2.35   1
   3  -2  10    7.89    1.58   1
   3  -2  10    9.56    1.61   1
   3  -2  10   10.12    1.67   1
   3  -2  10    9.65    1.67   1
  -4   2 -10    0.58    1.66   1
  -4   2 -10    0.10    1.87   1
  -4   2 -10    1.25    1.86   1
   4  -2  10    3.06    2.38   1
   4  -2  10    3.40    2.28   1
   4  -2  10    1.43    2.39   1
   4  -2  10    2.88    2.34   1
  -5   2 -10   -0.07    1.60   1
   5  -2  10    1.21    2.02   1
   5  -2  10    0.53    1.93   1
   5  -2  10    2.05    1.96   1
   5  -2  10    2.00    2.00   1
  -6   2 -10    1.68    3.83   1
   6  -2  10    5.28    2.44   1
   6  -2  10    2.48    2.38   1
   6  -2  10    1.19    2.38   1
   6  -2  10    2.18    2.44   1
  -7   2 -10    0.52    2.62   1
   7   1 -10    9.70    4.36   1
  -7  -1  10    8.21    5.39   1
   6   1 -10   11.04    3.72   1
   6   1 -10    7.58    3.60   1
  -6  -1  10    6.57    3.26   1
   5   1 -10    4.54    3.94   1
   5   1 -10    5.82    3.96   1
  -5  -1  10    5.20    2.76   1
  -5  -1  10    4.38    1.41   1
   4   1 -10  126.44    5.08   1
   4   1 -10  129.91    5.10   1
   4   1 -10  117.62    5.20   1
  -4  -1  10  121.07    5.03   1
  -4  -1  10  129.82    5.06   1
   3   1 -10   40.30    3.44   1
   3   1 -10   37.95    2.24   1
   3   1 -10   44.24    3.26   1
   3   1 -10   43.58    2.87   1
  -3  -1  10   38.58    2.58   1
  -3  -1  10   42.29    2.78   1
   2   1 -10   57.55    2.80   1
   2   1 -10   59.56    2.76   1
   2   1 -10   59.83    2.36   1
   2   1 -10   56.79    1.84   1
   2   1 -10   58.01    2.62   1
   2   1 -10   59.26    3.08   1
   2   1 -10   59.39    2.73   1
  -2  -1  10   49.26    6.68   1
  -2  -1  10   57.68    2.39   1
  -2  -1  10   57.00    2.72   1
   1   1 -10  509.36   16.81   1
   1   1 -10  523.49   28.87   1
   1   1 -10  530.78   14.92   1
   1   1 -10  524.18   14.38   1
   1   1 -10  512.30   13.84   1
   1   1 -10  490.20   18.26   1
  -1  -1  10  499.25   11.53   1
  -1  -1  10  501.37   28.04   1
  -1  -1  10  503.86   17.63   1
  -1  -1  10  512.23   10.91   1
  -1  -1  10  501.69   11.41   1
  -1  -1  10  503.62   36.64   1
   0   1 -10   21.17    1.53   1
   0   1 -10   22.72    1.60   1
   0   1 -10   23.52    2.23   1
   0   1 -10   24.77    4.53   1
   0   1 -10   21.97    1.90   1
   0  -1  10   21.08    1.50   1
   0  -1  10   25.78    1.29   1
   0  -1  10   24.02    1.57   1
   0  -1  10   21.27    1.74   1
   0  -1  10   22.31    1.60   1
  -1   1 -10   18.39    1.85   1
  -1   1 -10   19.31    1.64   1
  -1   1 -10   19.45    1.42   1
  -1   1 -10   17.70    2.16   1
   1  -1  10   18.42    0.82   1
   1  -1  10   18.87    1.56   1
   1  -1  10   19.84    1.59   1
   1  -1  10   15.58    1.64   1
  -2   1 -10  419.38   14.85   1
  -2   1 -10  396.34   23.79   1
  -2   1 -10  412.96   17.47   1
  -2   1 -10  390.10   10.33   1
   2  -1  10  353.94   14.70   1
   2  -1  10  374.86   22.19   1
   2  -1  10  363.58   13.58   1
  -3   1 -10    7.56    1.85   1
  -3   1 -10    5.11    1.98   1
  -3   1 -10    5.08    1.31   1
  -3   1 -10    2.34    1.88   1
   3  -1  10    4.41    2.02   1
   3  -1  10    6.71    1.73   1
   3  -1  10    8.05    1.40   1
   3  -1  10    6.68    1.76   1
   3  -1  10    8.66    1.39   1
  -4   1 -10  147.97    6.64   1
   4  -1  10  139.61    3.73   1
   4  -1  10  142.10    4.43   1
   4  -1  10  135.40    3.66   1
   4  -1  10  135.66    4.03   1
   4  -1  10  132.51    5.93   1
  -5   1 -10   29.76    2.82   1
   5  -1  10   27.73    3.14   1
   5  -1  10   32.63    2.29   1
   5  -1  10   33.80    2.55   1
   5  -1  10   30.64    2.43   1
   5  -1  10   32.65    2.20   1
  -6   1 -10   20.37    2.91   1
   6  -1  10   25.85    3.52   1
  -7   1 -10    2.95    3.58   1
   7  -1  10    4.37    4.11   1
   7   0 -10    7.99    4.35   1
   7   0 -10   11.35    5.51   1
  -7   0  10   10.50    4.14   1
   6   0 -10   45.70    4.10   1
   6   0 -10   54.87    4.33   1
  -6   0  10   51.82    4.24   1
  -6   0  10   49.32    2.94   1
   5   0 -10    1.15    2.32   1
   5   0 -10   -0.16    2.25   1
  -5   0  10    1.08    1.96   1
  -5   0  10   -1.13    2.15   1
   4   0 -10   12.89    2.52   1
   4   0 -10   17.37    2.66   1
  -4   0  10   15.05    2.24   1
  -4   0  10   12.71    2.89   1
   3   0 -10   71.46    2.93   1
   3   0 -10   72.01    3.30   1
   3   0 -10   71.28    3.26   1
   3   0 -10   73.25    4.56   1
  -3   0  10   64.42    3.19   1
  -3   0  10   64.98    3.19   1
  -3   0  10   69.72    3.00   1
   2   0 -10    0.22    1.60   1
   2   0 -10   -0.26    1.20   1
   2   0 -10   -0.23    1.46   1
   2   0 -10    0.36    0.89   1
   2   0 -10    0.50    0.26   1
  -2   0  10    1.85    1.66   1
  -2   0  10   -0.14    1.49   1
  -2   0  10    0.18    0.71   1
   1   0 -10   41.30    2.13   1
   1   0 -10   40.21    1.90   1
   1   0 -10   43.62    1.84   1
   1   0 -10   43.17    2.35   1
   1   0 -10   40.42    3.09   1
  -1   0  10   39.92    2.28   1
  -1   0  10   41.98    1.79   1
  -1   0  10   40.23    2.62   1
  -1   0  10   41.01    2.10   1
  -1   0  10   39.72    2.40   1
   0   0 -10    1.07    1.18   1
   0   0 -10   -0.69    0.86   1
   0   0 -10    0.00    3.40   1
   0   0 -10    1.66    2.97   1
   0   0  10   -0.78    0.78   1
   0   0  10    0.19    0.82   1
   0   0  10    0.28    1.13   1
   0   0  10   -0.24    0.89   1
   0   0  10    0.27    1.09   1
   0   0  10    0.00    0.57   1
   0   0  10    0.51    1.25   1
  -1   0 -10   -0.05    0.79   1
  -1   0 -10   -1.04    1.63   1
  -1   0 -10    0.03    1.22   1
  -1   0 -10   -0.05    1.54   1
   1   0  10    0.12    1.44   1
   1   0  10    0.50    0.25   1
   1   0  10    0.20    0.35   1
   1   0  10   -0.08    0.90   1
   1   0  10    0.68    0.91   1
  -2   0 -10   23.87    1.96   1
  -2   0 -10   23.92    2.17   1
   2   0  10   18.81    2.73   1
   2   0  10   28.94    1.52   1
   2   0  10   29.05    1.54   1
  -3   0 -10   19.61    2.10   1
  -3   0 -10   13.37    1.49   1
  -3   0 -10   15.47    1.53   1
   3   0  10   16.61    1.49   1
   3   0  10   16.95    1.44   1
   3   0  10   20.53    1.34   1
   3   0  10   19.86    2.58   1
   3   0  10   20.10    1.34   1
  -4   0 -10    8.92    2.29   1
   4   0  10   13.27    1.50   1
   4   0  10   11.40    1.67   1
   4   0  10    8.16    2.63   1
   4   0  10    8.44    1.35   1
   4   0  10    8.89    1.64   1
  -5   0 -10   50.33    4.21   1
   5   0  10   56.01    4.13   1
   5   0  10   51.78    2.35   1
   5   0  10   53.00    2.83   1
  -6   0 -10    3.09    4.17   1
   6   0  10    7.73    3.52   1
   7  -1 -10    7.78    4.32   1
   7  -1 -10    7.63    4.10   1
  -7   1  10    4.39    4.07   1
   6  -1 -10    8.11    3.10   1
   6  -1 -10    7.27    2.96   1
  -6   1  10    7.86    3.07   1
  -6   1  10    5.13    2.90   1
   5  -1 -10  225.34    8.41   1
   5  -1 -10  234.50    8.00   1
  -5   1  10  238.76   15.56   1
  -5   1  10  236.66    9.88   1
   4  -1 -10   76.85    3.72   1
   4  -1 -10   77.94    3.72   1
  -4   1  10   84.54    3.53   1
  -4   1  10   73.32    4.23   1
  -4   1  10   78.84    3.91   1
   3  -1 -10    2.06    1.83   1
   3  -1 -10    3.17    1.25   1
   3  -1 -10    3.73    1.86   1
  -3   1  10    1.11    2.39   1
  -3   1  10    1.11    0.95   1
   2  -1 -10  314.06    8.45   1
   2  -1 -10  306.83   14.64   1
   2  -1 -10  294.45   12.06   1
   2  -1 -10  293.69    8.78   1
  -2   1  10  320.23   12.43   1
  -2   1  10  310.46   14.46   1
  -2   1  10  325.81   21.92   1
  -2   1  10  328.82    9.30   1
   1  -1 -10   13.86    1.73   1
   1  -1 -10   13.70    1.18   1
   1  -1 -10   16.72    1.51   1
  -1   1  10   11.57    1.46   1
  -1   1  10   12.63    1.33   1
  -1   1  10   11.47    1.73   1
  -1   1  10   16.74    1.56   1
   0  -1 -10  150.13    9.75   1
   0  -1 -10  138.84    4.08   1
   0  -1 -10  150.31    4.11   1
   0  -1 -10  149.63    5.19   1
   0   1  10  151.63    3.79   1
   0   1  10  142.23    8.34   1
   0   1  10  149.11    3.99   1
   0   1  10  139.68    8.51   1
   0   1  10  138.11    5.71   1
   0   1  10  147.37    4.08   1
   0   1  10  145.60    6.16   1
  -1  -1 -10  189.77    8.87   1
  -1  -1 -10  194.10    8.67   1
   1   1  10  194.30    6.59   1
   1   1  10  198.92    6.98   1
   1   1  10  193.89    5.61   1
   1   1  10  187.68    5.95   1
   1   1  10  185.92    5.73   1
   1   1  10  179.91    6.16   1
  -2  -1 -10    3.58    1.63   1
  -2  -1 -10    0.35    1.92   1
   2   1  10    4.32    0.80   1
   2   1  10    4.16    2.08   1
   2   1  10    1.50    2.69   1
   2   1  10    3.07    0.93   1
   2   1  10    3.49    0.80   1
   2   1  10    2.62    0.77   1
   2   1  10    3.52    0.96   1
  -3  -1 -10   85.20    4.70   1
  -3  -1 -10   90.80    4.34   1
   3   1  10   94.07    4.44   1
   3   1  10   89.90    2.54   1
   3   1  10   90.06    2.29   1
   3   1  10   90.39    2.65   1
   3   1  10   81.94    4.30   1
   3   1  10   91.46    2.52   1
   3   1  10   87.51    7.14   1
  -4  -1 -10   20.75    2.52   1
   4   1  10   20.94    3.11   1
   4   1  10   24.45    1.38   1
   4   1  10   21.55    1.19   1
   4   1  10   21.34    3.72   1
  -5  -1 -10    2.04    3.18   1
   5   1  10   -1.70    2.51   1
  -6  -1 -10   18.46    3.49   1
   6   1  10    9.88    3.46   1
   7  -2 -10   18.22    4.95   1
   7  -2 -10   12.58    3.63   1
  -7   2  10    7.63    2.83   1
  -7   2  10   13.88    3.81   1
   6  -2 -10   12.83    3.13   1
   6  -2 -10   14.66    3.87   1
  -6   2  10   12.50    2.70   1
  -6   2  10   16.08    3.39   1
   5  -2 -10   10.00    3.32   1
   5  -2 -10   10.59    3.17   1
  -5   2  10    9.28    2.95   1
   4  -2 -10   57.26    3.22   1
   4  -2 -10   60.84    3.35   1
  -4   2  10   57.24    3.26   1
  -4   2  10   54.10    2.89   1
  -4   2  10   53.89    2.23   1
  -4   2  10   57.57    2.14   1
   3  -2 -10   56.20    2.81   1
   3  -2 -10   57.66    2.49   1
   3  -2 -10   56.75    3.38   1
  -3   2  10   57.40    3.14   1
  -3   2  10   59.29    2.51   1
  -3   2  10   60.19    2.49   1
  -3   2  10   60.18    2.03   1
   2  -2 -10   35.46    1.46   1
   2  -2 -10   38.06    2.08   1
   2  -2 -10   38.72    2.26   1
  -2   2  10   36.07    2.92   1
  -2   2  10   40.49    2.12   1
  -2   2  10   39.27    1.94   1
  -2   2  10   33.18    2.01   1
   1  -2 -10   20.41    1.75   1
   1  -2 -10   21.66    1.47   1
   1  -2 -10   22.32    1.68   1
  -1   2  10   21.80    1.70   1
  -1   2  10   20.90    1.66   1
  -1   2  10   23.88    1.82   1
  -1   2  10   13.82    2.34   1
  -1   2  10   18.32    2.13   1
  -1   2  10   16.36    1.73   1
  -1   2  10   16.95    1.96   1
   0  -2 -10   -0.09    0.81   1
   0  -2 -10    0.34    1.12   1
   0  -2 -10    0.34    1.82   1
   0   2  10   -0.11    2.06   1
   0   2  10   -0.17    1.29   1
   0   2  10   -0.17    2.02   1
   0   2  10    1.54    1.51   1
   0   2  10    0.62    1.18   1
  -1  -2 -10   35.26    2.29   1
  -1  -2 -10   37.23    2.13   1
   1   2  10   34.53    3.08   1
   1   2  10   35.70    1.34   1
   1   2  10   33.71    1.95   1
   1   2  10   36.41    2.63   1
   1   2  10   35.52    1.34   1
   1   2  10   38.75    2.95   1
  -2  -2 -10  165.35    6.89   1
  -2  -2 -10  159.95    6.99   1
   2   2  10  152.86    5.15   1
   2   2  10  163.10    8.59   1
   2   2  10  155.20    5.79   1
   2   2  10  157.00    6.08   1
   2   2  10  172.53    6.72   1
   2   2  10  157.33    5.09   1
   2   2  10  159.77    5.48   1
  -3  -2 -10   40.79    2.57   1
  -3  -2 -10   48.88    3.08   1
   3   2  10   45.17    3.74   1
   3   2  10   42.38    4.09   1
  -4  -2 -10   47.83    3.52   1
   4   2  10   40.22    4.42   1
   4   2  10   44.13    4.48   1
  -5  -2 -10   56.58    4.24   1
   5   2  10   53.31    5.50   1
   5   2  10   56.75    5.41   1
  -6  -2 -10    8.23    5.80   1
   6   2  10    4.42    4.65   1
   7  -3 -10    2.19    3.59   1
   7  -3 -10    0.77    3.72   1
  -7   3  10    2.44    2.83   1
  -7   3  10    0.39    4.12   1
   6  -3 -10   25.40    3.21   1
   6  -3 -10   24.51    3.10   1
  -6   3  10   19.77    3.80   1
   5  -3 -10   12.16    2.43   1
   5  -3 -10   13.95    2.50   1
  -5   3  10   10.79    2.66   1
   4  -3 -10   14.46    2.19   1
   4  -3 -10   12.62    2.04   1
  -4   3  10    8.99    1.42   1
  -4   3  10   13.24    3.04   1
  -4   3  10    9.18    1.44   1
   3  -3 -10   70.74    2.81   1
   3  -3 -10   62.11    3.13   1
  -3   3  10   75.94    3.75   1
  -3   3  10   68.54    2.55   1
  -3   3  10   71.46    3.11   1
  -3   3  10   72.03    3.17   1
   2  -3 -10  147.25    4.62   1
   2  -3 -10  143.47    7.16   1
   2  -3 -10  146.66    5.65   1
  -2   3  10  150.79    6.69   1
  -2   3  10  154.87    5.73   1
  -2   3  10  154.02    6.20   1
  -2   3  10  159.05    5.39   1
   1  -3 -10  436.16   11.28   1
   1  -3 -10  428.11   13.42   1
  -1   3  10  449.76   23.64   1
  -1   3  10  468.66   17.65   1
  -1   3  10  469.91   18.21   1
  -1   3  10  437.83   20.47   1
  -1   3  10  437.79   16.13   1
  -1   3  10  445.49   11.25   1
   0  -3 -10   65.10    2.97   1
   0  -3 -10   67.31    2.82   1
   0   3  10   67.07    2.38   1
   0   3  10   54.14    4.27   1
   0   3  10   66.31    3.42   1
   0   3  10   60.29    4.09   1
   0   3  10   61.65    3.72   1
   0   3  10   69.08    2.40   1
  -1  -3 -10    0.20    1.21   1
  -1  -3 -10    0.32    1.05   1
   1   3  10   -0.37    0.66   1
   1   3  10   -0.42    0.61   1
   1   3  10    0.88    1.83   1
   1   3  10    1.07    1.24   1
   1   3  10    1.02    0.63   1
   1   3  10   -0.39    2.05   1
   1   3  10    0.68    1.80   1
   1   3  10   -0.39    0.61   1
   1   3  10    0.03    0.46   1
   1   3  10    0.49    0.46   1
  -2  -3 -10    2.32    2.05   1
  -2  -3 -10    0.22    0.87   1
   2   3  10    0.35    2.20   1
   2   3  10    2.45    3.04   1
   2   3  10    1.35    2.92   1
  -3  -3 -10   23.47    3.21   1
  -3  -3 -10   16.49    1.57   1
   3   3  10   17.58    3.26   1
   3   3  10   18.45    3.28   1
  -4  -3 -10   14.66    3.01   1
   4   3  10   12.88    3.66   1
   4   3  10    9.38    3.53   1
  -5  -3 -10   18.14    3.69   1
   5   3  10   17.77    5.63   1
   5   3  10   11.50    5.29   1
   7  -4 -10   25.12    4.65   1
   7  -4 -10   16.45    3.41   1
  -7   4  10   14.37    3.63   1
   6  -4 -10   -0.30    2.16   1
   6  -4 -10    0.67    2.26   1
  -6   4  10   -0.49    3.74   1
   5  -4 -10   10.23    2.63   1
   5  -4 -10    8.18    2.52   1
  -5   4  10    4.43    2.97   1
   4  -4 -10    3.01    2.11   1
   4  -4 -10   -0.29    2.59   1
  -4   4  10    0.10    1.57   1
  -4   4  10    1.15    3.77   1
   3  -4 -10   25.66    2.28   1
   3  -4 -10   24.91    1.39   1
  -3   4  10   23.31    2.25   1
  -3   4  10   26.20    2.30   1
  -3   4  10   25.57    2.89   1
   2  -4 -10   50.80    2.77   1
   2  -4 -10   47.43    2.48   1
  -2   4  10   38.56    3.11   1
  -2   4  10   46.20    3.26   1
  -2   4  10   41.93    3.06   1
   1  -4 -10  127.42    4.47   1
   1  -4 -10  137.33    4.77   1
  -1   4  10  135.69    9.38   1
  -1   4  10  135.47    5.40   1
  -1   4  10  122.77    6.29   1
  -1   4  10  135.30    7.77   1
  -1   4  10  126.38    6.87   1
  -1   4  10  132.64    7.90   1
  -1   4  10  137.28    7.88   1
   0  -4 -10    2.96    2.11   1
   0  -4 -10   -0.19    1.48   1
   0   4  10    2.12    2.17   1
   0   4  10   -0.80    0.80   1
   0   4  10   -1.03    1.72   1
   0   4  10    0.64    2.85   1
   0   4  10    1.11    0.85   1
   0   4  10   -0.80    1.15   1
   0   4  10    0.11    1.18   1
  -1  -4 -10   72.33    3.61   1
  -1  -4 -10   57.82    3.20   1
  -1  -4 -10   54.11    3.14   1
   1   4  10   67.86    4.30   1
   1   4  10   58.30    3.49   1
   1   4  10   55.10    4.07   1
  -2  -4 -10    0.23    1.23   1
  -2  -4 -10    1.17    1.63   1
   2   4  10   -0.38    3.60   1
   2   4  10    2.75    3.67   1
   2   4  10    0.13    1.75   1
  -3  -4 -10   37.52    3.79   1
   3   4  10   34.23    4.06   1
   3   4  10   29.93    4.04   1
  -4  -4 -10   67.28    4.48   1
   4   4  10   58.91    6.62   1
   4   4  10   50.99    5.90   1
   7  -5 -10   48.11    5.04   1
   7  -5 -10   46.08    4.27   1
  -7   5  10   44.01    5.97   1
   6  -5 -10   15.84    4.05   1
   6  -5 -10   16.40    3.16   1
  -6   5  10   11.57    3.76   1
   5  -5 -10   80.73    4.82   1
   5  -5 -10   79.17    4.63   1
  -5   5  10   84.96    4.93   1
   4  -5 -10   17.57    2.43   1
   4  -5 -10   21.02    2.46   1
  -4   5  10   21.19    3.32   1
  -4   5  10   12.45    2.88   1
   3  -5 -10   19.56    2.20   1
  -3   5  10   24.73    2.75   1
  -3   5  10   19.83    2.96   1
  -3   5  10   18.15    2.59   1
   2  -5 -10   77.89    4.51   1
   2  -5 -10   81.44    4.45   1
  -2   5  10   85.55    5.24   1
  -2   5  10   84.55    4.66   1
  -2   5  10   74.63    4.55   1
   1  -5 -10   93.50    5.97   1
   1  -5 -10   88.43    3.93   1
  -1   5  10   78.61    4.40   1
  -1   5  10   95.07    5.32   1
  -1   5  10   86.18    5.62   1
   0  -5 -10    2.67    2.15   1
   0  -5 -10    3.02    1.56   1
   0   5  10    1.47    3.12   1
   0   5  10    2.99    2.60   1
   0   5  10    2.89    3.25   1
  -1  -5 -10    2.28    1.78   1
  -1  -5 -10    6.79    2.34   1
  -1  -5 -10    9.58    2.14   1
   1   5  10    5.75    4.70   1
   1   5  10    6.37    3.32   1
   1   5  10    5.29    3.38   1
  -2  -5 -10    1.61    2.65   1
  -2  -5 -10   -0.46    1.53   1
  -2  -5 -10   -1.79    1.93   1
   2   5  10   -0.48    4.09   1
   2   5  10    2.52    2.66   1
   2   5  10    1.18    3.03   1
  -3  -5 -10    0.17    2.25   1
   3   5  10   -0.29    3.28   1
   3   5  10    1.34    3.37   1
   6  -6 -10    1.14    2.42   1
   6  -6 -10    0.96    2.40   1
  -6   6  10    3.65    3.78   1
   5  -6 -10   15.70    2.71   1
   5  -6 -10   16.20    2.64   1
  -5   6  10   16.27    3.80   1
   4  -6 -10    7.26    2.57   1
   4  -6 -10    4.13    2.51   1
  -4   6  10    5.99    5.60   1
  -4   6  10    1.11    3.09   1
   3  -6 -10   31.08    2.72   1
  -3   6  10   23.48    3.11   1
  -3   6  10   19.98    3.06   1
  -3   6  10   27.07    3.50   1
   2  -6 -10   44.53    3.23   1
  -2   6  10   34.74    4.28   1
  -2   6  10   38.06    4.53   1
  -2   6  10   49.30    3.92   1
   1  -6 -10    9.04    2.28   1
  -1   6  10    7.34    3.30   1
  -1   6  10    7.37    3.41   1
  -1   6  10    8.02    3.08   1
   0  -6 -10  118.59    5.21   1
   0  -6 -10  104.41    8.26   1
   0   6  10   98.52    6.90   1
   0   6  10  115.75    5.42   1
   0   6  10   91.07    6.34   1
  -1  -6 -10    8.47    2.93   1
  -1  -6 -10    6.96    2.51   1
   1   6  10    4.61    4.00   1
   1   6  10    4.55    3.80   1
   1   6  10   11.22    2.99   1
  -2  -6 -10   40.73    4.57   1
  -2  -6 -10   30.55    3.06   1
   2   6  10   23.25    4.45   1
   2   6  10   36.93    4.13   1
   2   6  10   24.53    5.71   1
   5  -7 -10   20.04    3.71   1
   5  -7 -10   16.64    3.00   1
  -5   7  10   18.70    4.43   1
   4  -7 -10   15.73    2.92   1
  -4   7  10   12.70    5.37   1
   3  -7 -10    1.22    2.75   1
  -3   7  10   -1.40    2.99   1
  -3   7  10   -0.97    4.02   1
  -3   7  10    1.39    4.18   1
   2  -7 -10    9.84    2.41   1
  -2   7  10    8.14    5.20   1
  -2   7  10    9.02    3.42   1
  -2   7  10    5.78    3.53   1
   1  -7 -10    1.07    2.57   1
  -1   7  10   -1.86    4.26   1
  -1   7  10    3.80    3.87   1
  -1   7  10    2.01    4.58   1
   0  -7 -10    2.80    2.64   1
   0   7  10    2.00    5.84   1
   0   7  10    0.38    5.87   1
   0   7  10    1.56    3.01   1
   1   8 -11   21.01    4.76   1
  -1  -8  11   16.07    4.04   1
  -1  -8  11   14.23    3.75   1
  -1  -8  11   16.24    3.99   1
  -1  -8  11   23.64    3.52   1
  -1  -8  11    9.02    3.67   1
   0   8 -11    8.49    3.73   1
   0  -8  11    1.90    2.67   1
   0  -8  11    9.66    3.04   1
   0  -8  11    6.78    4.08   1
   0  -8  11    4.17    2.84   1
   0  -8  11    6.69    3.99   1
  -1   8 -11   40.23    4.98   1
   1  -8  11   31.80    4.04   1
   1  -8  11   34.98    3.08   1
   1  -8  11   27.67    3.36   1
   1  -8  11   29.81    3.95   1
   1  -8  11   30.00    3.31   1
  -2   8 -11   33.98    3.98   1
  -2   8 -11   35.03    4.27   1
  -2   8 -11   40.85    4.16   1
   2  -8  11   30.51    3.51   1
   2  -8  11   27.84    3.28   1
   2  -8  11   33.49    3.42   1
   2  -8  11   37.78    3.33   1
   2  -8  11   32.87    3.51   1
  -3   8 -11    6.60    4.71   1
  -3   8 -11    0.06    3.52   1
   3  -8  11    7.17    4.84   1
   3  -8  11    4.90    3.72   1
   3  -8  11    6.85    4.96   1
   3  -8  11    6.15    3.08   1
   3  -8  11    5.19    3.55   1
  -4   8 -11    1.61    7.31   1
   4  -8  11    2.38    5.45   1
   4  -8  11    2.95    4.88   1
   4  -8  11    0.54    5.10   1
   4  -8  11    2.88    4.94   1
   3   7 -11   45.27    4.47   1
  -3  -7  11   33.59    3.28   1
  -3  -7  11   46.97    4.25   1
  -3  -7  11   40.48    3.32   1
   2   7 -11   50.04    4.14   1
  -2  -7  11   49.19    3.94   1
  -2  -7  11   42.23    3.80   1
  -2  -7  11   47.30    3.85   1
   1   7 -11    4.33    3.27   1
  -1  -7  11    5.49    2.91   1
  -1  -7  11    1.85    2.67   1
  -1  -7  11    1.25    2.64   1
  -1  -7  11    1.16    2.61   1
  -1  -7  11    0.36    2.58   1
   0   7 -11   64.18    4.71   1
   0  -7  11   58.60    3.97   1
   0  -7  11   56.59    4.02   1
   0  -7  11   67.72    3.99   1
   0  -7  11   58.18    3.97   1
   0  -7  11   59.75    3.97   1
  -1   7 -11    3.32    3.32   1
  -1   7 -11    4.91    3.03   1
  -1   7 -11    3.35    3.13   1
   1  -7  11    3.70    2.59   1
   1  -7  11    2.20    2.52   1
   1  -7  11    0.93    2.42   1
   1  -7  11    3.96    2.74   1
   1  -7  11    3.80    2.62   1
  -2   7 -11    8.50    3.35   1
  -2   7 -11    8.78    3.70   1
   2  -7  11    2.75    2.62   1
   2  -7  11    2.23    2.71   1
   2  -7  11    2.93    2.68   1
   2  -7  11    1.79    2.58   1
   2  -7  11    6.00    2.49   1
  -3   7 -11   85.69    6.37   1
  -3   7 -11   96.35    6.10   1
   3  -7  11   81.22    5.54   1
   3  -7  11   88.58    5.15   1
   3  -7  11   90.00    4.79   1
   3  -7  11   87.98    4.83   1
   3  -7  11   90.00    4.69   1
  -4   7 -11   14.70    4.49   1
  -4   7 -11    8.29    2.66   1
   4  -7  11   12.48    3.02   1
   4  -7  11    5.84    2.87   1
   4  -7  11    8.39    2.97   1
   4  -7  11   11.92    3.03   1
  -5   7 -11   18.74    5.03   1
  -5   7 -11   15.56    2.90   1
   5  -7  11   22.63    3.57   1
   5  -7  11   19.06    3.40   1
   5  -7  11   17.43    3.52   1
   5  -7  11   23.81    3.65   1
   4   6 -11    2.61    4.59   1
  -4  -6  11    2.77    2.61   1
  -4  -6  11    0.65    2.61   1
  -4  -6  11    4.46    3.61   1
   3   6 -11   13.22    3.41   1
   3   6 -11    7.51    3.64   1
  -3  -6  11    6.19    2.43   1
  -3  -6  11    9.67    3.16   1
  -3  -6  11    3.33    2.27   1
   2   6 -11   63.33    4.04   1
   2   6 -11   53.84    3.91   1
  -2  -6  11   50.48    3.12   1
  -2  -6  11   59.17    3.80   1
  -2  -6  11   60.53    3.43   1
   1   6 -11   35.42    2.97   1
   1   6 -11   42.07    3.90   1
  -1  -6  11   39.50    2.99   1
  -1  -6  11   37.70    2.93   1
  -1  -6  11   33.54    2.75   1
   0   6 -11   14.87    2.61   1
   0   6 -11   14.29    2.82   1
   0   6 -11    7.63    2.72   1
   0  -6  11   16.01    2.22   1
   0  -6  11   11.26    2.80   1
   0  -6  11    8.46    2.74   1
  -1   6 -11   93.15    5.93   1
  -1   6 -11   84.83    4.93   1
   1  -6  11   86.39    4.37   1
   1  -6  11   83.66    3.71   1
   1  -6  11   77.52    5.19   1
   1  -6  11   76.82    3.99   1
   1  -6  11   86.59    5.10   1
  -2   6 -11    3.39    3.42   1
  -2   6 -11    8.59    3.33   1
   2  -6  11    7.75    1.70   1
   2  -6  11    6.53    2.53   1
   2  -6  11    6.98    2.66   1
   2  -6  11    4.14    2.34   1
   2  -6  11    6.25    2.53   1
  -3   6 -11    1.59    2.30   1
  -3   6 -11   -1.39    3.01   1
   3  -6  11   -0.18    2.09   1
   3  -6  11    1.36    1.68   1
   3  -6  11    2.21    2.39   1
   3  -6  11    2.07    2.27   1
   3  -6  11    4.08    2.30   1
  -4   6 -11   24.30    2.72   1
  -4   6 -11   33.79    8.51   1
   4  -6  11   24.95    2.88   1
   4  -6  11   26.43    3.02   1
   4  -6  11   28.41    3.09   1
   4  -6  11   26.73    3.09   1
  -5   6 -11    2.03    3.70   1
  -5   6 -11   -0.43    2.51   1
   5  -6  11    3.44    3.17   1
   5  -6  11    1.70    3.14   1
   5  -6  11   -1.01    2.29   1
   5  -6  11    0.17    2.31   1
  -6   6 -11   -0.56    3.13   1
  -6   6 -11   -2.87    4.87   1
   6  -6  11    0.61    2.93   1
   6  -6  11    0.64    2.86   1
   6  -6  11   -0.74    3.07   1
   6  -6  11   -0.79    2.94   1
   5   5 -11    3.74    6.92   1
  -5  -5  11    1.03    2.65   1
  -5  -5  11   -0.04    3.51   1
  -5  -5  11   -0.59    2.55   1
   4   5 -11    2.67    4.21   1
  -4  -5  11    1.53    3.32   1
  -4  -5  11    2.05    4.30   1
  -4  -5  11    1.33    3.26   1
   3   5 -11    0.18    1.64   1
   3   5 -11    0.79    4.14   1
  -3  -5  11   -1.97    3.42   1
  -3  -5  11    1.08    2.07   1
  -3  -5  11   -1.44    1.92   1
   2   5 -11    3.10    2.66   1
   2   5 -11    8.56    2.56   1
  -2  -5  11    3.13    1.97   1
  -2  -5  11    4.47    2.03   1
  -2  -5  11    3.78    2.18   1
   1   5 -11   20.43    1.81   1
   1   5 -11   19.66    2.56   1
   1   5 -11   17.96    2.75   1
   1   5 -11   13.66    2.24   1
  -1  -5  11   19.06    2.20   1
  -1  -5  11   19.06    2.61   1
  -1  -5  11   17.05    2.53   1
   0   5 -11   -0.82    2.44   1
   0   5 -11    0.10    1.30   1
   0  -5  11    0.75    0.85   1
   0  -5  11    0.40    1.37   1
   0  -5  11    0.95    1.09   1
   0  -5  11    0.20    1.42   1
  -1   5 -11    0.17    1.16   1
  -1   5 -11   -0.52    1.45   1
   1  -5  11   -1.29    1.29   1
   1  -5  11   -0.07    0.65   1
   1  -5  11    1.03    0.89   1
   1  -5  11   -0.33    1.33   1
   1  -5  11   -0.56    1.36   1
   1  -5  11   -0.19    1.31   1
  -2   5 -11    1.29    2.00   1
   2  -5  11    1.29    2.03   1
   2  -5  11    2.03    2.00   1
   2  -5  11    2.71    1.97   1
   2  -5  11    4.06    1.23   1
   2  -5  11    2.16    2.10   1
  -3   5 -11   21.23    2.71   1
   3  -5  11   21.47    2.52   1
   3  -5  11   21.20    2.40   1
   3  -5  11   17.74    2.33   1
   3  -5  11   27.36    2.59   1
  -4   5 -11    4.76    3.09   1
  -4   5 -11    0.30    3.74   1
   4  -5  11    1.63    2.35   1
   4  -5  11    1.86    2.39   1
   4  -5  11    1.23    2.43   1
   4  -5  11    2.50    2.59   1
  -5   5 -11   73.86    4.95   1
  -5   5 -11   82.15    6.14   1
   5  -5  11   77.31    3.98   1
   5  -5  11   82.55    4.20   1
   5  -5  11   83.71    4.39   1
   5  -5  11   80.25    4.54   1
  -6   5 -11    0.06    2.26   1
  -6   5 -11   -4.11    6.97   1
   6  -5  11    0.14    2.75   1
   6  -5  11    1.37    3.00   1
   6  -5  11    0.00    2.87   1
   6  -5  11    2.50    2.88   1
   6   4 -11   16.74    4.74   1
  -6  -4  11   11.68    2.75   1
  -6  -4  11   15.50    4.82   1
  -6  -4  11   11.11    2.70   1
   5   4 -11    4.65    3.94   1
  -5  -4  11    9.96    3.46   1
  -5  -4  11    7.60    3.26   1
  -5  -4  11    5.27    3.26   1
   4   4 -11    5.84    3.24   1
  -4  -4  11    2.38    2.54   1
  -4  -4  11    5.60    3.49   1
  -4  -4  11    6.65    2.81   1
   3   4 -11   45.42    3.70   1
   3   4 -11   57.39    2.84   1
  -3  -4  11   53.62    3.02   1
  -3  -4  11   50.23    2.91   1
  -3  -4  11   60.05    4.06   1
   2   4 -11   13.83    1.21   1
   2   4 -11    9.68    3.29   1
   2   4 -11   15.57    1.76   1
   2   4 -11   13.52    3.37   1
   2   4 -11   13.73    3.32   1
  -2  -4  11   11.29    1.95   1
  -2  -4  11   14.37    2.26   1
   1   4 -11   11.04    1.47   1
   1   4 -11    7.49    2.05   1
   1   4 -11    4.88    1.94   1
   1   4 -11    7.46    2.22   1
   1   4 -11    8.95    1.58   1
  -1  -4  11    8.99    1.83   1
  -1  -4  11   11.45    1.91   1
  -1  -4  11    8.87    1.83   1
   0   4 -11   92.19    5.29   1
   0   4 -11   92.98    4.44   1
   0   4 -11   90.23    4.72   1
   0   4 -11   91.81    3.93   1
   0  -4  11   96.26    3.42   1
   0  -4  11   94.21    3.43   1
   0  -4  11   88.93    4.08   1
   0  -4  11   94.33    6.32   1
  -1   4 -11  171.29    8.12   1
  -1   4 -11  167.32   10.44   1
  -1   4 -11  167.28    4.71   1
  -1   4 -11  165.69    6.57   1
   1  -4  11  166.39    5.61   1
   1  -4  11  160.94    6.01   1
   1  -4  11  165.99    4.87   1
   1  -4  11  178.42    5.09   1
  -2   4 -11    0.28    1.71   1
  -2   4 -11    0.45    0.98   1
  -2   4 -11    1.31    1.46   1
  -2   4 -11    0.56    0.68   1
   2  -4  11    0.33    0.73   1
   2  -4  11    1.18    1.36   1
   2  -4  11    2.03    1.86   1
   2  -4  11   -0.90    1.75   1
   2  -4  11    0.15    1.25   1
  -3   4 -11    4.54    1.92   1
   3  -4  11    4.93    2.08   1
   3  -4  11    5.95    2.11   1
   3  -4  11    6.34    2.14   1
   3  -4  11    6.40    2.18   1
  -4   4 -11   42.26    2.87   1
   4  -4  11   43.05    3.21   1
   4  -4  11   36.89    3.17   1
   4  -4  11   36.79    2.71   1
   4  -4  11   35.15    2.60   1
  -5   4 -11   -1.43    3.16   1
   5  -4  11    0.04    2.56   1
   5  -4  11    2.49    2.56   1
   5  -4  11    3.03    2.49   1
   5  -4  11    3.53    2.51   1
  -6   4 -11    7.42    4.47   1
  -6   4 -11    7.87    2.44   1
   6  -4  11   13.47    2.90   1
   6  -4  11   12.30    2.89   1
   6  -4  11   19.10    3.16   1
   6  -4  11   14.16    2.89   1
   6   3 -11   20.06    4.23   1
  -6  -3  11   21.24    2.87   1
  -6  -3  11   21.93    3.80   1
  -6  -3  11   17.61    2.83   1
   5   3 -11    0.10    4.21   1
  -5  -3  11    0.95    3.28   1
  -5  -3  11    3.37    2.59   1
  -5  -3  11    3.14    2.66   1
   4   3 -11    1.49    1.34   1
   4   3 -11    1.43    1.31   1
   4   3 -11    2.98    3.14   1
   4   3 -11    0.40    3.08   1
  -4  -3  11    1.49    2.70   1
  -4  -3  11   -0.78    2.73   1
  -4  -3  11    0.34    3.33   1
   3   3 -11  156.83    5.90   1
   3   3 -11  166.16    5.92   1
   3   3 -11  151.15    7.31   1
   3   3 -11  155.94    7.22   1
  -3  -3  11  163.38    5.06   1
  -3  -3  11  156.66    5.02   1
  -3  -3  11  165.05    6.51   1
   2   3 -11    2.27    2.00   1
   2   3 -11    6.73    2.21   1
   2   3 -11    8.76    1.38   1
   2   3 -11    5.61    2.35   1
   2   3 -11    7.33    1.44   1
  -2  -3  11    5.79    2.17   1
  -2  -3  11    7.12    2.41   1
  -2  -3  11    4.94    2.17   1
   1   3 -11  141.79    5.84   1
   1   3 -11  138.38    5.24   1
   1   3 -11  149.96    8.89   1
   1   3 -11  135.58    7.56   1
   1   3 -11  150.49    4.63   1
  -1  -3  11  141.53    8.72   1
  -1  -3  11  144.71    8.42   1
  -1  -3  11  133.44    5.74   1
   0   3 -11   49.98    2.43   1
   0   3 -11   58.98    3.46   1
   0   3 -11   57.26    2.87   1
   0   3 -11   48.48    2.65   1
   0   3 -11   58.69    4.06   1
   0   3 -11   47.02    2.98   1
   0  -3  11   54.24    2.54   1
   0  -3  11   47.97    2.43   1
   0  -3  11   50.37    3.80   1
   0  -3  11   50.51    2.14   1
  -1   3 -11  205.02   12.67   1
  -1   3 -11  208.63    9.12   1
  -1   3 -11  209.79    8.01   1
  -1   3 -11  200.19    8.28   1
   1  -3  11  195.23    7.60   1
   1  -3  11  208.09    5.56   1
   1  -3  11  187.48   12.41   1
   1  -3  11  206.84    5.46   1
  -2   3 -11   13.93    1.47   1
  -2   3 -11   12.52    1.81   1
  -2   3 -11   11.00    1.07   1
   2  -3  11    9.35    1.65   1
   2  -3  11   13.36    1.07   1
   2  -3  11   15.09    1.81   1
   2  -3  11   14.35    1.75   1
   2  -3  11   11.61    1.68   1
  -3   3 -11  201.91   10.08   1
  -3   3 -11  196.97   11.55   1
   3  -3  11  191.54    5.54   1
   3  -3  11  200.46    6.12   1
   3  -3  11  191.91    7.02   1
   3  -3  11  188.93    5.31   1
  -4   3 -11   95.59    6.60   1
  -4   3 -11  100.63    4.70   1
   4  -3  11  100.08    3.87   1
   4  -3  11   98.80    4.02   1
   4  -3  11  103.81    4.34   1
   4  -3  11  103.71    3.76   1
  -5   3 -11    3.22    2.29   1
   5  -3  11    2.59    2.11   1
   5  -3  11    0.00    1.93   1
   5  -3  11    2.26    2.17   1
   5  -3  11    3.01    2.05   1
  -6   3 -11   -0.14    3.25   1
   6  -3  11   -0.52    2.30   1
   6  -3  11   -2.00    2.11   1
   6  -3  11    1.63    2.34   1
   6  -3  11   -0.36    2.32   1
  -7   3 -11    1.09    5.61   1
  -7   3 -11    4.71    3.65   1
   7  -3  11    9.20    3.62   1
   7  -3  11    4.39    3.33   1
   7  -3  11    4.71    3.49   1
   7  -3  11   11.41    3.46   1
   7   2 -11   33.69    5.04   1
  -7  -2  11   45.77    5.17   1
   6   2 -11   14.66    3.76   1
  -6  -2  11   21.63    3.62   1
   5   2 -11    3.88    3.84   1
   5   2 -11    4.62    3.74   1
  -5  -2  11    1.92    3.10   1
   4   2 -11    1.33    0.44   1
   4   2 -11   -1.00    2.33   1
   4   2 -11    1.72    2.39   1
   4   2 -11    1.72    0.44   1
  -4  -2  11    0.67    1.14   1
  -4  -2  11    2.86    2.22   1
   3   2 -11  691.00   29.26   1
   3   2 -11  614.93   28.14   1
   3   2 -11  619.71   30.18   1
   3   2 -11  688.34   18.29   1
   3   2 -11  649.80   15.97   1
   3   2 -11  646.72   14.73   1
   3   2 -11  617.41   40.66   1
  -3  -2  11  633.84   33.98   1
  -3  -2  11  661.01   24.32   1
   2   2 -11   18.33    2.08   1
   2   2 -11   11.98    2.06   1
   2   2 -11   18.49    1.62   1
   2   2 -11   23.41    1.59   1
   2   2 -11   15.05    2.13   1
   2   2 -11   17.12    1.10   1
  -2  -2  11   26.54    4.34   1
  -2  -2  11   25.01    4.36   1
  -2  -2  11   19.90    2.01   1
   1   2 -11  149.04    7.72   1
   1   2 -11  166.40    7.28   1
   1   2 -11  158.39    5.97   1
   1   2 -11  164.32    6.18   1
   1   2 -11  174.90    5.34   1
   1   2 -11  161.18    6.69   1
  -1  -2  11  158.19    5.05   1
  -1  -2  11  162.41    5.29   1
  -1  -2  11  159.60    6.37   1
   0   2 -11    4.80    1.44   1
   0   2 -11    5.12    2.53   1
   0   2 -11    4.73    1.41   1
   0   2 -11    7.58    2.18   1
   0   2 -11    7.49    1.53   1
   0  -2  11    6.40    1.31   1
   0  -2  11    5.89    1.28   1
   0  -2  11    8.67    1.67   1
   0  -2  11    4.87    1.44   1
  -1   2 -11   27.00    1.77   1
  -1   2 -11   26.01    1.91   1
  -1   2 -11   27.95    2.42   1
  -1   2 -11   25.21    2.18   1
   1  -2  11   22.92    1.89   1
   1  -2  11   26.45    1.29   1
   1  -2  11   25.83    1.98   1
  -2   2 -11   11.30    4.41   1
  -2   2 -11    4.81    1.45   1
   2  -2  11    8.03    1.54   1
   2  -2  11    5.73    1.48   1
  -3   2 -11   28.59    2.26   1
  -3   2 -11   24.59    1.76   1
   3  -2  11   26.44    1.92   1
   3  -2  11   30.76    2.06   1
   3  -2  11   28.23    1.90   1
   3  -2  11   33.32    2.08   1
  -4   2 -11    3.33    1.35   1
  -4   2 -11    5.53    2.10   1
   4  -2  11    7.75    2.31   1
   4  -2  11    7.12    2.31   1
   4  -2  11    6.07    2.34   1
   4  -2  11    6.19    2.37   1
  -5   2 -11    0.23    1.17   1
  -5   2 -11   -0.08    1.69   1
   5  -2  11    1.45    2.26   1
   5  -2  11    0.21    2.17   1
   5  -2  11    1.07    2.14   1
   5  -2  11   -2.20    2.20   1
  -6   2 -11    0.03    3.94   1
   6  -2  11    3.78    2.60   1
   6  -2  11    1.38    3.24   1
   6  -2  11   -0.23    2.37   1
   6  -2  11    3.51    3.35   1
  -7   2 -11    5.41    3.24   1
   7   1 -11   14.51    4.33   1
  -7  -1  11   10.14    5.26   1
   6   1 -11   12.31    3.84   1
   6   1 -11    7.03    3.37   1
  -6  -1  11   11.37    3.48   1
   5   1 -11    5.08    4.55   1
   5   1 -11    3.10    4.48   1
  -5  -1  11   -1.22    2.77   1
  -5  -1  11   -0.76    2.14   1
   4   1 -11   96.89    4.91   1
   4   1 -11  102.57    4.74   1
   4   1 -11   87.97    4.57   1
  -4  -1  11   95.12    3.70   1
  -4  -1  11   94.21    4.44   1
   3   1 -11   13.07    1.85   1
   3   1 -11    8.94    2.80   1
   3   1 -11   13.70    1.99   1
   3   1 -11    7.66    2.12   1
  -3  -1  11   14.12    2.20   1
  -3  -1  11    9.09    1.83   1
   2   1 -11   51.39    3.18   1
   2   1 -11   53.87    2.91   1
   2   1 -11   58.85    2.06   1
   2   1 -11   57.70    1.86   1
   2   1 -11   61.02    2.67   1
   2   1 -11   52.12    2.89   1
   2   1 -11   60.38    2.65   1
  -2  -1  11   57.40    2.83   1
  -2  -1  11   58.53    2.58   1
   1   1 -11   42.54    2.32   1
   1   1 -11   40.40    2.19   1
   1   1 -11   42.61    2.67   1
   1   1 -11   40.33    2.19   1
   1   1 -11   40.31    2.60   1
   1   1 -11   41.48    2.12   1
  -1  -1  11   39.60    2.12   1
  -1  -1  11   43.87    2.19   1
  -1  -1  11   43.73    2.30   1
   0   1 -11   80.89    2.97   1
   0   1 -11   83.69    4.49   1
   0   1 -11   81.21    3.34   1
   0   1 -11   85.45    3.21   1
   0  -1  11   81.55    2.65   1
   0  -1  11   81.70    3.55   1
   0  -1  11   81.48    4.59   1
   0  -1  11   82.70    2.67   1
  -1   1 -11  106.00    7.84   1
  -1   1 -11   98.22    3.85   1
  -1   1 -11  108.57    5.75   1
  -1   1 -11   99.87    3.81   1
   1  -1  11   97.69    3.07   1
   1  -1  11   95.63    3.94   1
   1  -1  11   99.55    3.34   1
   1  -1  11   92.96    2.87   1
   1  -1  11   96.86    6.14   1
  -2   1 -11    3.76    2.09   1
  -2   1 -11    1.47    1.18   1
  -2   1 -11    0.59    2.09   1
  -2   1 -11    0.75    1.96   1
   2  -1  11    2.94    1.18   1
   2  -1  11    1.08    1.80   1
   2  -1  11    3.20    1.24   1
  -3   1 -11  123.35    7.44   1
  -3   1 -11  132.25    5.37   1
   3  -1  11  132.14    3.35   1
   3  -1  11  129.46    3.42   1
   3  -1  11  131.71    3.40   1
   3  -1  11  132.48    3.84   1
   3  -1  11  116.71    5.60   1
  -4   1 -11   71.91    5.07   1
   4  -1  11   74.16    3.33   1
   4  -1  11   73.41    4.47   1
   4  -1  11   72.27    2.83   1
   4  -1  11   68.14    2.76   1
   4  -1  11   73.30    2.83   1
  -5   1 -11    6.02    2.42   1
   5  -1  11   13.55    2.54   1
   5  -1  11   10.22    1.91   1
   5  -1  11   11.89    2.37   1
   5  -1  11    5.51    2.80   1
   5  -1  11   11.61    2.00   1
  -6   1 -11    9.74    3.15   1
   6  -1  11   13.12    3.72   1
   7   0 -11   68.96    5.84   1
   7   0 -11   85.25    6.47   1
  -7   0  11   90.60    6.19   1
   6   0 -11    8.92    3.39   1
   6   0 -11    8.87    3.40   1
  -6   0  11    6.79    3.06   1
   5   0 -11   56.00    4.10   1
   5   0 -11   63.28    4.16   1
  -5   0  11   64.06    3.38   1
  -5   0  11   57.38    4.44   1
   4   0 -11    5.73    2.52   1
   4   0 -11    5.70    2.52   1
  -4   0  11    2.88    2.10   1
  -4   0  11    4.32    2.28   1
   3   0 -11   41.82    2.78   1
   3   0 -11   40.71    2.49   1
   3   0 -11   37.31    2.72   1
  -3   0  11   36.50    2.60   1
  -3   0  11   42.86    2.78   1
   2   0 -11   -0.40    1.14   1
   2   0 -11    0.55    0.93   1
   2   0 -11    0.56    0.40   1
   2   0 -11    0.67    1.20   1
  -2   0  11    1.18    1.21   1
  -2   0  11    1.66    0.93   1
  -2   0  11    0.25    1.13   1
   1   0 -11    1.22    0.94   1
   1   0 -11    1.07    1.13   1
   1   0 -11    0.25    1.13   1
   1   0 -11    0.94    1.10   1
  -1   0  11    0.91    1.44   1
  -1   0  11    1.19    1.48   1
  -1   0  11    0.84    1.10   1
  -1   0  11    1.54    1.16   1
   0   0 -11    0.16    1.25   1
   0   0 -11    0.37    0.86   1
   0   0 -11    1.84    1.47   1
   0   0 -11    0.27    0.90   1
   0   0  11    1.39    0.85   1
   0   0  11    0.85    0.99   1
   0   0  11    0.00    1.71   1
   0   0  11    0.08    0.85   1
   0   0  11    0.56    0.85   1
  -1   0 -11   23.96    1.83   1
  -1   0 -11   24.72    1.74   1
   1   0  11   26.29    1.44   1
   1   0  11   25.45    1.46   1
   1   0  11   17.86    2.23   1
   1   0  11   26.19    1.04   1
   1   0  11   23.46    1.41   1
  -2   0 -11   38.18    2.38   1
  -2   0 -11   43.13    2.82   1
   2   0  11   35.11    2.68   1
   2   0  11   37.88    1.68   1
   2   0  11   36.74    1.84   1
  -3   0 -11    4.04    1.87   1
  -3   0 -11    2.44    2.05   1
   3   0  11    5.70    1.48   1
   3   0  11    7.12    1.51   1
   3   0  11    5.77    2.48   1
   3   0  11    4.80    1.45   1
   3   0  11    6.07    1.51   1
  -4   0 -11  198.58    8.57   1
   4   0  11  194.05    7.88   1
   4   0  11  190.55    7.34   1
   4   0  11  192.38    9.78   1
   4   0  11  196.87    8.13   1
   4   0  11  192.44    7.25   1
  -5   0 -11    0.21    2.17   1
   5   0  11   -0.35    2.49   1
  -6   0 -11   42.53    3.85   1
   6   0  11   34.64    4.02   1
   7  -1 -11    4.15    4.32   1
   7  -1 -11    4.08    4.38   1
  -7   1  11    3.52    4.27   1
   6  -1 -11   52.42    4.24   1
   6  -1 -11   48.94    4.15   1
  -6   1  11   51.00    3.42   1
  -6   1  11   47.63    4.24   1
   5  -1 -11    9.72    2.72   1
   5  -1 -11    7.54    2.54   1
  -5   1  11   10.71    2.22   1
  -5   1  11   11.18    2.83   1
   4  -1 -11   27.56    3.15   1
   4  -1 -11   25.69    2.65   1
  -4   1  11   19.14    1.68   1
  -4   1  11   30.63    2.98   1
  -4   1  11   26.38    2.53   1
   3  -1 -11  119.88    4.09   1
   3  -1 -11  123.62    7.29   1
   3  -1 -11  123.32    4.78   1
  -3   1  11  113.54    5.53   1
  -3   1  11  123.93    4.46   1
   2  -1 -11    0.28    0.64   1
   2  -1 -11   -1.00    1.20   1
   2  -1 -11   -1.00    1.17   1
   2  -1 -11   -0.61    0.72   1
  -2   1  11    0.28    0.69   1
  -2   1  11   -1.36    1.41   1
  -2   1  11    0.19    1.33   1
   1  -1 -11  245.94    8.09   1
   1  -1 -11  235.68    7.53   1
   1  -1 -11  254.59    8.75   1
  -1   1  11  244.36   11.65   1
  -1   1  11  265.59   19.44   1
  -1   1  11  256.28    8.47   1
  -1   1  11  252.77   10.39   1
   0  -1 -11   79.03    3.00   1
   0  -1 -11   68.91    3.23   1
   0  -1 -11   72.06    2.70   1
   0  -1 -11   74.35    4.39   1
   0   1  11   71.48    3.00   1
   0   1  11   71.05    2.72   1
   0   1  11   70.92    2.76   1
   0   1  11   68.88    2.91   1
   0   1  11   73.61    2.55   1
   0   1  11   70.87    4.17   1
  -1  -1 -11   -0.07    1.06   1
  -1  -1 -11   -0.34    0.91   1
   1   1  11   -0.47    1.30   1
   1   1  11   -0.64    0.84   1
   1   1  11    1.06    0.91   1
   1   1  11   -0.39    1.81   1
   1   1  11    0.37    0.54   1
   1   1  11   -0.39    1.25   1
  -2  -1 -11    4.34    1.79   1
  -2  -1 -11    2.68    1.66   1
   2   1  11    6.30    3.17   1
   2   1  11    4.60    1.11   1
   2   1  11    4.18    1.08   1
   2   1  11    5.32    0.85   1
   2   1  11    1.89    2.15   1
  -3  -1 -11   29.79    2.57   1
   3   1  11   20.47    3.41   1
   3   1  11   26.73    1.43   1
   3   1  11   30.37    1.46   1
   3   1  11   30.95    1.48   1
   3   1  11   28.56    1.51   1
  -4  -1 -11    0.63    2.49   1
   4   1  11    0.39    2.26   1
  -5  -1 -11    4.06    2.89   1
   5   1  11    0.69    3.19   1
  -6  -1 -11    3.75    3.57   1
   6   1  11    1.95    5.21   1
   7  -2 -11   -1.95    5.21   1
   7  -2 -11    3.39    4.00   1
  -7   2  11    2.43    3.20   1
  -7   2  11    2.27    3.87   1
   6  -2 -11   -0.82    3.10   1
   6  -2 -11   -1.50    4.57   1
  -6   2  11    0.88    2.81   1
  -6   2  11    2.29    4.74   1
   5  -2 -11    0.66    1.93   1
   5  -2 -11   -0.91    1.86   1
  -5   2  11    0.49    1.96   1
  -5   2  11   -0.05    2.63   1
   4  -2 -11   -0.76    1.69   1
   4  -2 -11   -1.48    2.32   1
  -4   2  11   -1.23    1.96   1
   3  -2 -11   10.07    1.10   1
   3  -2 -11   10.27    1.83   1
   3  -2 -11   12.60    1.86   1
  -3   2  11    7.76    1.03   1
  -3   2  11    9.46    1.18   1
  -3   2  11    7.71    1.03   1
  -3   2  11    8.61    2.03   1
   2  -2 -11    0.26    0.55   1
   2  -2 -11    1.81    1.70   1
   2  -2 -11    0.54    0.86   1
  -2   2  11   -0.65    1.61   1
  -2   2  11    0.27    0.81   1
  -2   2  11   -0.50    1.26   1
  -2   2  11    0.05    0.90   1
   1  -2 -11   32.62    2.19   1
   1  -2 -11   32.41    1.78   1
   1  -2 -11   32.30    2.14   1
  -1   2  11   30.71    2.24   1
  -1   2  11   32.33    6.05   1
  -1   2  11   31.87    1.89   1
  -1   2  11   29.49    2.14   1
  -1   2  11   31.05    2.21   1
   0  -2 -11  428.82   19.49   1
   0  -2 -11  433.60   14.41   1
   0   2  11  434.64   13.05   1
   0   2  11  452.98   12.60   1
   0   2  11  423.28   13.66   1
   0   2  11  458.07   14.05   1
  -1  -2 -11   50.00    2.49   1
  -1  -2 -11   47.95    2.85   1
   1   2  11   50.46    3.11   1
   1   2  11   47.62    3.22   1
   1   2  11   49.99    1.87   1
   1   2  11   50.10    3.29   1
   1   2  11   48.65    1.77   1
   1   2  11   46.36    2.94   1
  -2  -2 -11    7.72    1.86   1
  -2  -2 -11    9.96    2.02   1
   2   2  11    9.29    0.82   1
   2   2  11    4.64    2.38   1
   2   2  11    6.45    3.28   1
   2   2  11    8.11    0.87   1
   2   2  11   10.19    1.26   1
   2   2  11   11.34    0.90   1
   2   2  11    9.92    0.85   1
  -3  -2 -11   23.52    3.08   1
   3   2  11   16.73    3.83   1
   3   2  11   17.67    3.20   1
  -4  -2 -11   27.41    3.16   1
   4   2  11   23.19    3.67   1
   4   2  11   20.33    3.54   1
  -5  -2 -11    5.98    4.27   1
   5   2  11    8.10    3.98   1
   5   2  11   10.22    4.21   1
   7  -3 -11    8.47    4.93   1
   7  -3 -11    7.58    3.57   1
  -7   3  11    7.60    4.38   1
  -7   3  11    6.97    3.51   1
   6  -3 -11    2.67    4.33   1
   6  -3 -11    5.78    3.32   1
  -6   3  11    3.97    4.58   1
   5  -3 -11    7.20    3.39   1
   5  -3 -11    4.19    2.45   1
  -5   3  11    1.71    2.59   1
   4  -3 -11   30.72    3.43   1
   4  -3 -11   34.35    3.57   1
  -4   3  11   27.71    3.59   1
   3  -3 -11  111.56    4.13   1
   3  -3 -11  111.10    4.47   1
  -3   3  11  120.66    3.90   1
  -3   3  11  128.99    6.87   1
  -3   3  11  120.82    4.88   1
   2  -3 -11   65.17    3.58   1
   2  -3 -11   70.07    3.90   1
   2  -3 -11   70.91    3.47   1
  -2   3  11   63.60    3.06   1
  -2   3  11   62.67    2.54   1
  -2   3  11   67.30    3.19   1
  -2   3  11   71.39    3.71   1
   1  -3 -11  588.60   20.42   1
   1  -3 -11  610.86   19.83   1
  -1   3  11  643.24   11.21   1
  -1   3  11  666.91   25.64   1
  -1   3  11  671.85   27.45   1
  -1   3  11  622.65   28.68   1
  -1   3  11  631.89   15.90   1
  -1   3  11  658.76   26.15   1
   0  -3 -11    0.75    1.05   1
   0  -3 -11   -0.19    1.91   1
   0   3  11   -0.36    1.77   1
   0   3  11    1.02    1.08   1
   0   3  11    1.25    2.63   1
   0   3  11    0.47    1.08   1
   0   3  11   -0.61    2.72   1
  -1  -3 -11   40.87    2.46   1
  -1  -3 -11   40.79    3.12   1
   1   3  11   44.35    2.05   1
   1   3  11   40.52    3.95   1
   1   3  11   49.57    2.03   1
   1   3  11   51.08    1.96   1
   1   3  11   49.08    3.70   1
   1   3  11   47.45    2.23   1
   1   3  11   36.85    4.04   1
   1   3  11   45.72    3.53   1
  -2  -3 -11   11.85    2.43   1
  -2  -3 -11    5.95    2.38   1
  -2  -3 -11    9.42    1.33   1
   2   3  11   12.42    2.41   1
   2   3  11   10.23    2.88   1
   2   3  11    7.64    2.71   1
  -3  -3 -11    2.95    2.59   1
   3   3  11    0.36    3.32   1
   3   3  11    2.88    3.38   1
  -4  -3 -11    0.91    4.33   1
   4   3  11    1.17    3.97   1
   4   3  11    4.94    4.16   1
  -5  -3 -11    3.42    4.76   1
   5   3  11    1.97    5.14   1
   5   3  11    4.71    6.42   1
   7  -4 -11    2.96    4.00   1
   7  -4 -11    5.58    4.03   1
  -7   4  11   -2.49    3.97   1
   6  -4 -11    5.38    3.36   1
   6  -4 -11    5.96    4.59   1
  -6   4  11    3.81    5.11   1
   5  -4 -11   11.64    3.35   1
   5  -4 -11   12.43    2.71   1
  -5   4  11    4.94    3.91   1
   4  -4 -11   30.77    3.12   1
   4  -4 -11   27.52    3.06   1
  -4   4  11   26.29    3.31   1
   3  -4 -11    6.34    2.04   1
  -3   4  11    4.80    1.96   1
  -3   4  11    3.97    1.96   1
  -3   4  11    3.41    3.70   1
   2  -4 -11    5.82    1.83   1
   2  -4 -11    6.43    0.87   1
  -2   4  11    2.76    2.76   1
  -2   4  11    4.28    2.18   1
  -2   4  11    4.56    3.43   1
   1  -4 -11   11.55    1.98   1
  -1   4  11   10.90    3.11   1
  -1   4  11    8.96    2.43   1
  -1   4  11   10.37    2.43   1
   0  -4 -11   79.83    4.72   1
   0  -4 -11   78.89    3.62   1
   0   4  11   86.31    4.55   1
   0   4  11   81.78    4.55   1
   0   4  11   82.38    4.70   1
  -1  -4 -11    1.35    1.78   1
  -1  -4 -11    1.55    2.24   1
   1   4  11    4.11    4.54   1
   1   4  11    2.67    4.49   1
   1   4  11    1.62    3.46   1
  -2  -4 -11  100.00    5.42   1
  -2  -4 -11  100.51    6.64   1
  -2  -4 -11   89.49    7.13   1
   2   4  11  108.96    5.87   1
   2   4  11  103.98    4.97   1
   2   4  11   91.89    6.15   1
  -3  -4 -11   54.16    3.86   1
   3   4  11   52.26    5.44   1
   3   4  11   53.13    5.15   1
  -4  -4 -11    1.28    3.65   1
   4   4  11    1.48    6.48   1
   4   4  11    4.15    6.93   1
   6  -5 -11   54.02    4.33   1
   6  -5 -11   55.04    4.10   1
  -6   5  11   42.93    5.13   1
   5  -5 -11   57.14    3.76   1
   5  -5 -11   56.88    3.65   1
  -5   5  11   59.07    4.51   1
   4  -5 -11   -0.19    1.66   1
   4  -5 -11    0.79    1.66   1
  -4   5  11   -2.91    3.60   1
  -3   5  11   13.00    3.14   1
  -3   5  11    5.24    3.19   1
  -3   5  11    8.31    2.39   1
   2  -5 -11    3.90    2.11   1
  -2   5  11    0.57    2.62   1
  -2   5  11    1.75    2.87   1
  -2   5  11    0.16    2.91   1
   1  -5 -11    7.62    1.51   1
   1  -5 -11    3.34    1.94   1
  -1   5  11    0.71    3.80   1
  -1   5  11    4.20    2.82   1
  -1   5  11    7.99    2.85   1
   0  -5 -11   12.57    2.49   1
   0  -5 -11   14.30    1.86   1
   0   5  11   10.21    3.16   1
   0   5  11   10.99    2.84   1
   0   5  11    7.54    4.14   1
  -1  -5 -11    3.88    2.86   1
  -1  -5 -11    3.27    2.13   1
   1   5  11    1.45    4.12   1
   1   5  11    1.55    4.07   1
   1   5  11    1.45    3.87   1
  -2  -5 -11   -1.01    2.97   1
  -2  -5 -11   -0.64    2.34   1
   2   5  11    0.24    2.21   1
   2   5  11   -0.51    5.04   1
   2   5  11    0.00    4.88   1
  -3  -5 -11   38.62    3.87   1
  -3  -5 -11   43.36    3.94   1
   3   5  11   27.63    4.58   1
   5  -6 -11    3.54    2.78   1
   5  -6 -11    4.59    3.05   1
  -5   6  11    4.59    6.23   1
   4  -6 -11   18.30    2.87   1
   4  -6 -11   15.33    2.61   1
  -4   6  11   15.85    3.70   1
   3  -6 -11    6.74    2.70   1
  -3   6  11    1.58    4.74   1
  -3   6  11   -1.51    5.07   1
  -3   6  11    1.25    3.65   1
   2  -6 -11   19.39    2.55   1
  -2   6  11   11.59    4.16   1
  -2   6  11   18.85    3.44   1
   1  -6 -11   76.94    5.69   1
  -1   6  11   57.08    5.52   1
  -1   6  11   58.74    5.26   1
  -1   6  11   68.90    5.16   1
   0  -6 -11    1.48    3.74   1
   0   6  11    2.70    3.86   1
   0   6  11   -1.10    4.75   1
   0   6  11    2.89    3.99   1
  -1  -6 -11   47.32    3.20   1
  -1  -6 -11   47.10    3.87   1
   1   6  11   35.19    5.78   1
   1   6  11   45.61    4.60   1
   1   6  11   37.37    5.84   1
  -2  -6 -11   19.97    3.58   1
  -2  -6 -11   29.58    4.17   1
   2   6  11   11.72    4.47   1
   2   6  11    9.51    4.39   1
   2   6  11   19.61    3.40   1
   4  -7 -11   10.21    3.86   1
  -4   7  11   10.53    4.16   1
   3  -7 -11   -1.70    2.03   1
  -3   7  11   -0.93    4.11   1
  -3   7  11   -0.17    4.33   1
  -3   7  11   -0.12    2.84   1
   2  -7 -11    2.05    2.48   1
  -2   7  11   -1.63    5.59   1
  -2   7  11   -0.70    5.77   1
  -2   7  11    1.29    3.72   1
   1  -7 -11    1.10    2.39   1
  -1   7  11   -0.62    5.74   1
  -1   7  11   -0.54    4.94   1
  -1   7  11   -1.94    3.94   1
   0  -7 -11    9.28    3.22   1
   0   7  11    6.25    4.65   1
   0   7  11    6.90    4.79   1
   0   7  11   11.61    4.02   1
   1   8 -12   -0.12    3.54   1
  -1  -8  12   -0.74    3.09   1
  -1  -8  12   -0.82    3.11   1
  -1  -8  12    3.48    3.39   1
  -1  -8  12    0.58    3.09   1
  -1  -8  12    0.25    3.31   1
   0   8 -12   45.56    4.70   1
   0  -8  12   38.26    3.61   1
   0  -8  12   50.67    4.32   1
   0  -8  12   39.74    3.68   1
   0  -8  12   36.21    3.54   1
   0  -8  12   38.47    3.68   1
  -1   8 -12   30.19    4.05   1
  -1   8 -12   22.27    4.08   1
   1  -8  12   25.11    3.32   1
   1  -8  12   18.19    3.18   1
   1  -8  12   33.32    3.07   1
   1  -8  12   23.77    3.27   1
   1  -8  12   28.17    3.41   1
  -2   8 -12    3.21    3.45   1
  -2   8 -12    0.97    4.82   1
  -2   8 -12    1.86    4.75   1
   2  -8  12   -2.34    2.57   1
   2  -8  12   -2.82    2.82   1
   2  -8  12   -1.31    2.65   1
   2  -8  12    1.89    2.71   1
   2  -8  12   -0.40    2.45   1
  -3   8 -12   12.05    5.13   1
  -3   8 -12    5.60    4.08   1
   3  -8  12    4.63    3.46   1
   3  -8  12    3.40    3.49   1
   3  -8  12    4.45    3.52   1
   3  -8  12    7.30    3.90   1
  -3  -7  12    6.31    3.37   1
  -3  -7  12    3.85    4.05   1
  -3  -7  12    6.28    3.97   1
   2   7 -12    0.27    2.44   1
  -2  -7  12    1.71    2.55   1
  -2  -7  12   -1.79    2.30   1
  -2  -7  12   -0.33    2.36   1
   1   7 -12    0.87    3.50   1
  -1  -7  12    0.66    2.21   1
  -1  -7  12   -0.25    2.19   1
  -1  -7  12    1.09    2.26   1
   0   7 -12   -1.23    2.55   1
   0   7 -12    0.19    2.98   1
   0  -7  12   -0.21    2.44   1
   0  -7  12    1.72    1.96   1
   0  -7  12   -1.25    2.21   1
   0  -7  12   -1.77    2.21   1
   0  -7  12   -1.76    2.35   1
  -1   7 -12    5.12    4.55   1
  -1   7 -12    1.93    3.32   1
  -1   7 -12    8.70    4.38   1
   1  -7  12    8.90    2.90   1
   1  -7  12    2.49    2.68   1
   1  -7  12    9.15    3.91   1
   1  -7  12    5.93    4.01   1
   1  -7  12    6.57    3.03   1
  -2   7 -12   47.73    4.87   1
  -2   7 -12   42.28    3.83   1
   2  -7  12   49.98    3.74   1
   2  -7  12   39.59    3.43   1
   2  -7  12   44.22    3.69   1
   2  -7  12   46.72    3.60   1
   2  -7  12   45.87    3.36   1
  -3   7 -12   -0.45    3.01   1
  -3   7 -12    0.67    4.20   1
   3  -7  12    4.59    3.11   1
   3  -7  12    2.21    2.98   1
   3  -7  12    1.92    3.11   1
   3  -7  12    3.75    1.82   1
   3  -7  12    0.71    3.08   1
  -4   7 -12   41.00    4.97   1
  -4   7 -12   33.40    3.42   1
   4  -7  12   32.39    3.67   1
   4  -7  12   33.60    3.62   1
   4  -7  12   33.53    3.64   1
   4  -7  12   39.29    3.69   1
  -5   7 -12   19.79    5.20   1
  -5   7 -12    8.70    2.93   1
   5  -7  12   14.85    3.72   1
   5  -7  12   21.57    4.60   1
   5  -7  12   14.47    4.40   1
   5  -7  12   15.32    3.57   1
   4   6 -12    5.49    4.67   1
  -4  -6  12    8.05    3.92   1
  -4  -6  12    3.12    3.88   1
  -4  -6  12    4.55    3.92   1
   3   6 -12   52.72    6.34   1
   3   6 -12   47.66    4.37   1
  -3  -6  12   48.48    3.30   1
  -3  -6  12   45.84    3.79   1
  -3  -6  12   54.09    4.17   1
   2   6 -12   63.69    4.10   1
   2   6 -12   65.65    4.47   1
  -2  -6  12   75.28    4.51   1
  -2  -6  12   75.41    4.10   1
  -2  -6  12   60.88    4.08   1
   1   6 -12   29.39    2.89   1
   1   6 -12   18.55    3.14   1
   1   6 -12   25.50    3.57   1
  -1  -6  12   25.03    2.65   1
  -1  -6  12   25.96    3.17   1
  -1  -6  12   23.55    3.19   1
   0   6 -12  100.46    5.38   1
   0   6 -12  112.35    5.42   1
   0   6 -12  112.86    6.24   1
   0  -6  12   96.85    4.17   1
   0  -6  12  109.21    7.75   1
   0  -6  12   98.32    4.99   1
  -1   6 -12    8.92    3.71   1
  -1   6 -12    6.36    3.74   1
   1  -6  12    2.53    2.21   1
   1  -6  12    4.09    2.24   1
   1  -6  12    7.33    2.50   1
   1  -6  12    4.36    2.24   1
   1  -6  12    8.62    1.88   1
  -2   6 -12  104.45    8.02   1
  -2   6 -12  108.67    4.92   1
   2  -6  12  106.03    5.22   1
   2  -6  12   90.42    4.49   1
   2  -6  12   92.46    5.67   1
   2  -6  12   98.79    5.19   1
  -3   6 -12    0.91    2.13   1
  -3   6 -12    2.74    2.89   1
   3  -6  12    0.18    1.03   1
   3  -6  12   -0.10    1.94   1
   3  -6  12    3.05    2.02   1
   3  -6  12   -0.45    2.76   1
   3  -6  12    0.18    2.63   1
  -4   6 -12   23.39    2.95   1
  -4   6 -12   27.13    4.54   1
   4  -6  12   21.17    2.93   1
   4  -6  12   23.12    3.07   1
   4  -6  12   27.66    3.22   1
   4  -6  12   25.47    3.24   1
  -5   6 -12   14.91    4.75   1
  -5   6 -12    4.88    3.01   1
   5  -6  12    6.37    2.86   1
   5  -6  12    8.44    2.79   1
   5  -6  12   13.04    3.06   1
   5  -6  12   13.31    2.96   1
   5   5 -12    2.65    7.15   1
  -5  -5  12    0.49    2.75   1
  -5  -5  12    1.18    2.78   1
  -5  -5  12   -0.39    3.64   1
   4   5 -12   -2.44    2.87   1
  -4  -5  12   -1.60    2.42   1
  -4  -5  12    1.42    2.25   1
  -4  -5  12   -0.22    2.60   1
   3   5 -12   22.00    8.84   1
  -3  -5  12    9.26    5.87   1
   2   5 -12   64.00    4.10   1
   2   5 -12   72.57    4.23   1
  -2  -5  12   77.60    3.60   1
  -2  -5  12   80.31    4.32   1
  -2  -5  12   74.64    3.56   1
   1   5 -12    1.40    2.83   1
   1   5 -12    0.95    2.28   1
   1   5 -12    3.81    2.67   1
  -1  -5  12    2.34    1.92   1
  -1  -5  12    1.33    2.83   1
  -1  -5  12    3.58    2.93   1
   0   5 -12   39.34    3.24   1
   0   5 -12   38.11    2.92   1
   0  -5  12   37.14    2.67   1
   0  -5  12   44.16    2.56   1
   0  -5  12   32.81    2.63   1
  -1   5 -12    2.52    1.69   1
  -1   5 -12    3.17    1.37   1
  -1   5 -12    8.35    2.37   1
   1  -5  12    6.55    2.03   1
   1  -5  12    1.54    1.74   1
  -2   5 -12   31.05    2.76   1
   2  -5  12   25.32    2.51   1
   2  -5  12   29.15    2.51   1
   2  -5  12   33.32    1.87   1
   2  -5  12   28.62    3.01   1
   2  -5  12   25.55    2.90   1
  -3   5 -12   44.19    3.33   1
   3  -5  12   42.26    3.42   1
   3  -5  12   46.85    3.10   1
   3  -5  12   39.35    2.99   1
   3  -5  12   45.40    3.44   1
  -4   5 -12   41.75    4.05   1
   4  -5  12   44.95    3.36   1
   4  -5  12   53.13    3.87   1
   4  -5  12   54.59    3.51   1
   4  -5  12   55.62    3.82   1
  -5   5 -12   -0.22    1.85   1
  -5   5 -12    0.80    3.81   1
   5  -5  12    2.39    3.02   1
   5  -5  12    0.92    2.91   1
   5  -5  12   -3.15    3.15   1
   5  -5  12   -0.03    3.14   1
  -6   5 -12   42.20    5.84   1
   6  -5  12   42.90    4.61   1
   6  -5  12   39.96    4.33   1
   6  -5  12   40.61    4.40   1
   6  -5  12   41.02    4.49   1
   5   4 -12    4.37    3.82   1
  -5  -4  12   11.48    3.40   1
  -5  -4  12    8.13    2.45   1
  -5  -4  12   12.83    2.71   1
   4   4 -12   19.44    3.66   1
  -4  -4  12   20.12    2.53   1
  -4  -4  12   25.19    3.87   1
  -4  -4  12   20.30    2.53   1
   3   4 -12    4.06    3.44   1
   3   4 -12    1.31    3.05   1
   3   4 -12    4.13    2.00   1
  -3  -4  12    2.62    2.52   1
  -3  -4  12    3.21    2.23   1
  -3  -4  12    0.85    2.09   1
   2   4 -12   89.07    4.30   1
   2   4 -12   82.39    4.21   1
   2   4 -12   87.37    4.44   1
   2   4 -12   88.36    4.38   1
  -2  -4  12   82.06    3.66   1
  -2  -4  12   70.00    3.48   1
  -2  -4  12   82.25    4.17   1
   1   4 -12   37.91    3.02   1
   1   4 -12   44.28    3.23   1
   1   4 -12   32.67    3.12   1
   1   4 -12   42.01    2.62   1
   1   4 -12   35.43    2.75   1
  -1  -4  12   40.07    2.57   1
  -1  -4  12   34.86    2.46   1
  -1  -4  12   45.05    2.69   1
   0   4 -12    1.04    1.28   1
   0   4 -12    0.67    1.87   1
   0   4 -12    0.49    1.54   1
   0  -4  12   -0.38    1.00   1
   0  -4  12   -0.03    1.25   1
   0  -4  12   -0.76    1.15   1
   0  -4  12    0.46    1.46   1
  -1   4 -12    6.86    1.88   1
  -1   4 -12    9.52    2.02   1
  -1   4 -12    4.26    2.07   1
  -1   4 -12    6.44    1.93   1
   1  -4  12    7.00    2.35   1
   1  -4  12    9.24    2.46   1
   1  -4  12   10.90    1.51   1
  -2   4 -12   -0.73    1.02   1
  -2   4 -12    1.98    1.93   1
  -2   4 -12   -0.32    0.67   1
   2  -4  12   -0.23    1.36   1
   2  -4  12    0.27    1.33   1
   2  -4  12    0.83    0.53   1
   2  -4  12    0.05    1.30   1
   2  -4  12   -0.40    1.32   1
   3  -4  12    7.74    2.42   1
   3  -4  12    4.99    1.72   1
   3  -4  12    8.66    2.40   1
   3  -4  12    6.52    2.46   1
  -4   4 -12   22.62    2.48   1
   4  -4  12   25.96    2.55   1
   4  -4  12   26.34    2.50   1
   4  -4  12   22.20    2.53   1
   4  -4  12   26.22    2.59   1
  -5   4 -12    6.75    2.49   1
   5  -4  12    5.92    2.49   1
   5  -4  12    4.98    3.66   1
   5  -4  12    4.53    2.43   1
   5  -4  12    6.58    3.60   1
  -6   4 -12    1.72    2.27   1
  -6   4 -12    4.84    4.63   1
   6  -4  12    2.01    2.46   1
   6  -4  12    1.03    2.33   1
   6  -4  12    1.54    2.47   1
   6  -4  12    0.61    2.48   1
   6   3 -12   26.82    4.64   1
  -6  -3  12   34.24    4.01   1
  -6  -3  12   31.12    4.19   1
  -6  -3  12   34.12    3.97   1
   5   3 -12    2.05    4.20   1
  -5  -3  12   -0.83    1.77   1
  -5  -3  12    0.91    2.37   1
  -5  -3  12   -0.89    1.82   1
   4   3 -12   -1.80    3.20   1
   4   3 -12   -0.29    3.36   1
  -4  -3  12    0.19    2.22   1
  -4  -3  12    2.71    2.29   1
  -4  -3  12    1.80    2.78   1
   3   3 -12   44.88    3.07   1
   3   3 -12   44.72    3.60   1
   3   3 -12   41.95    3.54   1
  -3  -3  12   40.93    3.09   1
  -3  -3  12   44.88    3.13   1
  -3  -3  12   44.96    3.18   1
   2   3 -12   94.49    3.75   1
   2   3 -12   87.87    4.01   1
   2   3 -12   87.27    5.08   1
   2   3 -12  103.80    4.69   1
   2   3 -12   89.97    4.14   1
  -2  -3  12   93.89    3.54   1
  -2  -3  12   99.20    3.65   1
  -2  -3  12   97.84    4.07   1
   1   3 -12  117.10    4.27   1
   1   3 -12  120.39    6.50   1
   1   3 -12  115.67    4.14   1
   1   3 -12  113.99    7.01   1
   1   3 -12  115.76    4.24   1
  -1  -3  12  121.45    4.67   1
  -1  -3  12  117.08    5.34   1
  -1  -3  12  107.42    3.80   1
   0   3 -12  633.16   19.67   1
   0   3 -12  624.46   28.33   1
   0   3 -12  619.78   20.47   1
   0   3 -12  645.46   26.22   1
   0   3 -12  636.19   36.17   1
   0  -3  12  576.84   25.55   1
   0  -3  12  610.48   40.18   1
   0  -3  12  619.06   19.51   1
   0  -3  12  611.09   20.69   1
  -1   3 -12    1.55    1.49   1
  -1   3 -12    0.09    0.93   1
  -1   3 -12    0.81    1.52   1
  -1   3 -12    0.62    1.52   1
   1  -3  12    0.56    2.08   1
   1  -3  12    2.12    0.90   1
   1  -3  12    0.77    2.01   1
   1  -3  12    2.48    0.93   1
  -2   3 -12  119.40    8.08   1
  -2   3 -12  125.00    6.55   1
  -2   3 -12  122.40    7.95   1
   2  -3  12  128.92    4.64   1
   2  -3  12  119.51    4.12   1
   2  -3  12  124.30    3.99   1
   2  -3  12  124.00    8.12   1
   2  -3  12  117.34    4.03   1
  -3   3 -12  119.71    5.11   1
  -3   3 -12  114.37    4.59   1
   3  -3  12  116.08    4.73   1
   3  -3  12  106.80    4.28   1
   3  -3  12  115.29    3.96   1
   3  -3  12  115.95    4.94   1
  -4   3 -12   -0.41    2.15   1
   4  -3  12    0.32    1.64   1
   4  -3  12   -0.55    1.59   1
   4  -3  12    1.58    1.66   1
   4  -3  12   -0.64    1.51   1
  -5   3 -12   16.44    3.15   1
   5  -3  12   24.89    3.07   1
   5  -3  12   24.03    3.00   1
   5  -3  12   23.20    2.62   1
   5  -3  12   26.21    2.76   1
  -6   3 -12    0.40    4.32   1
   6  -3  12    2.57    2.90   1
   6  -3  12    1.98    2.77   1
   6  -3  12    1.39    3.83   1
   6  -3  12    0.79    4.02   1
   6   2 -12   13.98    4.22   1
  -6  -2  12   14.01    3.70   1
   5   2 -12   12.88    3.35   1
   5   2 -12   14.68    3.56   1
  -5  -2  12   16.69    3.22   1
   4   2 -12   -1.66    2.50   1
   4   2 -12    1.25    2.56   1
  -4  -2  12    0.49    2.04   1
  -4  -2  12    0.49    1.30   1
   3   2 -12    0.16    1.80   1
   3   2 -12   -0.27    0.27   1
   3   2 -12    0.03    3.04   1
   3   2 -12    0.36    0.53   1
   3   2 -12    0.05    0.52   1
   3   2 -12   -0.16    1.26   1
   3   2 -12   -0.52    0.52   1
   3   2 -12    0.28    2.25   1
  -3  -2  12   -0.64    1.59   1
  -3  -2  12   -0.92    1.45   1
  -3  -2  12    0.71    1.66   1
  -3  -2  12   -1.07    1.75   1
   2   2 -12   43.78    2.63   1
   2   2 -12   49.94    2.00   1
   2   2 -12   50.10    3.42   1
   2   2 -12   47.38    3.03   1
   2   2 -12   48.43    3.11   1
   2   2 -12   44.73    2.11   1
  -2  -2  12   44.38    2.63   1
  -2  -2  12   43.75    2.72   1
  -2  -2  12   45.50    2.78   1
   1   2 -12   14.64    2.21   1
   1   2 -12   14.59    1.87   1
   1   2 -12   18.99    1.89   1
   1   2 -12   17.05    2.19   1
   1   2 -12   11.40    1.94   1
  -1  -2  12   16.85    1.94   1
  -1  -2  12   14.71    1.77   1
  -1  -2  12   14.91    1.74   1
   0   2 -12  111.72    5.48   1
   0   2 -12  115.45    6.10   1
   0   2 -12  119.15    5.11   1
   0   2 -12  127.76    6.38   1
   0   2 -12  123.27    7.30   1
   0  -2  12  109.69    7.07   1
   0  -2  12  112.90    3.41   1
   0  -2  12  112.73    3.47   1
   0  -2  12  106.81    5.67   1
  -1   2 -12   84.77    3.30   1
  -1   2 -12   82.90    4.60   1
   1  -2  12   84.14    3.81   1
   1  -2  12   78.97    3.64   1
   1  -2  12   83.36    3.45   1
  -2   2 -12   10.17    2.25   1
  -2   2 -12    9.41    1.63   1
   2  -2  12    8.79    1.60   1
   2  -2  12    9.24    1.58   1
  -3   2 -12   80.32    3.42   1
  -3   2 -12   89.62    3.63   1
   3  -2  12   89.80    3.53   1
   3  -2  12   80.93    3.25   1
   3  -2  12   83.60    3.27   1
   3  -2  12   87.35    3.06   1
  -4   2 -12   41.83    2.20   1
  -4   2 -12   44.94    3.04   1
   4  -2  12   49.82    2.57   1
   4  -2  12   48.41    2.60   1
   4  -2  12   49.13    2.64   1
   4  -2  12   48.25    2.60   1
  -5   2 -12   21.90    2.72   1
   5  -2  12   27.43    2.48   1
   5  -2  12   24.60    2.46   1
   5  -2  12   22.08    2.32   1
   5  -2  12   23.49    2.44   1
  -6   2 -12   50.23    4.36   1
   6  -2  12   46.89    3.93   1
   6  -2  12   47.57    4.20   1
   7   1 -12   -0.51    4.41   1
  -7  -1  12   -3.16    6.26   1
   6   1 -12   24.47    4.02   1
   6   1 -12   20.95    4.02   1
  -6  -1  12   22.95    3.90   1
   5   1 -12   35.34    3.79   1
   5   1 -12   47.29    4.71   1
  -5  -1  12   46.44    3.97   1
   4   1 -12  384.26   12.86   1
   4   1 -12  380.06   12.79   1
  -4  -1  12  395.16   28.14   1
  -4  -1  12  374.02   17.93   1
   3   1 -12   66.49    3.21   1
   3   1 -12   57.52    7.99   1
   3   1 -12   76.68    3.92   1
   3   1 -12   69.57    3.81   1
  -3  -1  12   74.95    3.92   1
  -3  -1  12   74.09    3.02   1
   2   1 -12    0.35    1.25   1
   2   1 -12   -0.90    1.38   1
   2   1 -12    0.16    0.44   1
   2   1 -12    0.30    0.44   1
   2   1 -12    0.12    1.26   1
  -2  -1  12    0.16    1.56   1
  -2  -1  12   -0.83    1.01   1
   1   1 -12  296.93    9.45   1
   1   1 -12  287.13    8.49   1
   1   1 -12  300.33   15.50   1
   1   1 -12  304.93   13.03   1
   1   1 -12  286.42   10.72   1
  -1  -1  12  282.60    7.20   1
  -1  -1  12  285.80    7.09   1
  -1  -1  12  284.88   10.18   1
  -1  -1  12  289.43   10.43   1
   0   1 -12   22.26    2.19   1
   0   1 -12   20.55    1.71   1
   0   1 -12   18.59    1.91   1
   0   1 -12   17.88    1.76   1
   0  -1  12   18.33    1.86   1
   0  -1  12   22.12    1.43   1
   0  -1  12   20.05    1.86   1
  -1   1 -12   64.13    2.87   1
  -1   1 -12   63.44    2.59   1
   1  -1  12   64.02    2.31   1
   1  -1  12   58.08    2.46   1
   1  -1  12   58.99    2.12   1
   1  -1  12   59.03    2.85   1
   1  -1  12   64.69    2.53   1
  -2   1 -12  118.11    6.19   1
  -2   1 -12  114.89    5.07   1
   2  -1  12  114.69    3.44   1
   2  -1  12  118.12    3.32   1
   2  -1  12  111.81    5.57   1
  -3   1 -12   -0.33    1.06   1
  -3   1 -12   -0.08    1.42   1
   3  -1  12    0.58    1.01   1
   3  -1  12   -0.89    1.65   1
   3  -1  12    0.76    0.99   1
   3  -1  12   -1.01    1.01   1
   3  -1  12    0.56    0.96   1
  -4   1 -12   38.24    2.92   1
  -4   1 -12   35.73    2.81   1
   4  -1  12   37.52    2.35   1
   4  -1  12   38.72    2.47   1
   4  -1  12   34.79    2.38   1
   4  -1  12   33.39    3.28   1
   4  -1  12   38.18    2.49   1
  -5   1 -12    0.85    3.00   1
   5  -1  12    0.53    3.40   1
   5  -1  12    2.56    2.18   1
   5  -1  12   -2.07    2.07   1
   5  -1  12   -0.16    2.07   1
   5  -1  12   -0.56    2.01   1
  -6   1 -12   -0.50    2.52   1
   6  -1  12   -0.77    4.24   1
   7   0 -12    7.95    6.83   1
   7   0 -12    4.87    4.65   1
  -7   0  12    6.06    4.55   1
   6   0 -12    6.35    3.65   1
   6   0 -12   10.77    3.88   1
  -6   0  12    3.25    3.16   1
   5   0 -12   -0.12    2.93   1
   5   0 -12    6.72    4.35   1
  -5   0  12    1.89    3.72   1
  -5   0  12    0.37    1.83   1
   4   0 -12    0.91    2.47   1
   4   0 -12   -0.53    2.41   1
  -4   0  12   -1.50    2.44   1
  -4   0  12   -1.28    2.07   1
   3   0 -12    2.57    2.11   1
   3   0 -12    3.48    1.66   1
   3   0 -12   -0.36    2.76   1
  -3   0  12    1.10    2.53   1
  -3   0  12    3.02    1.95   1
   2   0 -12    8.84    2.22   1
   2   0 -12   10.35    0.86   1
   2   0 -12    9.31    1.77   1
   2   0 -12   10.95    1.48   1
  -2   0  12   10.12    1.70   1
  -2   0  12    7.38    2.82   1
   1   0 -12    6.28    1.16   1
   1   0 -12    5.19    1.63   1
   1   0 -12    3.27    1.47   1
   1   0 -12    9.39    1.60   1
  -1   0  12    3.62    1.09   1
  -1   0  12    5.61    1.80   1
  -1   0  12    7.21    2.05   1
   0   0 -12    6.95    1.40   1
   0   0 -12    7.96    1.76   1
   0   0 -12   11.72    1.54   1
   0   0 -12    9.23    1.92   1
   0   0  12    7.69    0.99   1
   0   0  12    6.86    1.81   1
   0   0  12    6.54    1.32   1
   0   0  12    9.28    1.35   1
  -1   0 -12    1.06    1.20   1
  -1   0 -12   -0.36    1.51   1
   1   0  12    0.92    0.53   1
   1   0  12    1.37    0.42   1
   1   0  12    1.14    0.95   1
   1   0  12    0.39    1.84   1
   1   0  12    0.50    0.89   1
  -2   0 -12   38.21    2.29   1
  -2   0 -12   37.94    2.44   1
   2   0  12   37.83    2.87   1
   2   0  12   33.90    1.97   1
   2   0  12   35.16    1.97   1
  -3   0 -12  205.83   10.64   1
  -3   0 -12  208.20    9.68   1
   3   0  12  204.74    6.81   1
   3   0  12  204.33    6.04   1
   3   0  12  198.86    5.06   1
   3   0  12  200.09    7.66   1
   3   0  12  193.52    6.85   1
  -4   0 -12   53.16    3.67   1
  -4   0 -12   59.54    3.50   1
   4   0  12   63.28    2.40   1
   4   0  12   63.26    2.74   1
   4   0  12   57.66    4.19   1
   4   0  12   66.25    3.19   1
   4   0  12   61.35    2.66   1
  -5   0 -12   75.39    4.25   1
   5   0  12   73.77    5.74   1
  -6   0 -12   30.58    3.64   1
   6   0  12   31.66    4.96   1
   7  -1 -12   63.44    5.26   1
   7  -1 -12   71.65    5.43   1
  -7   1  12   61.39    5.91   1
   6  -1 -12   -0.22    4.80   1
   6  -1 -12    1.62    3.44   1
  -6   1  12    1.05    4.61   1
  -6   1  12   -2.07    2.55   1
   5  -1 -12  133.64    5.95   1
   5  -1 -12  141.05    5.82   1
  -5   1  12  153.84    6.49   1
  -5   1  12  146.49    7.69   1
   4  -1 -12   22.31    2.67   1
   4  -1 -12   14.78    2.40   1
  -4   1  12   18.91    2.43   1
  -4   1  12   27.71    3.41   1
   3  -1 -12    0.54    1.39   1
   3  -1 -12    0.25    1.50   1
   3  -1 -12   -0.14    1.59   1
  -3   1  12    0.51    1.49   1
  -3   1  12   -0.61    1.49   1
  -3   1  12    1.87    2.44   1
   2  -1 -12   73.92    2.46   1
   2  -1 -12   66.98    3.99   1
   2  -1 -12   66.32    2.41   1
   2  -1 -12   75.14    3.34   1
  -2   1  12   66.62    4.72   1
  -2   1  12   77.01    4.14   1
  -2   1  12   73.82    4.29   1
   1  -1 -12   49.05    2.40   1
   1  -1 -12   47.67    2.05   1
   1  -1 -12   48.59    2.77   1
  -1   1  12   46.51    2.48   1
  -1   1  12   40.73    2.49   1
  -1   1  12   50.80    3.04   1
   0  -1 -12  357.23    9.96   1
   0  -1 -12  398.58   15.98   1
   0  -1 -12  382.04   11.46   1
   0  -1 -12  392.82   22.26   1
   0   1  12  374.71    8.60   1
   0   1  12  384.31   14.29   1
   0   1  12  364.13   10.61   1
   0   1  12  365.57   10.22   1
   0   1  12  372.58   10.18   1
   0   1  12  367.17   19.51   1
  -1  -1 -12    1.12    1.22   1
  -1  -1 -12   -0.83    1.53   1
   1   1  12   -0.78    1.46   1
   1   1  12    0.81    0.76   1
   1   1  12    0.36    0.57   1
   1   1  12    0.31    2.08   1
   1   1  12    0.15    0.70   1
   1   1  12    1.17    2.26   1
  -2  -1 -12   14.00    2.01   1
  -2  -1 -12   12.30    1.93   1
   2   1  12   14.70    0.94   1
   2   1  12    7.40    2.82   1
   2   1  12    8.52    2.37   1
   2   1  12   10.93    1.20   1
   2   1  12   12.64    1.23   1
  -3  -1 -12    2.31    1.96   1
  -3  -1 -12    4.45    2.18   1
   3   1  12    3.01    2.79   1
   3   1  12    3.53    1.22   1
   3   1  12    6.50    4.03   1
   3   1  12    3.05    1.25   1
   3   1  12    3.04    1.22   1
   3   1  12    5.86    1.38   1
  -4  -1 -12   -0.25    1.85   1
   4   1  12   -0.92    2.44   1
  -5  -1 -12   10.21    3.08   1
   5   1  12   10.67    4.67   1
   7  -2 -12    6.97    3.80   1
   7  -2 -12    7.48    4.09   1
  -7   2  12   -0.79    4.24   1
  -7   2  12    6.92    4.18   1
   6  -2 -12    4.09    3.57   1
   6  -2 -12    6.62    3.70   1
  -6   2  12    2.79    3.54   1
  -6   2  12    1.98    3.18   1
   5  -2 -12   -0.57    3.86   1
   5  -2 -12    3.67    2.90   1
  -5   2  12   -1.23    3.76   1
  -5   2  12    4.03    4.17   1
   4  -2 -12   14.19    2.50   1
   4  -2 -12   13.67    2.47   1
  -4   2  12    7.53    2.37   1
   3  -2 -12   25.66    2.68   1
   3  -2 -12   25.40    2.66   1
   3  -2 -12   25.33    1.63   1
  -3   2  12   23.13    1.39   1
  -3   2  12   21.19    1.94   1
  -3   2  12   24.59    1.44   1
  -3   2  12   24.95    3.25   1
   2  -2 -12   21.84    1.56   1
   2  -2 -12   18.93    1.32   1
   2  -2 -12   20.58    2.05   1
  -2   2  12   20.94    2.48   1
  -2   2  12   19.66    1.84   1
  -2   2  12   18.13    1.80   1
  -2   2  12   16.97    1.58   1
   1  -2 -12  345.06   10.23   1
   1  -2 -12  358.69   14.59   1
   1  -2 -12  361.83   10.24   1
  -1   2  12  364.39   10.76   1
  -1   2  12  349.80   14.31   1
  -1   2  12  362.54   14.79   1
  -1   2  12  356.06   14.79   1
  -1   2  12  362.67   18.14   1
   0  -2 -12  263.72   10.13   1
   0  -2 -12  254.65    8.79   1
   0   2  12  258.55   11.66   1
   0   2  12  263.55   12.15   1
   0   2  12  250.64   12.32   1
   0   2  12  276.12    7.47   1
   0   2  12  267.21   10.17   1
   0   2  12  265.87    9.13   1
  -1  -2 -12   61.87    3.06   1
  -1  -2 -12   58.84    3.08   1
   1   2  12   57.94    2.65   1
   1   2  12   59.89    2.52   1
   1   2  12   54.99    3.37   1
   1   2  12   51.57    3.72   1
   1   2  12   52.76    3.92   1
   1   2  12   58.43    3.63   1
  -2  -2 -12   96.14    5.62   1
  -2  -2 -12   87.56    4.79   1
   2   2  12   90.26    4.00   1
   2   2  12   90.41    5.13   1
   2   2  12   92.27    3.23   1
   2   2  12   89.86    2.86   1
   2   2  12   87.32    4.96   1
   2   2  12   92.41    3.72   1
  -3  -2 -12    2.84    2.08   1
  -3  -2 -12    2.99    2.29   1
   3   2  12    2.20    3.87   1
   3   2  12    2.88    2.85   1
  -4  -2 -12   16.35    2.92   1
   4   2  12   14.75    4.37   1
   4   2  12   12.80    3.82   1
  -5  -2 -12   45.98    4.15   1
   5   2  12   43.21    4.92   1
   7  -3 -12   13.05    3.88   1
   7  -3 -12    7.92    3.77   1
  -7   3  12    7.10    3.33   1
  -7   3  12   11.03    4.37   1
   6  -3 -12   61.35    4.43   1
   6  -3 -12   50.98    4.15   1
  -6   3  12   53.79    4.66   1
  -6   3  12   43.62    4.55   1
   5  -3 -12   19.21    2.90   1
   5  -3 -12   12.73    2.75   1
  -5   3  12   13.35    3.91   1
   4  -3 -12   76.00    4.11   1
   4  -3 -12   71.66    4.11   1
  -4   3  12   74.24    4.24   1
   3  -3 -12   18.57    1.46   1
   3  -3 -12   17.17    2.69   1
  -3   3  12   17.64    2.79   1
  -3   3  12   12.65    1.63   1
  -3   3  12   15.89    2.00   1
   2  -3 -12   19.71    2.46   1
   2  -3 -12   21.62    2.55   1
   2  -3 -12   24.39    1.51   1
  -2   3  12   20.00    2.10   1
  -2   3  12   21.65    2.17   1
  -2   3  12   20.16    3.26   1
   1  -3 -12   44.36    2.15   1
   1  -3 -12   40.43    2.64   1
  -1   3  12   38.55    3.15   1
  -1   3  12   33.89    3.15   1
  -1   3  12   42.64    3.29   1
   0  -3 -12   43.22    2.45   1
   0  -3 -12   36.03    2.92   1
   0   3  12   38.67    2.60   1
   0   3  12   33.58    3.01   1
   0   3  12   36.88    3.23   1
   0   3  12   46.73    2.45   1
   0   3  12   39.75    3.71   1
  -1  -3 -12    5.48    1.93   1
  -1  -3 -12    9.47    2.29   1
   1   3  12   10.21    1.03   1
   1   3  12    5.72    2.65   1
   1   3  12   14.43    2.77   1
   1   3  12    6.09    2.76   1
   1   3  12   10.45    1.06   1
  -2  -3 -12   -0.42    1.77   1
  -2  -3 -12   -0.36    1.76   1
   2   3  12    1.70    2.87   1
   2   3  12    0.39    2.61   1
   2   3  12    0.33    2.23   1
  -3  -3 -12    8.88    2.53   1
  -3  -3 -12   15.88    2.79   1
   3   3  12   10.98    3.47   1
   3   3  12    8.69    3.45   1
  -4  -3 -12    2.06    2.92   1
   4   3  12    0.21    3.32   1
   4   3  12    1.83    3.44   1
   7  -4 -12   13.95    3.88   1
   7  -4 -12   21.40    5.14   1
  -7   4  12   18.99    5.33   1
   6  -4 -12    1.41    2.40   1
   6  -4 -12   -1.31    2.40   1
  -6   4  12   -1.75    2.72   1
   5  -4 -12   26.93    3.62   1
   5  -4 -12   27.45    3.13   1
  -5   4  12   26.95    3.69   1
   4  -4 -12   29.01    3.26   1
   4  -4 -12   32.62    3.35   1
  -4   4  12   28.32    3.42   1
   3  -4 -12    2.03    2.11   1
  -3   4  12    0.20    1.44   1
  -3   4  12    0.03    2.06   1
  -3   4  12   -0.17    1.48   1
   2  -4 -12   68.10    3.04   1
   2  -4 -12   70.00    3.39   1
  -2   4  12   57.77    3.97   1
  -2   4  12   66.81    3.93   1
  -2   4  12   76.20    4.25   1
   1  -4 -12   68.34    3.65   1
   1  -4 -12   65.32    3.35   1
  -1   4  12   50.40    3.61   1
  -1   4  12   66.79    4.36   1
  -1   4  12   53.96    4.39   1
   0  -4 -12    0.90    2.02   1
   0  -4 -12    3.69    2.09   1
   0   4  12    4.69    3.21   1
   0   4  12    0.35    2.54   1
   0   4  12    0.96    2.92   1
  -1  -4 -12  192.60   11.33   1
  -1  -4 -12  181.09    8.08   1
   1   4  12  184.00    8.71   1
   1   4  12  192.20   12.48   1
   1   4  12  192.73   14.05   1
  -2  -4 -12   18.13    2.69   1
  -2  -4 -12   14.70    2.77   1
   2   4  12   15.10    3.85   1
   2   4  12    8.57    3.69   1
   2   4  12   13.63    3.00   1
  -3  -4 -12   52.37    4.37   1
  -3  -4 -12   51.76    3.95   1
   3   4  12   46.65    4.84   1
   3   4  12   44.70    4.88   1
  -4  -4 -12   25.03    4.70   1
   4   4  12   18.17    6.25   1
   4   4  12   25.39    6.89   1
   6  -5 -12    5.11    4.85   1
   6  -5 -12    5.77    4.73   1
  -6   5  12   -0.42    4.17   1
   5  -5 -12    1.17    2.50   1
   5  -5 -12    1.06    2.53   1
  -5   5  12    2.45    4.93   1
   4  -5 -12    1.52    2.30   1
   4  -5 -12    0.77    2.16   1
  -4   5  12    1.38    3.20   1
   3  -5 -12    2.49    2.28   1
  -3   5  12   -0.28    4.35   1
  -3   5  12    0.78    3.45   1
  -3   5  12    1.03    2.40   1
   2  -5 -12    2.84    2.17   1
  -2   5  12    2.71    2.93   1
  -2   5  12    1.53    3.12   1
  -2   5  12    1.75    2.87   1
   1  -5 -12    6.75    1.80   1
   1  -5 -12    4.30    2.31   1
  -1   5  12    3.24    3.27   1
  -1   5  12    2.98    3.17   1
  -1   5  12    1.64    4.40   1
   0  -5 -12   -1.70    2.79   1
   0  -5 -12    0.36    1.37   1
   0   5  12    1.17    5.60   1
   0   5  12    3.24    3.29   1
   0   5  12    2.26    4.38   1
  -1  -5 -12    1.20    2.24   1
  -1  -5 -12    0.46    3.90   1
   1   5  12    0.98    2.99   1
   1   5  12    1.17    5.73   1
   1   5  12    3.06    5.76   1
  -2  -5 -12   74.46    4.50   1
  -2  -5 -12   85.34    4.61   1
   2   5  12   62.87    5.56   1
   2   5  12   70.20    6.03   1
   5  -6 -12   42.45    4.08   1
   5  -6 -12   47.43    4.40   1
  -5   6  12   38.95    4.63   1
   4  -6 -12   17.22    2.88   1
   4  -6 -12   15.72    2.70   1
  -4   6  12   13.87    4.87   1
   3  -6 -12   64.25    4.21   1
  -3   6  12   36.03    7.51   1
  -3   6  12   52.70    4.87   1
   2  -6 -12    6.93    3.29   1
  -2   6  12    4.20    4.52   1
  -2   6  12    7.57    4.90   1
  -2   6  12    4.02    4.61   1
   1  -6 -12    5.72    2.75   1
  -1   6  12    4.50    5.46   1
  -1   6  12    7.80    3.96   1
  -1   6  12    1.89    5.49   1
   0  -6 -12   36.87    4.01   1
   0   6  12   33.43    5.57   1
   0   6  12   46.84    5.11   1
   0   6  12   29.57    4.40   1
  -1  -6 -12   11.34    3.21   1
   1   6  12   11.36    4.38   1
   1   6  12    8.29    4.48   1
   1   6  12    6.36    4.38   1
  -3   7  12    3.62    6.46   1
  -2   7  12   17.45    4.01   1
  -2   7  12   22.09    6.70   1
  -2   7  12   27.14    5.24   1
   0   8 -13   13.90    4.33   1
   0  -8  13    5.76    3.41   1
   0  -8  13   10.61    4.21   1
   0  -8  13    2.48    3.37   1
   0  -8  13    2.66    3.53   1
   0  -8  13    7.55    3.43   1
  -1   8 -13   11.13    4.21   1
  -1   8 -13   25.50    5.37   1
   1  -8  13   10.31    4.14   1
   1  -8  13    9.64    4.19   1
   1  -8  13    9.72    3.08   1
   1  -8  13   13.12    3.42   1
  -2   8 -13    5.81    5.90   1
  -2   8 -13    6.25    4.52   1
   2  -8  13    7.09    2.37   1
   2  -8  13    0.55    3.13   1
   2  -8  13    4.93    4.93   1
   2  -8  13    0.52    4.58   1
   2  -8  13    3.77    3.35   1
   2   7 -13    5.75    4.38   1
  -2  -7  13   -0.13    4.25   1
  -2  -7  13    0.29    4.37   1
  -2  -7  13    1.21    4.25   1
   1   7 -13    3.61    2.78   1
  -1  -7  13    0.32    2.42   1
  -1  -7  13    0.09    2.60   1
  -1  -7  13   -0.41    2.66   1
   0   7 -13   58.34    4.77   1
   0   7 -13   64.61    4.77   1
   0  -7  13   55.05    4.20   1
   0  -7  13   61.67    4.20   1
   0  -7  13   48.92    4.14   1
   0  -7  13   54.68    4.10   1
   0  -7  13   51.44    4.10   1
  -1   7 -13   10.12    3.24   1
  -1   7 -13   15.77    3.30   1
  -1   7 -13   20.44    3.58   1
   1  -7  13   11.94    2.86   1
   1  -7  13   12.16    2.73   1
   1  -7  13   11.29    2.73   1
   1  -7  13    7.87    2.78   1
   1  -7  13   16.93    2.73   1
  -2   7 -13   23.81    5.06   1
  -2   7 -13   11.39    4.38   1
   2  -7  13   17.42    2.11   1
   2  -7  13   16.19    3.18   1
   2  -7  13   13.19    3.02   1
   2  -7  13    8.73    3.62   1
   2  -7  13   11.55    3.86   1
  -3   7 -13   32.06    4.41   1
  -3   7 -13   24.34    4.06   1
   3  -7  13   22.98    3.10   1
   3  -7  13   25.90    3.17   1
   3  -7  13   27.85    4.15   1
   3  -7  13   30.41    4.11   1
  -4   7 -13   -2.58    4.71   1
  -4   7 -13   -0.39    2.50   1
   4  -7  13    1.15    4.17   1
   4  -7  13   -0.20    2.93   1
   4  -7  13   -0.55    4.04   1
   4  -7  13   -0.99    3.02   1
   3   6 -13    4.70    3.79   1
  -3  -6  13    4.47    3.03   1
  -3  -6  13    2.12    3.47   1
  -3  -6  13    5.26    3.76   1
   2   6 -13   14.70    3.17   1
   2   6 -13   22.39    3.27   1
  -2  -6  13   16.98    2.73   1
  -2  -6  13   19.87    3.42   1
  -2  -6  13   15.96    2.61   1
   1   6 -13   -0.57    2.43   1
   1   6 -13    1.11    4.50   1
   1   6 -13    2.10    3.12   1
  -1  -6  13    1.62    2.40   1
  -1  -6  13    1.50    2.04   1
  -1  -6  13    0.81    2.28   1
   0   6 -13    6.48    3.06   1
   0   6 -13    8.30    2.54   1
   0   6 -13    8.68    2.55   1
   0  -6  13    5.84    1.97   1
   0  -6  13    5.82    2.46   1
   0  -6  13    4.86    2.43   1
  -1   6 -13   45.90    3.73   1
  -1   6 -13   50.92    3.98   1
   1  -6  13   36.87    3.10   1
   1  -6  13   37.71    3.03   1
   1  -6  13   46.94    2.64   1
   1  -6  13   45.34    3.28   1
   1  -6  13   47.36    3.28   1
  -2   6 -13   28.98    3.73   1
  -2   6 -13   16.84    2.79   1
   2  -6  13   22.86    2.03   1
   2  -6  13   19.15    2.62   1
   2  -6  13   18.96    2.62   1
   2  -6  13   18.04    2.62   1
   2  -6  13   19.79    2.64   1
  -3   6 -13    0.03    3.37   1
  -3   6 -13    2.98    3.73   1
   3  -6  13    1.20    2.36   1
   3  -6  13    1.34    2.34   1
   3  -6  13   -0.50    2.31   1
   3  -6  13    1.22    2.42   1
  -4   6 -13    0.18    6.44   1
  -4   6 -13    2.99    2.77   1
   4  -6  13    8.93    3.20   1
   4  -6  13    7.48    4.22   1
   4  -6  13    1.05    4.13   1
   4  -6  13    3.69    2.90   1
  -5   6 -13    0.69    7.18   1
  -5   6 -13    0.60    3.74   1
   5  -6  13    3.95    3.38   1
   5  -6  13    3.89    3.17   1
   5  -6  13    2.87    3.20   1
   5  -6  13    4.49    3.41   1
   4   5 -13    9.28    4.16   1
  -4  -5  13    6.99    3.19   1
  -4  -5  13    5.91    3.54   1
  -4  -5  13    6.02    3.45   1
   3   5 -13   13.00    3.34   1
  -3  -5  13   16.05    2.51   1
  -3  -5  13   19.56    3.05   1
  -3  -5  13   15.97    2.58   1
   2   5 -13   39.54    4.18   1
   2   5 -13   43.13    2.97   1
  -2  -5  13   42.15    3.02   1
  -2  -5  13   46.74    3.33   1
  -2  -5  13   37.27    2.91   1
   1   5 -13   39.65    3.06   1
   1   5 -13   26.36    3.79   1
   1   5 -13   29.03    2.83   1
  -1  -5  13   31.23    2.65   1
  -1  -5  13   35.30    2.79   1
  -1  -5  13   34.13    2.65   1
   0   5 -13   50.68    3.29   1
   0   5 -13   56.26    4.19   1
   0   5 -13   48.31    3.24   1
   0  -5  13   60.05    3.29   1
   0  -5  13   57.74    3.51   1
   0  -5  13   61.78    3.38   1
  -1   5 -13   16.35    3.05   1
   1  -5  13   19.40    2.84   1
   1  -5  13   22.99    2.89   1
   1  -5  13   22.50    1.92   1
  -2   5 -13   56.88    3.52   1
   2  -5  13   54.50    3.29   1
   2  -5  13   56.82    3.34   1
   2  -5  13   56.57    3.25   1
   2  -5  13   61.52    3.45   1
   2  -5  13   55.30    3.69   1
  -3   5 -13   15.23    2.97   1
   3  -5  13   16.07    2.57   1
   3  -5  13   14.13    2.47   1
   3  -5  13   13.50    2.44   1
   3  -5  13   21.18    2.70   1
  -4   5 -13  105.34    7.02   1
   4  -5  13  100.04    5.07   1
   4  -5  13  105.24    5.03   1
   4  -5  13  103.04    5.23   1
   4  -5  13  110.47    5.43   1
   5  -5  13   40.70    3.62   1
   5  -5  13   44.50    3.57   1
   5  -5  13   47.73    3.64   1
   5  -5  13   45.22    3.73   1
  -6   5 -13    3.92    6.42   1
  -6   5 -13    0.16    3.10   1
   6  -5  13   -2.09    3.44   1
   6  -5  13    4.39    3.78   1
   6  -5  13    3.17    3.73   1
   6  -5  13    2.23    3.79   1
   5   4 -13    1.25    4.11   1
  -5  -4  13    4.40    2.64   1
  -5  -4  13    3.74    2.53   1
  -5  -4  13    8.71    3.60   1
   4   4 -13    4.78    4.13   1
  -4  -4  13   -2.52    2.52   1
  -4  -4  13    2.29    4.19   1
  -4  -4  13    0.23    2.55   1
   3   4 -13    3.04    4.36   1
   3   4 -13    1.26    3.89   1
  -3  -4  13   -0.49    2.77   1
  -3  -4  13   -0.93    2.60   1
  -3  -4  13    1.38    2.15   1
   2   4 -13  181.92    6.48   1
   2   4 -13  175.10    7.65   1
   2   4 -13  166.82    7.72   1
   2   4 -13  167.06    6.57   1
  -2  -4  13  167.26    6.42   1
  -2  -4  13  168.37    5.65   1
  -2  -4  13  183.14    7.64   1
   1   4 -13    5.58    2.94   1
   1   4 -13   12.62    3.07   1
   1   4 -13   10.99    2.13   1
   1   4 -13    8.49    3.07   1
  -1  -4  13   12.31    2.13   1
  -1  -4  13   10.81    2.08   1
  -1  -4  13   13.50    2.02   1
   0   4 -13   -1.56    1.96   1
   0   4 -13    0.78    2.08   1
   0   4 -13    0.43    1.56   1
   0  -4  13    0.87    2.01   1
   0  -4  13   -0.05    0.94   1
   0  -4  13   -0.60    1.94   1
  -1   4 -13    5.60    2.83   1
  -1   4 -13    2.13    1.44   1
  -1   4 -13    4.82    1.65   1
   1  -4  13    7.40    1.42   1
   1  -4  13    4.91    1.90   1
   1  -4  13    4.37    1.96   1
   1  -4  13    5.70    1.39   1
  -2   4 -13    0.89    1.08   1
  -2   4 -13    0.56    0.78   1
  -2   4 -13    0.12    1.38   1
   2  -4  13    1.59    2.03   1
   2  -4  13    0.66    0.68   1
   2  -4  13   -0.22    1.99   1
   2  -4  13   -0.83    1.32   1
   2  -4  13    0.59    1.42   1
  -3   4 -13   22.26    2.73   1
   3  -4  13   32.66    2.64   1
   3  -4  13   32.32    2.69   1
   3  -4  13   29.01    2.60   1
   3  -4  13   31.21    2.55   1
  -4   4 -13   20.86    2.57   1
   4  -4  13   25.81    3.21   1
   4  -4  13   23.55    3.19   1
   4  -4  13   18.55    2.45   1
   4  -4  13   20.77    2.90   1
  -5   4 -13    3.03    2.31   1
   5  -4  13    7.44    2.80   1
   5  -4  13    9.98    2.68   1
   5  -4  13    7.44    2.62   1
   5  -4  13   11.33    2.92   1
  -6   4 -13    2.42    3.78   1
   6  -4  13    9.00    4.42   1
   6  -4  13   15.48    4.61   1
   6  -4  13    6.41    3.13   1
   6  -4  13   10.92    3.37   1
   6   3 -13    8.60    5.28   1
  -6  -3  13    7.28    3.14   1
  -6  -3  13    4.83    3.11   1
  -6  -3  13    8.30    4.11   1
   5   3 -13   40.72    4.58   1
  -5  -3  13   47.18    4.27   1
  -5  -3  13   34.95    3.70   1
  -5  -3  13   50.54    4.07   1
   4   3 -13    0.63    3.46   1
   4   3 -13    6.78    3.92   1
  -4  -3  13    3.10    2.96   1
  -4  -3  13    1.91    3.49   1
  -4  -3  13    1.15    3.42   1
   3   3 -13   89.54    4.81   1
   3   3 -13   92.83    4.66   1
   3   3 -13   93.13    5.08   1
   3   3 -13   92.17    4.66   1
  -3  -3  13   88.78    3.80   1
  -3  -3  13  100.37    4.34   1
  -3  -3  13   93.79    4.34   1
   2   3 -13   41.02    3.55   1
   2   3 -13   48.44    3.67   1
   2   3 -13   44.43    2.58   1
   2   3 -13   50.23    3.69   1
   2   3 -13   44.26    3.33   1
   2   3 -13   47.64    3.91   1
  -2  -3  13   42.30    2.78   1
  -2  -3  13   43.14    3.13   1
  -2  -3  13   46.12    2.85   1
   1   3 -13   77.34    3.62   1
   1   3 -13   73.64    3.60   1
   1   3 -13   71.61    3.84   1
   1   3 -13   79.91    3.40   1
  -1  -3  13   74.79    3.66   1
  -1  -3  13   72.22    3.13   1
  -1  -3  13   70.58    3.10   1
   0   3 -13    0.28    1.39   1
   0   3 -13    0.49    1.48   1
   0   3 -13    0.56    1.48   1
   0   3 -13   -1.52    2.35   1
   0  -3  13   -0.87    1.61   1
   0  -3  13    0.50    1.64   1
   0  -3  13   -0.43    0.93   1
  -1   3 -13   80.58    4.11   1
  -1   3 -13   72.01    3.40   1
  -1   3 -13   77.48    4.26   1
   1  -3  13   77.80    4.84   1
   1  -3  13   73.21    3.10   1
   1  -3  13   74.63    3.08   1
   1  -3  13   73.95    4.86   1
  -2   3 -13   -0.17    0.82   1
  -2   3 -13    0.22    0.77   1
  -2   3 -13   -0.03    1.24   1
   2  -3  13   -0.54    1.20   1
   2  -3  13   -0.49    1.22   1
   2  -3  13    0.98    1.28   1
   2  -3  13    1.36    1.29   1
  -3   3 -13   -0.26    2.62   1
  -3   3 -13    1.14    1.54   1
   3  -3  13    5.00    2.06   1
   3  -3  13    3.50    2.55   1
   3  -3  13    5.00    2.09   1
   3  -3  13    3.33    2.52   1
  -4   3 -13    8.80    2.26   1
   4  -3  13   10.30    2.21   1
   4  -3  13   11.51    2.89   1
   4  -3  13   12.19    2.24   1
   4  -3  13   14.56    2.95   1
  -5   3 -13   24.42    3.43   1
   5  -3  13   27.39    2.86   1
   5  -3  13   29.31    2.69   1
   5  -3  13   26.31    2.62   1
   5  -3  13   27.45    2.76   1
  -6   3 -13    0.41    2.88   1
   6  -3  13   -2.00    2.50   1
   6  -3  13    0.55    2.41   1
   6  -3  13   -0.65    2.37   1
   6  -3  13   -0.65    2.50   1
   6   2 -13   28.13    4.77   1
   6   2 -13   25.81    4.39   1
  -6  -2  13   30.77    4.11   1
   5   2 -13   -1.30    3.50   1
   5   2 -13    0.37    3.59   1
  -5  -2  13    0.81    2.97   1
   4   2 -13   17.77    3.17   1
   4   2 -13   22.93    3.26   1
  -4  -2  13   22.32    2.93   1
   3   2 -13    0.31    1.87   1
   3   2 -13   -3.15    3.29   1
   3   2 -13    1.89    1.89   1
   3   2 -13    0.58    0.33   1
   3   2 -13   -0.36    3.18   1
   3   2 -13    0.53    0.39   1
  -3  -2  13    2.28    2.50   1
  -3  -2  13   -0.17    1.76   1
  -3  -2  13    3.65    2.56   1
  -3  -2  13   -0.06    1.61   1
   2   2 -13    7.04    2.13   1
   2   2 -13    4.02    2.45   1
   2   2 -13    5.82    1.30   1
   2   2 -13    5.50    3.31   1
   2   2 -13    5.38    0.99   1
   2   2 -13    5.32    1.30   1
  -2  -2  13    4.84    1.81   1
  -2  -2  13    2.42    1.81   1
  -2  -2  13    4.32    1.97   1
   1   2 -13    7.62    1.95   1
   1   2 -13   10.35    1.87   1
   1   2 -13   12.25    1.90   1
   1   2 -13    9.50    1.87   1
  -1  -2  13   10.10    1.90   1
  -1  -2  13    9.96    1.90   1
  -1  -2  13   12.79    2.15   1
   0   2 -13   99.45    4.64   1
   0   2 -13   98.68    3.81   1
   0   2 -13  103.17    8.00   1
   0   2 -13  106.57    8.30   1
   0   2 -13   96.21    4.53   1
   0  -2  13   94.28    4.36   1
   0  -2  13   97.07    3.96   1
   0  -2  13   99.83    5.14   1
  -1   2 -13    1.18    1.57   1
  -1   2 -13    2.16    1.31   1
   1  -2  13   -0.82    2.06   1
   1  -2  13    3.04    0.69   1
   1  -2  13   -0.46    2.03   1
  -2   2 -13   38.85    2.22   1
  -2   2 -13   43.22    2.65   1
   2  -2  13   47.91    2.45   1
   2  -2  13   48.00    2.42   1
  -3   2 -13   45.39    3.00   1
  -3   2 -13   41.70    2.17   1
   3  -2  13   42.54    2.37   1
   3  -2  13   46.92    2.50   1
   3  -2  13   46.21    2.53   1
   3  -2  13   45.07    2.39   1
  -4   2 -13   38.74    3.03   1
  -4   2 -13   31.79    2.11   1
   4  -2  13   35.48    2.42   1
   4  -2  13   43.32    2.65   1
   4  -2  13   41.24    2.49   1
   4  -2  13   33.83    2.40   1
  -5   2 -13  115.30    6.58   1
   5  -2  13  119.74    6.53   1
   5  -2  13  117.29    7.22   1
   5  -2  13  112.02    6.28   1
   5  -2  13  113.60    5.44   1
  -6   2 -13   -1.20    3.56   1
   7   1 -13    8.46    6.73   1
   7   1 -13    4.12    5.01   1
  -7  -1  13    4.83    6.41   1
   6   1 -13   17.01    3.91   1
   6   1 -13   22.94    4.17   1
  -6  -1  13   16.81    3.72   1
   5   1 -13   71.57    4.78   1
   5   1 -13   68.06    4.76   1
  -5  -1  13   66.99    5.00   1
   4   1 -13    7.23    2.78   1
   4   1 -13    7.25    2.83   1
  -4  -1  13    8.28    2.49   1
  -4  -1  13    8.68    1.88   1
   3   1 -13   27.18    2.82   1
   3   1 -13   25.75    2.89   1
   3   1 -13   22.81    2.82   1
  -3  -1  13   31.95    2.82   1
  -3  -1  13   23.10    2.13   1
   2   1 -13   45.79    3.05   1
   2   1 -13   45.61    2.55   1
   2   1 -13   41.63    2.86   1
   2   1 -13   44.99    2.92   1
   2   1 -13   49.19    3.58   1
  -2  -1  13   49.24    2.68   1
  -2  -1  13   49.85    2.72   1
  -2  -1  13   50.94    2.79   1
  -2  -1  13   54.10    2.88   1
   1   1 -13    1.41    1.33   1
   1   1 -13   -0.10    1.30   1
   1   1 -13    0.13    1.07   1
   1   1 -13   -0.08    1.27   1
   1   1 -13    0.79    1.30   1
  -1  -1  13    0.00    1.44   1
  -1  -1  13   -0.72    1.69   1
  -1  -1  13    1.85    1.74   1
  -1  -1  13    1.41    2.08   1
   0   1 -13  190.31    9.80   1
   0   1 -13  182.81   10.44   1
   0   1 -13  192.72    6.96   1
   0   1 -13  193.36    7.30   1
   0  -1  13  181.52    5.50   1
   0  -1  13  181.79    6.95   1
   0  -1  13  172.60    5.95   1
  -1   1 -13   28.62    2.14   1
   1  -1  13   20.75    2.42   1
   1  -1  13   25.05    1.80   1
   1  -1  13   29.95    1.05   1
   1  -1  13   27.15    1.03   1
   1  -1  13   28.20    1.89   1
  -2   1 -13    3.74    1.39   1
  -2   1 -13    6.86    2.39   1
   2  -1  13    2.80    1.97   1
   2  -1  13    7.46    1.88   1
   2  -1  13   10.22    1.97   1
  -3   1 -13    1.52    1.59   1
  -3   1 -13    1.98    2.09   1
   3  -1  13    1.69    2.11   1
   3  -1  13    4.04    2.02   1
   3  -1  13    1.46    1.88   1
   3  -1  13    0.76    2.45   1
   3  -1  13    2.98    2.02   1
  -4   1 -13   -0.38    1.63   1
  -4   1 -13   -0.22    1.87   1
   4  -1  13    0.48    1.11   1
   4  -1  13   -0.03    1.21   1
   4  -1  13    0.87    1.16   1
   4  -1  13    0.93    1.31   1
   4  -1  13    1.51    2.98   1
  -5   1 -13    1.24    2.90   1
  -5   1 -13    2.44    2.73   1
   5  -1  13    2.76    3.38   1
  -6   1 -13    1.95    3.13   1
   6  -1  13    2.71    3.63   1
   7   0 -13   16.38    4.42   1
   7   0 -13   11.79    4.37   1
  -7   0  13   13.66    4.34   1
   6   0 -13    1.88    4.62   1
   6   0 -13    0.80    3.08   1
  -6   0  13    1.10    4.28   1
   5   0 -13    1.86    3.27   1
   5   0 -13    2.88    4.81   1
  -5   0  13    2.62    2.91   1
  -5   0  13   -0.88    2.09   1
   4   0 -13   62.76    4.02   1
   4   0 -13   57.81    4.33   1
  -4   0  13   62.57    4.18   1
  -4   0  13   54.90    3.57   1
   3   0 -13   11.46    2.75   1
   3   0 -13   13.20    2.32   1
   3   0 -13   15.33    2.27   1
  -3   0  13   15.18    2.70   1
  -3   0  13   13.75    2.12   1
   2   0 -13   37.29    2.40   1
   2   0 -13   38.09    2.73   1
   2   0 -13   38.93    2.14   1
   2   0 -13   34.35    3.01   1
  -2   0  13   37.68    2.79   1
  -2   0  13   36.13    2.75   1
   1   0 -13    0.48    0.93   1
   1   0 -13    0.03    1.19   1
   1   0 -13    0.93    1.66   1
   1   0 -13   -0.20    1.04   1
  -1   0  13    0.32    1.05   1
  -1   0  13   -0.32    1.25   1
  -1   0  13    1.55    1.12   1
  -1   0  13   -0.20    0.75   1
  -1   0  13    0.57    1.44   1
   0   0 -13   10.24    2.19   1
   0   0 -13    6.85    1.84   1
   0   0 -13   13.48    2.00   1
   0   0 -13    8.85    2.05   1
   0   0  13   11.42    1.52   1
   0   0  13   11.04    2.14   1
   0   0  13   14.21    1.28   1
   0   0  13   12.21    1.41   1
   0   0  13    8.88    1.41   1
  -1   0 -13  341.59   12.36   1
  -1   0 -13  339.68   16.12   1
   1   0  13  323.62   19.01   1
   1   0  13  309.97   13.01   1
   1   0  13  338.24   10.69   1
   1   0  13  334.37   10.11   1
   1   0  13  340.24   11.25   1
  -2   0 -13   75.71    3.40   1
  -2   0 -13   84.35    4.53   1
   2   0  13   81.81    2.63   1
   2   0  13   80.53    2.74   1
   2   0  13   80.19    3.93   1
  -3   0 -13    5.72    2.09   1
  -3   0 -13    4.08    1.85   1
   3   0  13    6.44    1.40   1
   3   0  13    5.91    1.37   1
   3   0  13    8.17    1.46   1
   3   0  13    3.40    2.62   1
   3   0  13    6.38    1.34   1
  -4   0 -13   27.25    2.90   1
   4   0  13   28.51    3.52   1
  -5   0 -13    4.31    4.24   1
  -5   0 -13    1.61    2.48   1
   5   0  13    4.89    3.85   1
  -6   0 -13    6.71    5.41   1
   6   0  13    5.59    3.97   1
   7  -1 -13    2.53    5.37   1
   7  -1 -13   -2.19    5.30   1
  -7   1  13    0.47    3.56   1
   6  -1 -13   14.91    3.49   1
   6  -1 -13   14.22    3.59   1
  -6   1  13   12.83    3.42   1
  -6   1  13   14.79    2.75   1
   5  -1 -13    3.88    3.27   1
   5  -1 -13    1.82    3.17   1
  -5   1  13   -0.24    2.53   1
  -5   1  13    4.42    3.24   1
   4  -1 -13   17.23    3.21   1
   4  -1 -13   15.12    3.15   1
  -4   1  13   18.26    2.81   1
  -4   1  13   15.17    2.43   1
   3  -1 -13    0.00    1.54   1
   3  -1 -13    1.82    1.82   1
   3  -1 -13   -0.03    1.03   1
  -3   1  13    1.03    1.84   1
  -3   1  13    1.06    1.65   1
   2  -1 -13   36.82    2.60   1
   2  -1 -13   33.31    2.44   1
   2  -1 -13   33.98    1.92   1
   2  -1 -13   37.01    1.59   1
  -2   1  13   30.73    2.71   1
  -2   1  13   29.45    2.62   1
   1  -1 -13   10.37    1.76   1
   1  -1 -13   10.13    1.76   1
   1  -1 -13   13.17    1.68   1
  -1   1  13   10.30    2.74   1
  -1   1  13   14.37    1.58   1
  -1   1  13    7.49    1.61   1
   0  -1 -13  367.86   10.61   1
   0  -1 -13  359.98   10.95   1
   0   1  13  357.78   14.22   1
   0   1  13  373.30   11.48   1
   0   1  13  371.20   13.56   1
   0   1  13  378.59   18.03   1
   0   1  13  364.56   15.33   1
   0   1  13  362.37   14.84   1
  -1  -1 -13    0.47    1.37   1
  -1  -1 -13   -0.24    1.27   1
   1   1  13    0.56    1.15   1
   1   1  13   -0.53    1.69   1
   1   1  13    0.00    0.43   1
   1   1  13   -1.16    1.63   1
   1   1  13    0.60    1.87   1
   1   1  13   -0.24    1.10   1
  -2  -1 -13   -0.48    1.88   1
  -2  -1 -13   -0.33    1.47   1
   2   1  13   -0.84    2.04   1
   2   1  13    0.22    0.78   1
   2   1  13   -0.16    0.79   1
   2   1  13   -1.27    2.87   1
  -3  -1 -13   39.19    3.31   1
  -3  -1 -13   33.05    3.06   1
   3   1  13   36.76    2.84   1
   3   1  13   26.99    3.99   1
   3   1  13   41.56    3.22   1
  -4  -1 -13   14.77    2.89   1
  -4  -1 -13    6.66    3.02   1
   4   1  13    9.60    3.34   1
  -5  -1 -13   21.91    3.25   1
   5   1  13   25.14    4.10   1
   7  -2 -13    0.90    4.57   1
   7  -2 -13   -2.58    3.08   1
  -7   2  13   -1.39    4.72   1
  -7   2  13   -1.07    3.96   1
   6  -2 -13   28.55    4.45   1
   6  -2 -13   24.65    3.64   1
  -6   2  13   26.09    3.83   1
  -6   2  13   19.59    3.18   1
   5  -2 -13   29.91    3.36   1
   5  -2 -13   28.55    3.29   1
  -5   2  13   26.20    3.17   1
  -5   2  13   29.22    3.52   1
   4  -2 -13   42.23    3.71   1
   4  -2 -13   38.76    3.14   1
  -4   2  13   43.33    3.43   1
   3  -2 -13   80.66    4.64   1
   3  -2 -13   90.22    4.53   1
   3  -2 -13   87.15    4.23   1
  -3   2  13   90.43    4.66   1
   2  -2 -13   91.70    3.74   1
   2  -2 -13   93.26    6.35   1
   2  -2 -13   93.82    4.36   1
  -2   2  13   95.50    5.66   1
  -2   2  13   94.17    4.72   1
  -2   2  13   92.08    4.64   1
   1  -2 -13   22.80    1.92   1
   1  -2 -13   19.82    1.97   1
   1  -2 -13   17.61    2.41   1
  -1   2  13   19.63    2.46   1
  -1   2  13   15.52    3.09   1
  -1   2  13   13.20    2.22   1
   0  -2 -13    7.25    1.86   1
   0  -2 -13   10.17    2.01   1
   0   2  13   10.45    1.52   1
   0   2  13    4.64    2.81   1
   0   2  13    9.88    2.55   1
   0   2  13    9.82    1.37   1
   0   2  13    5.61    2.03   1
   0   2  13    9.60    1.35   1
  -1  -2 -13    9.81    1.96   1
  -1  -2 -13   12.60    2.19   1
   1   2  13    6.87    3.08   1
   1   2  13   11.14    2.48   1
   1   2  13   13.84    1.20   1
   1   2  13    9.63    2.51   1
   1   2  13   15.22    1.25   1
  -2  -2 -13   24.62    2.81   1
  -2  -2 -13   22.32    2.46   1
   2   2  13   19.35    3.00   1
   2   2  13   21.38    3.07   1
  -3  -2 -13   39.33    3.38   1
  -3  -2 -13   39.42    3.45   1
   3   2  13   40.10    4.03   1
   3   2  13   35.43    4.44   1
  -4  -2 -13   26.01    3.25   1
  -4  -2 -13   25.28    3.06   1
   4   2  13   18.44    3.81   1
   4   2  13   15.57    3.56   1
  -5  -2 -13   -2.54    4.18   1
   5   2  13   -3.41    3.41   1
   7  -3 -13  115.21    8.22   1
   7  -3 -13  101.81    8.66   1
  -7   3  13   94.72    6.36   1
  -7   3  13  119.31    9.33   1
   6  -3 -13   23.19    4.35   1
   6  -3 -13   23.07    3.61   1
  -6   3  13   20.19    3.54   1
  -6   3  13   25.86    3.94   1
   5  -3 -13   63.94    4.26   1
   5  -3 -13   59.83    4.22   1
  -5   3  13   60.94    4.28   1
   4  -3 -13   62.64    3.79   1
   4  -3 -13   71.06    4.20   1
  -4   3  13   66.34    4.73   1
   3  -3 -13    2.03    1.91   1
   3  -3 -13    1.91    1.18   1
   3  -3 -13    1.47    2.68   1
  -3   3  13    0.56    2.57   1
   2  -3 -13   14.89    1.30   1
   2  -3 -13   15.56    2.14   1
  -2   3  13   13.47    2.74   1
  -2   3  13   13.46    2.02   1
  -2   3  13   13.04    2.41   1
   1  -3 -13  103.59    4.37   1
   1  -3 -13  102.18    4.67   1
  -1   3  13   97.88    5.80   1
  -1   3  13   95.87    6.38   1
  -1   3  13  104.69    5.18   1
   0  -3 -13    2.84    1.58   1
   0  -3 -13    5.22    2.91   1
   0   3  13    1.15    2.57   1
   0   3  13    3.83    1.22   1
   0   3  13    6.11    1.35   1
   0   3  13    0.17    2.51   1
   0   3  13    2.80    2.74   1
  -1  -3 -13    4.46    2.25   1
  -1  -3 -13    7.05    2.25   1
   1   3  13    3.81    3.81   1
   1   3  13    5.60    2.61   1
   1   3  13    2.56    3.84   1
  -2  -3 -13    6.75    3.20   1
  -2  -3 -13   11.82    2.38   1
   2   3  13    7.34    3.27   1
   2   3  13    5.68    3.14   1
  -3  -3 -13    1.82    2.79   1
  -3  -3 -13    2.94    3.88   1
   3   3  13    2.79    4.04   1
   3   3  13    4.00    4.00   1
  -4  -3 -13   63.01    4.53   1
  -4  -3 -13   62.43    4.46   1
   4   3  13   49.22    5.17   1
   4   3  13   53.14    5.34   1
   6  -4 -13   43.10    4.74   1
   6  -4 -13   46.75    4.90   1
  -6   4  13   28.95    4.08   1
   5  -4 -13    3.80    3.15   1
   5  -4 -13    0.91    2.99   1
  -5   4  13    0.33    3.67   1
   4  -4 -13   13.61    3.32   1
   4  -4 -13   16.13    3.43   1
  -4   4  13   13.14    4.27   1
   3  -4 -13    9.87    2.27   1
  -3   4  13   10.87    3.17   1
   2  -4 -13    3.74    2.85   1
   2  -4 -13    5.24    1.09   1
  -2   4  13    3.23    4.32   1
  -2   4  13    3.55    3.49   1
  -2   4  13    2.88    2.56   1
   1  -4 -13    8.65    2.95   1
   1  -4 -13   11.32    1.52   1
  -1   4  13    2.55    2.52   1
  -1   4  13    6.68    2.72   1
  -1   4  13    6.50    2.90   1
   0  -4 -13  137.38    9.08   1
   0  -4 -13  138.44    7.82   1
   0   4  13  135.59    7.11   1
   0   4  13  131.52    7.26   1
   0   4  13  126.78    7.67   1
  -1  -4 -13    1.29    1.88   1
  -1  -4 -13   -0.25    2.31   1
   1   4  13   16.90    6.19   1
   1   4  13    1.63    4.74   1
   1   4  13    0.68    3.44   1
  -2  -4 -13   61.45    3.65   1
  -2  -4 -13   52.16    3.83   1
   2   4  13   46.59    3.98   1
   2   4  13   54.57    5.23   1
   2   4  13   44.74    5.38   1
  -3  -4 -13    1.57    4.62   1
  -3  -4 -13    1.64    4.39   1
   3   4  13    8.10    5.08   1
   3   4  13    1.05    6.29   1
   6  -5 -13    2.14    3.01   1
   6  -5 -13    0.41    2.87   1
  -6   5  13   -0.43    3.85   1
   5  -5 -13    0.92    2.38   1
   5  -5 -13   -1.82    3.23   1
  -5   5  13    0.08    3.12   1
   4  -5 -13   -0.28    2.15   1
   4  -5 -13   -0.69    2.23   1
  -4   5  13    0.82    3.11   1
   3  -5 -13   10.28    2.86   1
  -3   5  13    7.06    3.73   1
   2  -5 -13    4.45    3.19   1
  -2   5  13   -0.35    2.90   1
  -2   5  13    8.15    5.09   1
  -2   5  13    0.74    4.09   1
   1  -5 -13    0.13    1.80   1
  -1   5  13   -0.15    2.67   1
  -1   5  13   -0.48    3.63   1
  -1   5  13    0.20    2.62   1
   0  -5 -13    2.62    3.24   1
   0  -5 -13    5.51    1.77   1
   0   5  13    2.65    3.45   1
   0   5  13    6.39    3.24   1
   0   5  13    3.47    3.68   1
  -1  -5 -13   31.22    3.47   1
  -1  -5 -13   37.17    2.92   1
   1   5  13   34.16    3.78   1
   1   5  13   30.39    4.43   1
   1   5  13   27.53    4.43   1
  -2  -5 -13    1.92    4.91   1
  -2  -5 -13    3.56    2.96   1
   2   5  13   -1.26    4.78   1
   2   5  13    0.95    4.60   1
   2   5  13    6.09    3.80   1
   4  -6 -13   49.52    3.88   1
   4  -6 -13   50.85    4.28   1
  -4   6  13   43.12    4.60   1
   3  -6 -13    9.75    2.97   1
  -3   6  13   -0.03    3.52   1
   2  -6 -13   11.09    2.73   1
  -2   6  13    3.73    4.41   1
  -2   6  13    3.76    3.22   1
  -2   6  13    7.57    3.62   1
   1  -6 -13    4.37    4.04   1
  -1   6  13    1.73    4.13   1
  -1   6  13   -1.53    4.03   1
  -1   6  13    1.83    4.26   1
   0  -6 -13   47.04    5.19   1
   0   6  13   44.47    4.97   1
   0   6  13   49.02    5.24   1
   0   6  13   56.65    5.50   1
  -2  -7  14   -0.52    2.54   1
  -2  -7  14   -0.95    3.40   1
  -2  -7  14    2.29    2.57   1
   1   7 -14   83.49    6.59   1
  -1  -7  14   88.46    6.55   1
  -1  -7  14   82.26    4.47   1
   0   7 -14   -0.38    2.51   1
   0   7 -14   -0.83    5.99   1
   0  -7  14   -0.06    2.82   1
   0  -7  14    0.52    2.74   1
   0  -7  14   -2.41    2.41   1
   0  -7  14   -1.12    2.58   1
   0  -7  14    1.51    2.52   1
  -1   7 -14   68.43    4.67   1
  -1   7 -14   67.14    5.52   1
   1  -7  14   63.42    4.10   1
   1  -7  14   62.93    4.23   1
   1  -7  14   63.39    4.65   1
   1  -7  14   60.93    4.60   1
   1  -7  14   70.25    4.41   1
  -2   7 -14    3.33    6.14   1
  -2   7 -14    6.73    4.03   1
   2  -7  14    2.78    4.76   1
   2  -7  14    3.67    4.04   1
   2  -7  14    5.16    4.86   1
   2  -7  14    8.16    5.05   1
  -3   7 -14    2.85    4.62   1
  -3   7 -14    2.88    4.50   1
   3  -7  14    1.29    3.05   1
   3  -7  14    0.87    3.06   1
   3  -7  14    1.02    3.03   1
   3  -7  14    1.08    3.24   1
  -4   7 -14    9.55    3.43   1
  -4   7 -14    7.17    5.25   1
   4  -7  14    7.56    3.51   1
   4  -7  14    7.46    3.46   1
   4  -7  14    9.59    3.46   1
   4  -7  14   10.38    3.80   1
   3   6 -14    2.40    4.26   1
  -3  -6  14    1.67    4.00   1
  -3  -6  14    4.36    4.26   1
  -3  -6  14    4.77    4.52   1
   2   6 -14    1.17    2.98   1
   2   6 -14   -0.78    2.04   1
  -2  -6  14   -0.40    2.38   1
  -2  -6  14   -0.86    3.12   1
  -2  -6  14    0.35    2.44   1
   1   6 -14   27.82    4.29   1
   1   6 -14   41.81    3.38   1
  -1  -6  14   33.72    3.08   1
  -1  -6  14   40.93    3.58   1
  -1  -6  14   31.41    3.08   1
   0   6 -14    2.44    2.95   1
   0   6 -14   -0.37    3.35   1
   0   6 -14    1.53    3.86   1
   0  -6  14    3.05    2.07   1
   0  -6  14    1.56    3.79   1
   0  -6  14    0.24    3.73   1
  -1   6 -14   11.71    3.49   1
  -1   6 -14    6.71    3.13   1
   1  -6  14    8.84    1.94   1
   1  -6  14    5.30    3.37   1
   1  -6  14    5.88    2.63   1
   1  -6  14    5.76    2.68   1
   1  -6  14    7.46    3.52   1
  -2   6 -14   32.98    4.00   1
  -2   6 -14   36.13    4.05   1
   2  -6  14   32.43    3.68   1
   2  -6  14   29.01    3.68   1
   2  -6  14   30.04    3.59   1
   2  -6  14   28.16    3.52   1
  -3   6 -14   21.38    4.24   1
  -3   6 -14   21.92    4.02   1
   3  -6  14   18.03    2.93   1
   3  -6  14   19.62    3.03   1
   3  -6  14   15.82    2.89   1
   3  -6  14   18.91    3.05   1
  -4   6 -14    0.70    2.98   1
  -4   6 -14   -2.31    4.90   1
   4  -6  14    0.68    3.00   1
   4  -6  14   -2.69    2.96   1
   4  -6  14   -3.19    3.29   1
   4  -6  14   -2.75    3.25   1
  -5   6 -14   44.68    5.76   1
  -5   6 -14   49.47    3.92   1
   5  -6  14   56.10    4.39   1
   5  -6  14   46.82    3.92   1
   5  -6  14   50.05    4.23   1
   5  -6  14   50.60    4.21   1
   4   5 -14   -3.44    4.31   1
  -4  -5  14   -2.33    2.76   1
  -4  -5  14    0.87    2.66   1
  -4  -5  14    1.89    3.25   1
   3   5 -14    8.05    3.86   1
  -3  -5  14   13.80    3.21   1
  -3  -5  14    9.72    2.76   1
  -3  -5  14    7.35    2.59   1
   2   5 -14   20.89    3.55   1
   2   5 -14   21.62    2.22   1
   2   5 -14   11.31    3.67   1
  -2  -5  14   18.11    2.61   1
  -2  -5  14   15.29    2.46   1
  -2  -5  14   16.06    2.49   1
   1   5 -14   26.46    3.33   1
   1   5 -14   21.98    3.48   1
   1   5 -14   27.63    2.48   1
   1   5 -14   25.15    2.92   1
  -1  -5  14   31.36    2.85   1
  -1  -5  14   30.24    2.80   1
  -1  -5  14   34.00    2.85   1
   0   5 -14   44.68    3.63   1
   0   5 -14   36.40    2.78   1
   0   5 -14   41.14    2.83   1
   0  -5  14   48.28    2.74   1
   0  -5  14   42.63    2.98   1
   0  -5  14   41.85    3.03   1
  -1   5 -14  303.55   13.48   1
   1  -5  14  283.50   11.99   1
   1  -5  14  295.10   12.96   1
   1  -5  14  290.83   12.62   1
  -2   5 -14    5.29    2.44   1
   2  -5  14    6.36    2.38   1
   2  -5  14    7.96    2.47   1
   2  -5  14    6.95    2.44   1
   2  -5  14    7.65    2.56   1
  -3   5 -14   92.47    5.35   1
   3  -5  14  102.35    4.87   1
   3  -5  14   99.24    4.70   1
   3  -5  14  100.92    4.49   1
   3  -5  14  115.18    5.39   1
  -4   5 -14   55.33    4.37   1
   4  -5  14   55.13    3.68   1
   4  -5  14   57.14    4.30   1
   4  -5  14   47.70    4.02   1
   4  -5  14   52.35    4.15   1
  -5   5 -14    2.84    2.87   1
   5  -5  14    4.77    4.77   1
   5  -5  14    3.85    3.23   1
   5  -5  14    6.57    4.77   1
   5  -5  14    4.37    3.30   1
   5   4 -14   12.32    6.50   1
  -5  -4  14    5.40    3.46   1
  -5  -4  14    1.02    3.74   1
  -5  -4  14    6.56    3.85   1
   4   4 -14   -1.30    3.65   1
  -4  -4  14    2.24    2.60   1
  -4  -4  14   -1.09    3.87   1
  -4  -4  14    1.24    2.50   1
   3   4 -14    2.22    4.35   1
   3   4 -14    3.26    3.11   1
  -3  -4  14    8.67    2.67   1
  -3  -4  14    6.68    2.36   1
  -3  -4  14    4.99    2.25   1
   2   4 -14   22.44    3.06   1
   2   4 -14   30.76    2.47   1
   2   4 -14   28.07    3.80   1
   2   4 -14   22.56    3.09   1
  -2  -4  14   28.07    2.58   1
  -2  -4  14   28.77    2.65   1
  -2  -4  14   32.37    2.79   1
   1   4 -14   -2.15    2.86   1
   1   4 -14   -0.19    1.21   1
   1   4 -14   -0.81    3.01   1
   1   4 -14    1.53    1.99   1
  -1  -4  14    0.29    1.72   1
  -1  -4  14   -0.87    1.36   1
  -1  -4  14    1.23    2.42   1
   0   4 -14    0.26    2.69   1
   0   4 -14    1.12    2.88   1
   0   4 -14    1.19    3.08   1
   0  -4  14    3.69    1.47   1
   0  -4  14    2.31    2.85   1
   0  -4  14    3.59    2.85   1
  -1   4 -14   18.36    2.01   1
  -1   4 -14   21.38    2.95   1
  -1   4 -14   18.29    1.99   1
   1  -4  14   13.30    2.06   1
   1  -4  14   24.19    1.61   1
   1  -4  14   20.45    2.25   1
  -2   4 -14   46.30    3.07   1
   2  -4  14   47.47    3.20   1
   2  -4  14   41.96    2.80   1
   2  -4  14   48.65    3.17   1
   2  -4  14   43.49    2.87   1
  -3   4 -14    2.98    2.23   1
   3  -4  14    6.44    3.44   1
   3  -4  14    6.27    3.30   1
   3  -4  14    3.53    2.39   1
   3  -4  14    3.89    2.25   1
  -4   4 -14   47.36    3.39   1
   4  -4  14   45.81    3.16   1
   4  -4  14   38.53    3.05   1
   4  -4  14   43.74    3.23   1
   4  -4  14   41.72    3.28   1
  -5   4 -14   26.12    3.62   1
   5  -4  14   34.26    3.14   1
   5  -4  14   34.06    3.83   1
   5  -4  14   34.29    3.14   1
   5  -4  14   37.59    3.90   1
   6  -4  14   19.53    3.35   1
   6   3 -14    3.39    7.52   1
  -6  -3  14    0.99    4.64   1
  -6  -3  14    1.15    4.06   1
  -6  -3  14    0.86    4.61   1
   5   3 -14   14.18    4.23   1
   5   3 -14   17.37    4.20   1
  -5  -3  14   12.88    2.79   1
  -5  -3  14   19.92    4.42   1
  -5  -3  14   14.88    2.89   1
   4   3 -14   59.88    4.73   1
   4   3 -14   45.68    4.34   1
  -4  -3  14   57.53    3.55   1
  -4  -3  14   58.45    5.02   1
  -4  -3  14   57.26    3.59   1
   3   3 -14  294.44   11.18   1
   3   3 -14  275.06   14.83   1
   3   3 -14  290.18   14.09   1
  -3  -3  14  319.00    7.94   1
  -3  -3  14  316.43    7.99   1
  -3  -3  14  300.43   10.72   1
   2   3 -14   36.76    3.78   1
   2   3 -14   32.06    3.25   1
   2   3 -14   41.51    3.25   1
   2   3 -14   37.34    3.29   1
  -2  -3  14   41.03    3.13   1
  -2  -3  14   39.67    2.80   1
  -2  -3  14   41.57    2.89   1
   1   3 -14    9.96    2.71   1
   1   3 -14   15.66    2.34   1
   1   3 -14   13.27    2.32   1
   1   3 -14   16.10    2.29   1
  -1  -3  14   15.29    2.51   1
  -1  -3  14   16.92    2.17   1
  -1  -3  14   16.84    2.56   1
   0   3 -14   73.80    3.94   1
   0   3 -14   80.71    4.71   1
   0   3 -14   77.17    3.68   1
   0  -3  14   75.10    3.26   1
   0  -3  14   82.01    3.36   1
   0  -3  14   81.99    4.71   1
  -1   3 -14    3.46    1.96   1
  -1   3 -14    1.01    1.44   1
  -1   3 -14    1.83    1.47   1
   1  -3  14    1.67    1.79   1
   1  -3  14    1.86    1.73   1
   1  -3  14    2.29    0.91   1
  -2   3 -14   -0.12    1.38   1
  -2   3 -14   -0.47    1.24   1
  -2   3 -14   -0.60    0.94   1
   2  -3  14    0.40    1.34   1
   2  -3  14    0.84    1.34   1
  -3   3 -14    2.91    1.68   1
  -3   3 -14    5.01    2.16   1
   3  -3  14    4.26    1.83   1
   3  -3  14    5.12    2.07   1
   3  -3  14    3.54    2.04   1
   3  -3  14    5.97    1.98   1
  -4   3 -14    2.05    2.34   1
   4  -3  14    0.72    2.21   1
   4  -3  14    4.06    2.34   1
   4  -3  14    4.19    2.21   1
   4  -3  14    2.60    2.18   1
  -5   3 -14    1.19    2.24   1
   5  -3  14    1.69    3.02   1
   5  -3  14    1.11    2.33   1
   5  -3  14    3.10    3.15   1
   5  -3  14   -2.30    2.30   1
  -6   3 -14   -0.67    2.74   1
   6  -3  14   -1.80    3.45   1
   6  -3  14    2.77    3.58   1
   6  -3  14   -3.51    3.51   1
   6  -3  14    2.06    3.52   1
   6   2 -14    1.69    4.94   1
   6   2 -14   -0.42    5.27   1
  -6  -2  14    0.05    2.73   1
   5   2 -14    2.22    5.71   1
   5   2 -14   -1.11    5.68   1
  -5  -2  14    0.29    4.40   1
   4   2 -14    2.39    4.64   1
   4   2 -14    1.62    3.22   1
  -4  -2  14    2.32    2.67   1
  -4  -2  14   -0.70    2.39   1
  -4  -2  14    2.99    2.58   1
   3   2 -14   -0.48    2.39   1
   3   2 -14    0.41    2.14   1
   3   2 -14   -1.00    2.07   1
  -3  -2  14    0.03    2.32   1
  -3  -2  14   -0.43    1.62   1
  -3  -2  14    1.00    1.27   1
  -3  -2  14    1.64    1.62   1
   2   2 -14   48.03    2.76   1
   2   2 -14   53.48    3.38   1
   2   2 -14   45.97    3.02   1
   2   2 -14   52.78    3.14   1
   2   2 -14   51.32    3.47   1
   2   2 -14   47.21    3.31   1
  -2  -2  14   54.11    3.02   1
  -2  -2  14   52.00    2.98   1
  -2  -2  14   56.06    3.29   1
   1   2 -14    7.65    2.01   1
   1   2 -14    9.69    2.12   1
   1   2 -14    9.46    1.56   1
   1   2 -14   10.99    2.04   1
   1   2 -14   10.88    2.04   1
  -1  -2  14    7.26    1.90   1
  -1  -2  14    9.82    1.98   1
  -1  -2  14    9.82    1.73   1
   0   2 -14   37.48    2.71   1
   0   2 -14   46.07    2.67   1
   0   2 -14   39.52    2.56   1
   0  -2  14   38.63    2.45   1
   0  -2  14   42.54    2.06   1
   0  -2  14   42.91    2.51   1
  -1   2 -14   25.83    2.26   1
  -1   2 -14   26.30    2.50   1
   1  -2  14   28.35    1.77   1
   1  -2  14   28.21    2.38   1
   1  -2  14   22.08    2.26   1
  -2   2 -14   26.43    2.38   1
  -2   2 -14   22.70    2.05   1
   2  -2  14   27.36    2.14   1
   2  -2  14   25.80    2.10   1
  -3   2 -14   57.84    3.75   1
  -3   2 -14   62.60    3.59   1
   3  -2  14   61.13    3.27   1
   3  -2  14   64.85    2.90   1
   3  -2  14   59.26    3.27   1
   3  -2  14   63.72    2.99   1
  -4   2 -14   57.00    4.44   1
  -4   2 -14   70.22    3.77   1
   4  -2  14   66.12    3.69   1
   4  -2  14   62.30    3.23   1
   4  -2  14   69.03    3.79   1
   4  -2  14   60.06    3.15   1
  -5   2 -14   30.93    3.24   1
   5  -2  14   35.30    3.20   1
   5  -2  14   33.20    2.67   1
   5  -2  14   33.44    3.26   1
   5  -2  14   36.97    2.74   1
  -6   2 -14   27.42    4.36   1
   6   1 -14   61.19    6.17   1
   6   1 -14   63.22    5.34   1
  -6  -1  14   63.18    5.80   1
   5   1 -14    5.74    3.19   1
   5   1 -14   10.39    3.45   1
  -5  -1  14   14.30    4.38   1
   4   1 -14  136.59    6.42   1
   4   1 -14  149.57    6.08   1
  -4  -1  14  143.88    5.38   1
  -4  -1  14  142.04    7.66   1
   3   1 -14    4.89    2.22   1
   3   1 -14    1.93    2.61   1
   3   1 -14    2.48    2.58   1
  -3  -1  14    2.77    2.25   1
  -3  -1  14    1.03    2.58   1
   2   1 -14    0.93    0.69   1
   2   1 -14    0.85    2.38   1
   2   1 -14   -0.56    1.28   1
   2   1 -14    0.61    0.80   1
   2   1 -14   -1.55    2.38   1
  -2  -1  14   -1.77    1.98   1
  -2  -1  14   -0.85    1.50   1
  -2  -1  14    1.36    1.50   1
  -2  -1  14   -0.59    1.46   1
   1   1 -14   50.29    2.58   1
   1   1 -14   50.58    2.93   1
   1   1 -14   47.07    2.36   1
   1   1 -14   44.67    2.58   1
   1   1 -14   43.47    2.77   1
  -1  -1  14   50.22    2.66   1
  -1  -1  14   42.92    2.51   1
  -1  -1  14   49.13    2.49   1
  -1  -1  14   42.09    2.91   1
   0   1 -14   20.90    2.61   1
   0   1 -14   17.81    1.92   1
   0   1 -14   19.95    2.24   1
   0   1 -14   20.09    2.85   1
   0  -1  14   16.53    2.07   1
   0  -1  14   19.72    2.14   1
   0  -1  14   22.28    1.62   1
  -1   1 -14  223.27    6.98   1
  -1   1 -14  210.53    8.43   1
   1  -1  14  214.14    6.08   1
   1  -1  14  221.35    7.28   1
   1  -1  14  215.16    6.72   1
  -2   1 -14   25.34    2.08   1
  -2   1 -14   25.25    2.66   1
   2  -1  14   28.53    1.98   1
   2  -1  14   24.57    1.87   1
   2  -1  14   19.39    2.94   1
  -3   1 -14   38.61    2.45   1
  -3   1 -14   45.36    3.09   1
   3  -1  14   47.27    2.29   1
   3  -1  14   38.38    3.33   1
   3  -1  14   46.55    2.42   1
   3  -1  14   45.33    2.36   1
   3  -1  14   40.74    2.15   1
  -4   1 -14   37.03    3.21   1
  -4   1 -14   29.97    2.78   1
   4  -1  14   37.33    2.64   1
   4  -1  14   35.80    2.58   1
   4  -1  14   37.80    2.39   1
   4  -1  14   35.89    2.69   1
   4  -1  14   26.31    3.33   1
  -5   1 -14    8.48    2.72   1
  -5   1 -14   10.27    2.38   1
   5  -1  14   11.23    4.51   1
   7   0 -14    8.67    4.77   1
  -7   0  14   11.90    6.40   1
   6   0 -14   -2.02    2.89   1
   6   0 -14    0.79    3.15   1
  -6   0  14    0.20    2.92   1
   5   0 -14   15.21    3.52   1
   5   0 -14   12.13    3.29   1
  -5   0  14    9.73    3.21   1
  -5   0  14   15.12    3.19   1
   4   0 -14    1.89    2.19   1
   4   0 -14    4.39    3.24   1
   4   0 -14    3.04    3.04   1
  -4   0  14    2.84    2.80   1
  -4   0  14    6.31    3.41   1
   3   0 -14   43.87    3.27   1
   3   0 -14   50.13    2.80   1
   3   0 -14   42.05    3.24   1
  -3   0  14   44.34    3.11   1
  -3   0  14   45.01    3.51   1
   2   0 -14    7.41    1.08   1
   2   0 -14    5.08    2.87   1
   2   0 -14    3.29    2.81   1
   2   0 -14    5.21    1.66   1
  -2   0  14    8.37    2.65   1
  -2   0  14    5.11    2.26   1
   1   0 -14   23.64    1.99   1
   1   0 -14   20.03    1.79   1
   1   0 -14   19.43    2.18   1
   1   0 -14   24.76    1.82   1
  -1   0  14   21.55    2.01   1
  -1   0  14   20.76    1.99   1
  -1   0  14   23.79    2.16   1
  -1   0  14   18.00    1.60   1
  -1   0  14   21.98    2.52   1
   0   0 -14  220.15    9.45   1
   0   0 -14  209.92    6.13   1
   0   0  14  206.41    8.49   1
   0   0  14  202.28    7.86   1
   0   0  14  220.37    6.36   1
   0   0  14  231.47   11.31   1
   0   0  14  216.39    8.29   1
   0   0  14  217.62    5.48   1
  -1   0 -14  347.13   15.40   1
  -1   0 -14  365.36   16.94   1
   1   0  14  333.79   11.58   1
   1   0  14  322.75   17.33   1
   1   0  14  353.80   21.03   1
   1   0  14  337.17   10.44   1
   1   0  14  347.31   14.53   1
  -2   0 -14   72.92    4.35   1
  -2   0 -14   69.49    4.31   1
   2   0  14   73.45    3.10   1
   2   0  14   77.52    3.17   1
   2   0  14   69.24    3.83   1
  -3   0 -14   91.29    4.91   1
  -3   0 -14  100.75    5.78   1
   3   0  14   95.85    4.85   1
   3   0  14  101.46    3.97   1
   3   0  14  101.68    4.70   1
   3   0  14  106.20    4.42   1
   3   0  14  100.29    6.73   1
  -4   0 -14   12.46    3.21   1
  -4   0 -14    8.88    2.13   1
   4   0  14   10.18    3.94   1
  -5   0 -14    2.77    3.31   1
  -5   0 -14    7.36    3.14   1
   5   0  14    2.88    4.88   1
   7  -1 -14   28.73    4.74   1
   7  -1 -14   40.40    5.13   1
  -7   1  14   43.71    5.01   1
   6  -1 -14   18.66    3.80   1
   6  -1 -14   20.44    3.75   1
  -6   1  14   25.82    3.92   1
  -6   1  14   19.11    3.66   1
   5  -1 -14   51.23    4.75   1
   5  -1 -14   51.25    4.23   1
  -5   1  14   40.79    3.38   1
  -5   1  14   43.12    9.45   1
   4  -1 -14   -0.45    1.88   1
   4  -1 -14   -0.42    1.89   1
   4  -1 -14    0.08    1.27   1
  -4   1  14    1.13    2.86   1
  -4   1  14   -0.60    2.81   1
   3  -1 -14   51.50    3.38   1
   3  -1 -14   52.31    3.61   1
   3  -1 -14   51.05    2.69   1
  -3   1  14   57.74    3.51   1
  -3   1  14   46.90    3.38   1
   2  -1 -14   13.09    1.55   1
   2  -1 -14   12.32    2.11   1
   2  -1 -14    7.94    1.83   1
   2  -1 -14   13.09    1.31   1
  -2   1  14    8.97    1.24   1
  -2   1  14   10.23    3.02   1
  -2   1  14   12.63    2.37   1
   1  -1 -14   11.30    1.71   1
   1  -1 -14   12.70    2.28   1
   1  -1 -14   13.32    1.52   1
  -1   1  14    9.27    1.41   1
  -1   1  14   15.21    1.64   1
  -1   1  14   12.82    2.88   1
   0  -1 -14  111.82    4.47   1
   0  -1 -14  119.76    3.85   1
   0   1  14  101.01    5.76   1
   0   1  14  120.63    3.34   1
   0   1  14  120.50    6.31   1
   0   1  14  112.24    5.01   1
   0   1  14  115.10    3.83   1
  -1  -1 -14    2.81    1.85   1
  -1  -1 -14    1.95    1.85   1
   1   1  14    1.32    2.64   1
   1   1  14    3.73    1.26   1
   1   1  14    1.82    2.48   1
   1   1  14    2.34    1.19   1
  -2  -1 -14    7.67    2.01   1
  -2  -1 -14    4.89    1.90   1
   2   1  14    9.86    1.31   1
   2   1  14    9.94    1.31   1
   2   1  14    3.69    3.69   1
  -3  -1 -14    0.69    1.86   1
  -3  -1 -14    0.25    1.72   1
   3   1  14   -0.21    3.68   1
  -4  -1 -14   21.66    5.67   1
  -4  -1 -14   28.39    3.21   1
   4   1  14   22.82    4.75   1
  -5  -1 -14   -2.53    3.30   1
  -5  -1 -14    0.87    2.60   1
   5   1  14    0.44    3.22   1
   6  -2 -14   40.64    4.48   1
   6  -2 -14   45.16    4.29   1
  -6   2  14   39.31    4.41   1
  -6   2  14   38.16    3.89   1
   5  -2 -14   -1.78    2.33   1
   5  -2 -14    0.28    2.37   1
  -5   2  14   -1.15    2.36   1
  -5   2  14    1.02    5.83   1
   4  -2 -14   90.11    5.07   1
   4  -2 -14   89.25    4.75   1
   4  -2 -14   92.07    5.01   1
  -4   2  14   93.00    4.65   1
   3  -2 -14   50.44    3.30   1
   3  -2 -14   52.41    3.28   1
   3  -2 -14   52.19    2.78   1
  -3   2  14   51.87    3.93   1
   2  -2 -14   34.58    3.01   1
   2  -2 -14   36.10    2.12   1
  -2   2  14   34.56    3.72   1
  -2   2  14   33.01    2.28   1
  -2   2  14   30.60    2.26   1
   1  -2 -14  167.81    6.05   1
   1  -2 -14  155.96    7.52   1
  -1   2  14  158.82    7.91   1
  -1   2  14  159.04    7.76   1
  -1   2  14  159.51    6.88   1
   0  -2 -14    5.86    1.70   1
   0  -2 -14    1.44    2.00   1
   0   2  14    1.60    2.58   1
   0   2  14    0.46    3.17   1
   0   2  14    1.31    3.17   1
   0   2  14    3.21    1.86   1
   0   2  14    3.67    1.86   1
  -1  -2 -14   -0.35    1.68   1
  -1  -2 -14   -0.06    2.60   1
   1   2  14    0.16    2.47   1
   1   2  14   -0.60    2.37   1
   1   2  14    2.88    1.08   1
   1   2  14    0.89    0.95   1
   1   2  14    1.39    2.53   1
  -2  -2 -14   72.95    5.48   1
  -2  -2 -14   68.55    4.21   1
   2   2  14   75.72    5.25   1
   2   2  14   64.88    5.68   1
  -3  -2 -14    8.73    2.61   1
  -3  -2 -14   15.39    2.82   1
   3   2  14    6.66    4.21   1
   3   2  14    8.54    3.37   1
  -4  -2 -14    8.74    3.99   1
  -4  -2 -14    9.37    3.13   1
   4   2  14    8.43    4.27   1
   6  -3 -14    4.67    3.51   1
   6  -3 -14    8.89    3.68   1
  -6   3  14    7.70    3.96   1
  -6   3  14    7.07    3.85   1
   5  -3 -14   -0.74    2.23   1
   5  -3 -14    3.12    3.37   1
  -5   3  14    0.44    2.55   1
   4  -3 -14   11.56    3.18   1
   4  -3 -14    7.12    3.72   1
  -4   3  14    5.20    4.66   1
   3  -3 -14    2.12    2.28   1
   3  -3 -14    3.48    1.17   1
   3  -3 -14    3.10    2.31   1
  -3   3  14    3.74    3.35   1
   2  -3 -14   75.42    3.99   1
   2  -3 -14   79.50    3.08   1
  -2   3  14   68.20    5.13   1
  -2   3  14   62.76    3.71   1
  -2   3  14   71.57    4.96   1
   1  -3 -14    4.27    2.73   1
  -1   3  14    4.89    3.17   1
  -1   3  14    4.18    3.89   1
  -1   3  14    2.76    2.29   1
   0  -3 -14   13.92    2.34   1
   0   3  14   16.30    1.79   1
   0   3  14    8.49    3.48   1
   0   3  14   15.51    3.09   1
   0   3  14   16.74    1.79   1
   0   3  14    9.77    2.74   1
  -1  -3 -14   -0.32    1.38   1
  -1  -3 -14   -0.46    2.43   1
   1   3  14   -0.13    2.59   1
   1   3  14   -1.31    2.42   1
   1   3  14   -1.73    2.15   1
  -2  -3 -14   29.65    3.24   1
  -2  -3 -14   34.99    3.19   1
   2   3  14   23.35    4.51   1
   2   3  14   27.25    4.67   1
  -3  -3 -14   77.78    5.35   1
  -3  -3 -14   98.59    5.27   1
   3   3  14   74.10    6.86   1
   3   3  14   89.04    6.02   1
  -4  -3 -14   -0.20    3.01   1
  -4  -3 -14    1.33    2.95   1
   4   3  14   -1.76    4.35   1
   4   3  14   -0.06    4.07   1
   6  -4 -14    1.05    2.91   1
   6  -4 -14    2.16    2.83   1
  -6   4  14    2.09    4.97   1
   5  -4 -14  119.82    8.57   1
   5  -4 -14  117.24    5.67   1
  -5   4  14  130.55   10.78   1
   4  -4 -14   43.45    3.55   1
   4  -4 -14   52.84    4.22   1
  -4   4  14   50.08    4.33   1
   3  -4 -14   20.97    2.71   1
  -3   4  14   17.36    4.19   1
   2  -4 -14   54.84    3.45   1
  -2   4  14   53.97    4.47   1
  -2   4  14   47.15    3.94   1
  -2   4  14   54.05    4.34   1
   1  -4 -14   18.75    2.52   1
   1  -4 -14   20.61    1.95   1
  -1   4  14   15.86    2.95   1
  -1   4  14   16.25    3.71   1
  -1   4  14   18.25    3.27   1
   0  -4 -14    7.86    2.48   1
   0   4  14    4.98    3.19   1
   0   4  14    7.23    4.27   1
   0   4  14   12.10    4.30   1
  -1  -4 -14   30.64    3.21   1
  -1  -4 -14   23.68    3.00   1
   1   4  14   28.37    3.61   1
   1   4  14   21.86    3.85   1
   1   4  14   22.19    3.87   1
  -2  -4 -14    1.60    3.10   1
  -2  -4 -14    6.80    4.88   1
   2   4  14   -1.19    5.18   1
   2   4  14    0.16    3.57   1
  -3  -4 -14    0.73    2.44   1
  -3  -4 -14    1.34    2.88   1
   3   4  14    2.51    5.89   1
   3   4  14   -1.95    5.73   1
   5  -5 -14    0.50    2.52   1
   5  -5 -14    0.58    3.66   1
  -5   5  14   -0.30    4.87   1
   4  -5 -14    3.80    2.71   1
   4  -5 -14    2.70    3.48   1
  -4   5  14    3.13    3.66   1
   3  -5 -14    2.59    2.40   1
  -3   5  14   -0.83    3.14   1
   2  -5 -14    0.71    2.22   1
  -2   5  14   -4.35    4.35   1
  -2   5  14    1.05    3.58   1
   1  -5 -14   35.09    3.64   1
  -1   5  14   37.83    4.09   1
  -1   5  14   45.11    4.59   1
  -1   5  14   36.97    3.93   1
   0  -5 -14    1.93    3.72   1
   0   5  14   -2.88    5.62   1
   0   5  14    1.66    3.69   1
   0   5  14    1.96    4.01   1
  -1  -5 -14   -0.52    2.35   1
  -1  -5 -14   -0.89    1.78   1
   1   5  14    0.47    5.01   1
   1   5  14    0.32    2.72   1
   1   5  14    1.66    3.70   1
   3  -6 -14    1.84    3.84   1
  -3   6  14    0.56    5.78   1
   2  -6 -14    1.72    2.75   1
  -2   6  14    1.85    4.70   1
   1  -6 -14   -0.90    4.08   1
  -1   6  14   -3.51    4.38   1
  -1   6  14   -1.58    4.41   1
  -1   6  14   -0.47    4.23   1
   1   7 -15   21.66    4.01   1
  -1  -7  15   18.66    2.88   1
  -1  -7  15   16.07    3.20   1
  -1  -7  15   13.46    3.10   1
   0   7 -15   55.49    5.03   1
   0   7 -15   59.39    5.19   1
   0  -7  15   58.20    4.06   1
   0  -7  15   56.83    4.11   1
   0  -7  15   55.73    4.02   1
   0  -7  15   52.61    4.02   1
   0  -7  15   62.78    4.02   1
  -1   7 -15   14.06    4.65   1
  -1   7 -15    9.04    3.83   1
   1  -7  15   13.62    3.27   1
   1  -7  15   12.82    4.52   1
   1  -7  15   13.23    4.17   1
   1  -7  15   10.71    3.24   1
  -2   7 -15   41.01    5.52   1
  -2   7 -15   34.02    4.18   1
   2  -7  15   30.14    3.50   1
   2  -7  15   36.88    3.81   1
   2  -7  15   32.70    3.68   1
   2  -7  15   42.43    3.81   1
  -3   7 -15    2.73    3.23   1
  -3   7 -15    3.18    4.63   1
   3  -7  15    2.34    3.09   1
   3  -7  15   -0.22    3.16   1
   3  -7  15    2.65    3.12   1
   3  -7  15    2.09    2.98   1
   3   6 -15   -0.72    4.69   1
  -3  -6  15   -1.80    4.55   1
  -3  -6  15    2.42    3.54   1
  -3  -6  15   -1.60    4.32   1
  -2  -6  15    4.81    2.98   1
  -2  -6  15    3.14    2.98   1
  -2  -6  15    8.69    3.85   1
   1   6 -15   37.77    3.65   1
   1   6 -15   36.98    4.26   1
  -1  -6  15   32.98    3.22   1
  -1  -6  15   40.06    3.15   1
  -1  -6  15   33.23    3.27   1
   0   6 -15    5.50    3.01   1
   0   6 -15    3.36    3.69   1
   0  -6  15    0.23    2.69   1
   0  -6  15    6.41    2.98   1
   0  -6  15    3.69    2.04   1
  -1   6 -15    8.83    3.94   1
   1  -6  15   13.79    2.82   1
   1  -6  15   14.58    2.88   1
   1  -6  15    9.12    2.56   1
   1  -6  15   13.27    2.74   1
  -2   6 -15   17.09    3.07   1
   2  -6  15   23.84    3.04   1
   2  -6  15   19.42    2.90   1
   2  -6  15   19.76    3.04   1
   2  -6  15   20.40    2.97   1
  -3   6 -15   13.99    4.23   1
  -3   6 -15   14.62    4.45   1
   3  -6  15   15.18    4.08   1
   3  -6  15   14.01    3.90   1
   3  -6  15    9.96    3.84   1
   3  -6  15   16.31    4.00   1
  -4   6 -15   46.26    4.04   1
  -4   6 -15   48.34    5.58   1
   4  -6  15   37.14    3.68   1
   4  -6  15   48.28    4.14   1
   4  -6  15   46.78    4.73   1
   4  -6  15   44.32    4.46   1
   4   5 -15   66.39    7.88   1
  -4  -5  15   81.84    5.72   1
  -4  -5  15   70.92    4.75   1
  -4  -5  15   77.16    4.44   1
   3   5 -15   -5.84    5.84   1
  -3  -5  15    1.11    2.89   1
  -3  -5  15    1.51    3.05   1
  -3  -5  15    0.52    2.79   1
   2   5 -15  116.60    5.98   1
   2   5 -15  108.07    5.81   1
   2   5 -15  111.58    6.32   1
  -2  -5  15  108.74    5.98   1
  -2  -5  15  128.68    9.00   1
  -2  -5  15  121.80    5.79   1
   1   5 -15    5.49    3.64   1
   1   5 -15   12.85    4.17   1
   1   5 -15    4.44    3.36   1
   1   5 -15   16.26    2.88   1
  -1  -5  15   14.13    2.23   1
  -1  -5  15    7.59    2.40   1
  -1  -5  15   10.71    2.53   1
   0   5 -15   40.62    4.15   1
   0  -5  15   38.44    3.13   1
   0  -5  15   42.32    3.16   1
   0  -5  15   45.46    2.82   1
  -1   5 -15   -0.94    1.95   1
   1  -5  15   -0.14    1.84   1
   1  -5  15   -1.82    1.82   1
   1  -5  15    0.39    0.88   1
  -2   5 -15   37.14    3.38   1
   2  -5  15   37.23    3.57   1
   2  -5  15   37.21    3.04   1
   2  -5  15   39.71    3.23   1
   2  -5  15   35.31    3.55   1
  -3   5 -15    7.18    2.56   1
   3  -5  15    7.58    2.73   1
   3  -5  15    4.65    2.53   1
   3  -5  15   11.46    3.80   1
   3  -5  15    8.99    3.61   1
  -4   5 -15    0.68    2.19   1
   4  -5  15   -1.27    2.40   1
   4  -5  15   -0.84    2.40   1
   4  -5  15    0.87    2.32   1
   4  -5  15   -2.27    2.27   1
  -5   5 -15    3.32    4.33   1
   5  -5  15    0.88    3.38   1
   5  -5  15    6.64    3.68   1
   5  -5  15    3.94    3.61   1
   5  -5  15    4.00    3.45   1
   5   4 -15    3.46    5.70   1
  -5  -4  15    2.08    3.43   1
  -5  -4  15    1.65    4.03   1
  -5  -4  15    2.67    3.37   1
   4   4 -15    1.83    4.68   1
   4   4 -15    0.75    6.20   1
  -4  -4  15    3.14    4.28   1
  -4  -4  15   -0.16    4.28   1
  -4  -4  15    1.21    4.58   1
   3   4 -15   -2.74    3.01   1
   3   4 -15   -0.16    2.98   1
  -3  -4  15    0.08    2.93   1
  -3  -4  15   -1.14    2.01   1
  -3  -4  15   -1.35    1.92   1
   2   4 -15    5.81    2.98   1
   2   4 -15    4.73    3.14   1
   2   4 -15   -0.81    4.16   1
   2   4 -15    4.54    3.20   1
  -2  -4  15    6.14    2.42   1
  -2  -4  15    3.26    2.30   1
  -2  -4  15    4.29    2.45   1
   1   4 -15    7.46    3.38   1
   1   4 -15    5.92    3.16   1
   1   4 -15    4.05    3.13   1
  -1  -4  15   12.19    2.97   1
  -1  -4  15   11.54    2.41   1
  -1  -4  15    7.49    2.79   1
   0   4 -15   19.34    3.23   1
   0   4 -15   16.04    2.30   1
   0   4 -15   15.47    2.82   1
   0  -4  15   23.79    2.13   1
   0  -4  15   19.03    2.85   1
   0  -4  15   19.62    2.82   1
  -1   4 -15   44.37    3.77   1
  -1   4 -15   49.04    3.68   1
  -1   4 -15   50.84    3.26   1
   1  -4  15   46.63    3.04   1
   1  -4  15   40.51    2.81   1
   1  -4  15   47.50    3.28   1
  -2   4 -15    1.26    2.03   1
   2  -4  15   -0.12    1.97   1
   2  -4  15   -1.36    2.04   1
   2  -4  15    0.22    2.03   1
   2  -4  15    0.93    2.01   1
  -3   4 -15   69.80    3.86   1
   3  -4  15   61.57    3.51   1
   3  -4  15   65.54    3.79   1
   3  -4  15   63.99    3.71   1
   3  -4  15   62.06    3.90   1
  -4   4 -15   36.28    3.19   1
   4  -4  15   32.81    2.89   1
   4  -4  15   40.33    3.19   1
   4  -4  15   39.67    3.08   1
   4  -4  15   39.72    3.24   1
  -5   4 -15   31.20    3.36   1
   5  -4  15   29.98    3.73   1
   5  -4  15   27.16    3.17   1
   5  -4  15   25.27    3.66   1
   5  -4  15   30.01    3.22   1
   5   3 -15   15.94    4.33   1
   5   3 -15   17.94    4.24   1
  -5  -3  15   19.24    3.82   1
  -5  -3  15   18.20    3.84   1
  -5  -3  15   23.89    4.48   1
   4   3 -15   56.92    5.50   1
   4   3 -15   56.66    5.63   1
  -4  -3  15   49.27    4.07   1
  -4  -3  15   48.09    4.01   1
  -4  -3  15   55.57    4.65   1
   3   3 -15    4.31    4.07   1
   3   3 -15    4.13    3.89   1
   3   3 -15    7.25    2.74   1
  -3  -3  15    9.98    2.39   1
  -3  -3  15    9.58    2.42   1
  -3  -3  15    6.77    2.32   1
   2   3 -15   15.31    1.57   1
   2   3 -15    9.36    2.85   1
   2   3 -15   10.59    3.29   1
   2   3 -15    6.78    3.43   1
  -2  -3  15   10.40    2.28   1
  -2  -3  15   10.28    2.25   1
  -2  -3  15   14.20    2.25   1
   1   3 -15    1.01    1.84   1
   1   3 -15    1.45    2.07   1
   1   3 -15   -0.42    2.04   1
  -1  -3  15    0.23    1.20   1
  -1  -3  15    0.84    1.73   1
  -1  -3  15    1.94    1.74   1
   0   3 -15    1.36    2.01   1
   0   3 -15   -0.03    1.67   1
   0   3 -15    0.74    1.73   1
   0  -3  15    1.18    1.86   1
   0  -3  15   -1.15    1.80   1
   0  -3  15    1.70    1.46   1
  -1   3 -15   21.23    2.36   1
  -1   3 -15   14.29    1.81   1
   1  -3  15   17.29    2.55   1
   1  -3  15   19.73    2.74   1
   1  -3  15   21.66    1.26   1
  -2   3 -15   -0.14    1.67   1
  -2   3 -15    0.03    1.59   1
  -2   3 -15    0.38    1.58   1
   2  -3  15    0.20    1.65   1
   2  -3  15   -0.81    1.65   1
  -3   3 -15    0.61    2.22   1
   3  -3  15   -0.23    1.87   1
   3  -3  15    4.67    2.09   1
   3  -3  15    1.74    2.09   1
   3  -3  15    4.67    2.28   1
  -4   3 -15    5.90    3.19   1
   4  -3  15    7.64    2.25   1
   4  -3  15    6.10    2.28   1
   4  -3  15    7.41    2.40   1
   4  -3  15   11.58    2.40   1
  -5   3 -15   -1.22    2.44   1
   5  -3  15   -0.03    2.22   1
   5  -3  15   -1.13    2.24   1
   5  -3  15    0.30    2.36   1
   5  -3  15    0.05    2.30   1
   6   2 -15   -1.73    4.23   1
   6   2 -15    2.42    4.90   1
  -6  -2  15   -1.90    2.99   1
   5   2 -15   -1.76    4.03   1
   5   2 -15   -0.36    3.87   1
  -5  -2  15   -2.70    4.28   1
   4   2 -15   13.12    4.33   1
   4   2 -15   15.16    3.42   1
  -4  -2  15   19.65    3.67   1
  -4  -2  15   17.66    3.37   1
  -4  -2  15   15.56    3.35   1
   3   2 -15  129.16    7.55   1
   3   2 -15  121.11    5.54   1
   3   2 -15  119.22    5.80   1
  -3  -2  15  126.82    5.22   1
  -3  -2  15  122.21    5.82   1
  -3  -2  15  128.32    5.61   1
   2   2 -15   11.47    2.46   1
   2   2 -15   17.03    1.96   1
   2   2 -15   18.44    2.48   1
   2   2 -15   14.29    3.14   1
  -2  -2  15   14.24    2.26   1
  -2  -2  15   19.35    2.41   1
  -2  -2  15   21.64    2.36   1
   1   2 -15  128.11    5.79   1
   1   2 -15  130.39   11.08   1
   1   2 -15  129.49    6.19   1
   1   2 -15  130.08   12.64   1
   1   2 -15  133.49    6.02   1
  -1  -2  15  135.01    6.11   1
  -1  -2  15  124.01    5.10   1
  -1  -2  15  122.16    4.39   1
   0   2 -15   11.65    1.92   1
   0   2 -15    7.20    1.79   1
   0   2 -15    8.23    2.37   1
   0  -2  15   10.54    1.92   1
   0  -2  15   10.30    1.86   1
   0  -2  15   12.81    1.29   1
  -1   2 -15   20.34    2.06   1
  -1   2 -15   24.60    2.34   1
   1  -2  15   22.82    1.51   1
   1  -2  15   20.71    2.06   1
   1  -2  15   22.49    2.08   1
  -2   2 -15  205.93    9.20   1
  -2   2 -15  200.34   13.76   1
   2  -2  15  213.70    8.20   1
   2  -2  15  203.70    8.11   1
  -3   2 -15   11.29    2.28   1
   3  -2  15   15.73    2.60   1
   3  -2  15   16.72    2.12   1
   3  -2  15   16.00    2.68   1
   3  -2  15   12.72    1.96   1
  -4   2 -15   -0.27    1.75   1
   4  -2  15    1.09    2.18   1
   4  -2  15   -0.07    2.21   1
   4  -2  15    2.67    2.21   1
   4  -2  15    0.44    2.21   1
  -5   2 -15   -0.87    2.42   1
   6   1 -15    9.45    4.71   1
   6   1 -15    8.46    4.77   1
  -6  -1  15    6.07    4.15   1
   5   1 -15    5.99    5.60   1
   5   1 -15    2.05    3.85   1
  -5  -1  15    2.44    3.75   1
   4   1 -15   14.91    3.28   1
   4   1 -15   16.85    3.28   1
  -4  -1  15   11.73    2.09   1
  -4  -1  15   21.53    3.20   1
   3   1 -15    0.06    3.59   1
   3   1 -15    0.93    1.98   1
   3   1 -15    0.28    2.35   1
  -3  -1  15    0.90    2.26   1
  -3  -1  15    0.87    2.76   1
  -3  -1  15   -0.62    2.11   1
  -3  -1  15    1.61    2.23   1
   2   1 -15   15.17    2.42   1
   2   1 -15   17.35    2.47   1
   2   1 -15   16.67    2.96   1
  -2  -1  15   17.90    2.30   1
  -2  -1  15   18.83    2.28   1
  -2  -1  15   21.39    2.38   1
  -2  -1  15   17.69    2.25   1
   1   1 -15    5.80    1.77   1
   1   1 -15    7.27    2.00   1
   1   1 -15    3.53    1.94   1
   1   1 -15    7.53    1.56   1
   1   1 -15    2.59    1.82   1
  -1  -1  15    2.98    2.15   1
  -1  -1  15    7.62    1.91   1
  -1  -1  15    8.56    1.74   1
  -1  -1  15    4.21    1.80   1
   0   1 -15    0.24    1.10   1
   0   1 -15   -0.33    1.70   1
   0  -1  15    0.64    0.99   1
   0  -1  15    0.62    1.18   1
   0  -1  15   -0.82    1.13   1
  -1   1 -15  123.69    5.43   1
  -1   1 -15  110.50    4.64   1
   1  -1  15  110.83    4.35   1
   1  -1  15  104.62    4.82   1
  -2   1 -15    2.46    2.83   1
  -2   1 -15    1.42    1.72   1
   2  -1  15    2.83    2.29   1
   2  -1  15   -0.27    2.39   1
   2  -1  15    1.79    2.26   1
  -3   1 -15   41.07    4.86   1
  -3   1 -15   39.51    3.04   1
   3  -1  15   46.45    2.53   1
   3  -1  15   45.68    2.48   1
   3  -1  15   46.49    2.51   1
   3  -1  15   40.94    2.51   1
   3  -1  15   37.09    3.99   1
  -4   1 -15   45.32    2.91   1
  -4   1 -15   47.05    3.53   1
   4  -1  15   43.43    3.73   1
   4  -1  15   47.91    3.08   1
   4  -1  15   50.03    3.06   1
   4  -1  15   47.21    3.61   1
  -5   1 -15   37.55    3.71   1
   5  -1  15   30.16    4.04   1
   6   0 -15    4.27    4.18   1
   6   0 -15    2.11    4.00   1
  -6   0  15    7.92    4.21   1
   5   0 -15  117.53    7.31   1
   5   0 -15  118.72    7.17   1
  -5   0  15  124.10    6.87   1
  -5   0  15  122.08    6.79   1
   4   0 -15   76.34    4.21   1
   4   0 -15   81.21    4.90   1
   4   0 -15   81.57    4.73   1
  -4   0  15   89.62    7.00   1
  -4   0  15   85.23    5.42   1
   3   0 -15    6.02    2.41   1
   3   0 -15    5.77    2.47   1
   3   0 -15    4.79    2.41   1
  -3   0  15    2.27    2.30   1
  -3   0  15    7.80    2.41   1
   2   0 -15   99.64    5.23   1
   2   0 -15  105.67    4.71   1
   2   0 -15  104.71    5.98   1
  -2   0  15  118.50    5.18   1
  -2   0  15  116.14    5.94   1
   1   0 -15   77.13    6.44   1
   1   0 -15   74.23    4.12   1
   1   0 -15   77.66    7.14   1
   1   0 -15   73.84    4.14   1
  -1   0  15   87.59    3.65   1
  -1   0  15   82.55    3.54   1
  -1   0  15   75.73    3.95   1
  -1   0  15   86.20    3.91   1
   0   0 -15    0.25    1.14   1
   0   0 -15   -0.13    1.27   1
   0   0  15    1.38    1.10   1
   0   0  15    0.32    0.57   1
   0   0  15    0.68    1.93   1
   0   0  15    0.82    1.61   1
   0   0  15    0.42    1.73   1
   0   0  15   -1.12    1.32   1
  -1   0 -15   15.16    2.00   1
  -1   0 -15   15.39    2.00   1
   1   0  15   16.37    2.42   1
   1   0  15   16.32    1.98   1
   1   0  15   18.25    2.00   1
  -2   0 -15    3.77    1.88   1
  -2   0 -15    4.93    2.06   1
   2   0  15    9.22    2.03   1
   2   0  15    7.60    1.98   1
   2   0  15    1.55    3.50   1
  -3   0 -15   55.49    8.10   1
  -3   0 -15   60.56    3.94   1
   3   0  15   57.51    3.75   1
   3   0  15   54.38    4.62   1
   3   0  15   58.15    3.13   1
   3   0  15   58.78    2.91   1
   3   0  15   57.71    3.72   1
  -4   0 -15    6.49    2.11   1
   4   0  15    8.40    3.21   1
  -5   0 -15    1.21    2.91   1
  -5   0 -15    0.77    2.52   1
   5   0  15    0.77    3.27   1
   6  -1 -15   66.60    6.02   1
   6  -1 -15   67.61    6.23   1
  -6   1  15   77.87    6.32   1
  -6   1  15   75.50    5.18   1
   5  -1 -15    0.16    3.31   1
   5  -1 -15    2.54    3.41   1
  -5   1  15    0.18    3.11   1
  -5   1  15    0.06    4.22   1
   4  -1 -15   35.08    2.92   1
   4  -1 -15   34.03    3.47   1
   4  -1 -15   36.11    3.47   1
  -4   1  15   34.77    4.00   1
  -4   1  15   37.76    3.61   1
   3  -1 -15    7.33    1.57   1
   3  -1 -15    6.56    2.14   1
   3  -1 -15    6.83    2.19   1
  -3   1  15    4.55    2.31   1
  -3   1  15   11.43    2.39   1
   2  -1 -15   -0.71    2.26   1
   2  -1 -15    0.42    1.14   1
   2  -1 -15    0.56    2.22   1
  -2   1  15    0.13    2.28   1
  -2   1  15   -1.03    2.05   1
   1  -1 -15   68.16    3.76   1
   1  -1 -15   71.75    4.75   1
  -1   1  15   77.93    3.13   1
  -1   1  15   80.13    3.15   1
  -1   1  15   70.92    4.39   1
  -1   1  15   57.58    3.54   1
  -1   1  15   65.70    3.95   1
   0  -1 -15  154.55    5.70   1
   0  -1 -15  156.77    5.50   1
   0   1  15  150.82    7.23   1
   0   1  15  164.54    5.56   1
   0   1  15  159.40    5.29   1
   0   1  15  170.02    6.91   1
   0   1  15  158.57    8.28   1
  -1  -1 -15    7.11    1.89   1
  -1  -1 -15   10.36    2.43   1
   1   1  15   11.67    1.83   1
   1   1  15   13.37    1.86   1
   1   1  15    8.29    3.31   1
  -2  -1 -15   22.85    2.94   1
  -2  -1 -15   18.12    2.32   1
   2   1  15   22.88    1.63   1
   2   1  15   20.89    1.53   1
   2   1  15   17.45    3.76   1
  -3  -1 -15   27.54    3.32   1
  -3  -1 -15   35.32    3.09   1
   3   1  15   26.60    3.74   1
  -4  -1 -15    4.18    3.02   1
  -4  -1 -15    0.15    3.85   1
   4   1  15   -1.28    3.61   1
   6  -2 -15    1.38    3.81   1
   6  -2 -15   -0.26    5.47   1
  -6   2  15    1.69    6.17   1
  -6   2  15    2.85    5.51   1
   5  -2 -15   76.90    4.82   1
   5  -2 -15   84.34    5.45   1
  -5   2  15   84.06    6.89   1
  -5   2  15   82.80    6.11   1
   4  -2 -15    1.38    1.62   1
   4  -2 -15    3.75    4.33   1
   4  -2 -15    1.73    4.13   1
  -4   2  15    1.83    4.13   1
  -4   2  15   -0.13    3.38   1
   3  -2 -15   59.73    3.68   1
   3  -2 -15   57.34    3.68   1
   3  -2 -15   54.11    3.68   1
  -3   2  15   49.86    4.53   1
   2  -2 -15    1.32    1.09   1
   2  -2 -15    0.15    1.58   1
  -2   2  15    2.72    2.41   1
   1  -2 -15   10.65    1.64   1
   1  -2 -15    6.75    2.04   1
  -1   2  15    4.22    2.41   1
  -1   2  15    7.34    1.98   1
  -1   2  15   10.04    2.98   1
   0  -2 -15    5.55    2.12   1
   0  -2 -15    7.07    1.76   1
   0   2  15    5.28    1.46   1
   0   2  15    6.21    2.89   1
   0   2  15    9.81    1.58   1
   0   2  15    5.19    2.42   1
   0   2  15    6.17    2.41   1
  -1  -2 -15   30.61    2.72   1
  -1  -2 -15   40.19    2.75   1
   1   2  15   28.02    3.77   1
   1   2  15   36.49    4.06   1
   1   2  15   36.40    2.47   1
   1   2  15   36.28    2.43   1
   1   2  15   28.06    3.70   1
  -2  -2 -15    6.66    2.45   1
  -2  -2 -15    6.54    2.85   1
   2   2  15    5.72    3.19   1
   2   2  15    4.30    3.04   1
  -3  -2 -15   11.80    2.63   1
  -3  -2 -15    6.72    3.25   1
   3   2  15   13.34    3.62   1
   3   2  15   12.79    4.63   1
  -4  -2 -15    1.59    4.62   1
  -4  -2 -15   -0.19    3.38   1
   4   2  15    0.23    4.55   1
   6  -3 -15   -1.01    5.26   1
   6  -3 -15    1.58    3.87   1
  -6   3  15   -1.59    6.38   1
  -6   3  15    5.33    5.90   1
   5  -3 -15    0.49    3.03   1
   5  -3 -15    3.77    4.57   1
  -5   3  15    0.49    5.22   1
   4  -3 -15   23.15    3.14   1
   4  -3 -15   22.03    3.58   1
  -4   3  15   20.63    3.40   1
   3  -3 -15    2.21    2.46   1
   3  -3 -15    2.24    2.40   1
  -3   3  15    2.46    3.41   1
   2  -3 -15   64.46    4.46   1
   2  -3 -15   70.48    3.86   1
  -2   3  15   70.94    4.62   1
   1  -3 -15   48.60    3.24   1
   1  -3 -15   52.37    3.99   1
  -1   3  15   47.91    4.17   1
  -1   3  15   42.07    3.84   1
  -1   3  15   44.68    3.53   1
   0  -3 -15    7.88    1.78   1
   0  -3 -15    7.02    2.35   1
   0   3  15    1.23    3.64   1
   0   3  15    9.91    1.83   1
   0   3  15    3.53    3.61   1
   0   3  15    5.04    2.98   1
   0   3  15    8.14    1.77   1
  -1  -3 -15   43.90    4.32   1
  -1  -3 -15   36.40    3.81   1
   1   3  15   28.97    4.30   1
   1   3  15   37.12    4.28   1
   1   3  15   32.44    4.41   1
  -2  -3 -15   25.84    2.85   1
  -2  -3 -15   21.61    3.11   1
   2   3  15   17.06    4.59   1
   2   3  15   16.81    3.71   1
  -3  -3 -15    0.59    2.99   1
  -3  -3 -15   -1.30    3.84   1
   3   3  15    6.51    4.60   1
   3   3  15   -0.32    4.06   1
   5  -4 -15    0.26    3.84   1
   5  -4 -15    2.70    3.62   1
  -5   4  15   -0.82    4.40   1
   4  -4 -15   23.15    3.26   1
   4  -4 -15   23.37    3.23   1
  -4   4  15   28.00    4.02   1
   3  -4 -15   31.16    3.69   1
  -3   4  15   31.50    3.99   1
   2  -4 -15    0.23    2.42   1
  -2   4  15    3.50    3.90   1
   1  -4 -15   16.92    2.02   1
   1  -4 -15   13.29    2.51   1
  -1   4  15   13.16    3.33   1
  -1   4  15    8.56    3.68   1
   0  -4 -15    2.34    1.77   1
   0  -4 -15    0.47    2.27   1
   0   4  15    1.12    4.60   1
   0   4  15    1.40    3.45   1
   0   4  15    3.60    3.60   1
  -1  -4 -15   18.29    2.83   1
  -1  -4 -15   28.81    2.81   1
   1   4  15   24.14    3.63   1
   1   4  15   18.43    4.72   1
   1   4  15   21.14    3.87   1
  -2  -4 -15    9.30    2.87   1
  -2  -4 -15   12.40    3.46   1
   2   4  15    9.91    4.66   1
   2   4  15    5.52    4.41   1
   4  -5 -15    7.30    4.92   1
   4  -5 -15    3.61    3.22   1
  -4   5  15    2.28    6.28   1
   3  -5 -15   51.03    4.35   1
  -3   5  15   50.00    4.75   1
   2  -5 -15   53.47    3.82   1
  -2   5  15   60.55    5.21   1
   1  -5 -15   -1.65    3.05   1
  -1   5  15    0.30    3.10   1
  -1   5  15    0.29    3.32   1
  -1   5  15   -1.62    4.55   1
   0  -5 -15   90.43    6.52   1
   0   5  15   89.26    6.84   1
   0   5  15   93.70    6.69   1
   0   5  15   65.32    5.63   1
  -1  -5 -15    8.36    3.34   1
   1   5  15    8.49    4.87   1
   1   5  15    3.90    4.51   1
   1   5  15    7.80    3.73   1
   0   7 -16   10.34    5.02   1
   0   7 -16    5.03    6.62   1
   0  -7  16    2.89    3.54   1
   0  -7  16    4.15    3.57   1
   0  -7  16    0.74    3.47   1
   0  -7  16    3.57    3.64   1
  -1   7 -16   18.63    3.60   1
  -1   7 -16   18.69    5.28   1
   1  -7  16   12.78    3.18   1
   1  -7  16   11.59    3.16   1
   1  -7  16   13.15    3.30   1
   1  -7  16   12.21    3.23   1
  -2   7 -16   48.78    4.94   1
  -2   7 -16   34.45    5.10   1
   2  -7  16   35.11    3.74   1
   2  -7  16   45.59    4.03   1
   2  -7  16   45.83    3.96   1
   2  -7  16   39.73    3.98   1
  -2  -6  16    6.44    3.90   1
  -2  -6  16    3.67    3.09   1
  -2  -6  16    3.38    3.00   1
   1   6 -16   62.67    5.04   1
  -1  -6  16   68.69    4.13   1
  -1  -6  16   64.04    4.11   1
  -1  -6  16   58.53    3.94   1
   0   6 -16   10.73    4.90   1
   0   6 -16   11.97    3.00   1
   0  -6  16    9.86    2.97   1
   0  -6  16   17.14    2.97   1
   0  -6  16    6.39    2.83   1
  -1   6 -16    0.55    3.24   1
   1  -6  16    1.95    3.01   1
   1  -6  16    0.00    2.88   1
   1  -6  16    4.80    3.14   1
   1  -6  16   -0.51    2.88   1
  -2   6 -16    3.84    3.45   1
   2  -6  16    1.39    2.53   1
   2  -6  16    1.91    2.36   1
   2  -6  16    0.83    2.32   1
   2  -6  16   -0.12    2.17   1
  -3   6 -16   25.14    4.63   1
   3  -6  16   19.03    3.25   1
   3  -6  16   26.09    3.52   1
   3  -6  16   21.99    3.30   1
   3  -6  16   22.92    3.44   1
   4  -6  16    1.61    5.06   1
   4  -6  16    2.50    4.97   1
   3   5 -16   52.80    4.88   1
  -3  -5  16   62.25    4.40   1
  -3  -5  16   70.53    5.01   1
  -3  -5  16   58.84    4.44   1
   2   5 -16   88.56    5.61   1
   2   5 -16   73.36    5.67   1
   2   5 -16   91.41    5.57   1
  -2  -5  16   86.97    6.42   1
  -2  -5  16   87.48    5.85   1
  -2  -5  16   89.90    6.72   1
   1   5 -16   10.97    2.20   1
   1   5 -16    4.83    2.60   1
   1   5 -16    3.96    3.58   1
   1   5 -16    6.48    3.08   1
  -1  -5  16    8.95    2.55   1
  -1  -5  16   11.21    2.13   1
  -1  -5  16    8.30    2.52   1
   0   5 -16    4.14    4.41   1
   0  -5  16    2.96    2.79   1
   0  -5  16    3.80    2.76   1
   0  -5  16    1.35    1.61   1
  -1   5 -16   18.52    3.01   1
   1  -5  16   16.41    2.65   1
   1  -5  16   21.03    2.84   1
  -2   5 -16    5.24    2.85   1
   2  -5  16    9.11    3.66   1
   2  -5  16    6.86    3.57   1
   2  -5  16   10.40    3.63   1
   2  -5  16   12.75    3.83   1
  -3   5 -16    1.17    2.08   1
   3  -5  16    0.99    2.27   1
   3  -5  16    1.41    2.22   1
   3  -5  16    0.55    2.16   1
   3  -5  16   -0.72    2.07   1
  -4   5 -16   12.80    3.04   1
   4  -5  16   12.52    2.96   1
   4  -5  16   16.79    3.19   1
   4  -5  16   16.31    3.04   1
   4  -5  16   16.80    3.12   1
   4   4 -16   29.63    5.87   1
   4   4 -16   18.05    4.14   1
  -4  -4  16   20.30    3.13   1
  -4  -4  16   26.14    3.27   1
  -4  -4  16   32.92    4.56   1
   3   4 -16    2.16    3.84   1
   3   4 -16    1.72    3.81   1
   3   4 -16   -0.82    3.43   1
  -3  -4  16   -0.63    3.80   1
  -3  -4  16   -1.39    3.68   1
  -3  -4  16    5.61    3.93   1
   2   4 -16   17.33    4.15   1
   2   4 -16   11.20    3.92   1
   2   4 -16   10.29    3.14   1
  -2  -4  16   15.04    2.73   1
  -2  -4  16   17.88    3.14   1
  -2  -4  16   11.63    2.48   1
   1   4 -16   54.47    3.96   1
   1   4 -16   58.36    4.42   1
   1   4 -16   53.76    4.75   1
  -1  -4  16   66.11    4.18   1
  -1  -4  16   58.68    4.23   1
  -1  -4  16   65.60    3.90   1
   0   4 -16    6.82    3.76   1
   0   4 -16    2.06    2.32   1
   0   4 -16   -0.35    2.38   1
   0  -4  16    3.60    2.38   1
   0  -4  16    4.76    1.51   1
   0  -4  16    3.96    2.44   1
  -1   4 -16   10.58    2.55   1
   1  -4  16   12.15    2.44   1
   1  -4  16    9.92    2.28   1
  -2   4 -16   35.69    3.56   1
   2  -4  16   35.42    2.94   1
   2  -4  16   35.55    2.87   1
   2  -4  16   34.50    2.85   1
   2  -4  16   30.33    2.83   1
  -3   4 -16   13.61    2.59   1
   3  -4  16   19.20    2.57   1
   3  -4  16   18.04    2.62   1
   3  -4  16   18.26    2.54   1
   3  -4  16   14.10    2.45   1
  -4   4 -16   33.63    3.72   1
   4  -4  16   40.46    3.22   1
   4  -4  16   43.45    3.34   1
   4  -4  16   46.03    4.09   1
   4  -4  16   47.09    3.97   1
  -5   4 -16   18.66    3.24   1
   5  -4  16   22.22    3.22   1
   5  -4  16   22.39    3.24   1
   5  -4  16   21.08    3.26   1
   5  -4  16   23.07    3.19   1
   5   3 -16   35.85    4.90   1
   5   3 -16   34.77    6.14   1
  -5  -3  16   41.38    3.79   1
  -5  -3  16   34.32    3.72   1
  -5  -3  16   43.73    4.42   1
   4   3 -16    3.89    3.75   1
   4   3 -16    1.99    3.69   1
  -4  -3  16    8.40    3.12   1
  -4  -3  16    8.71    2.98   1
  -4  -3  16    4.99    2.87   1
   3   3 -16   57.95    4.49   1
   3   3 -16   58.24    4.64   1
   3   3 -16   62.71    4.75   1
  -3  -3  16   71.78    4.30   1
  -3  -3  16   74.38    4.36   1
  -3  -3  16   65.16    4.34   1
   2   3 -16    1.66    3.09   1
   2   3 -16    2.90    3.26   1
   2   3 -16    4.85    2.93   1
  -2  -3  16    1.04    3.32   1
  -2  -3  16    3.29    3.29   1
  -2  -3  16    3.94    2.15   1
   1   3 -16   -0.45    3.45   1
   1   3 -16    3.00    3.64   1
   1   3 -16    2.33    3.32   1
  -1  -3  16    3.70    2.36   1
  -1  -3  16    1.24    2.11   1
  -1  -3  16    4.82    2.33   1
   0   3 -16   -0.50    1.45   1
   0   3 -16   -0.58    2.40   1
   0   3 -16    0.65    1.53   1
   0  -3  16   -0.75    2.20   1
   0  -3  16    0.40    0.80   1
   0  -3  16    0.70    2.23   1
  -1   3 -16    8.13    1.84   1
  -1   3 -16    9.78    2.65   1
  -1   3 -16   11.58    1.91   1
   1  -3  16   15.99    2.88   1
   1  -3  16   12.67    2.68   1
  -2   3 -16   31.16    2.82   1
  -2   3 -16   33.04    2.47   1
  -2   3 -16   26.08    2.15   1
   2  -3  16   28.47    2.52   1
   2  -3  16   28.18    2.50   1
  -3   3 -16   20.21    3.14   1
   3  -3  16   29.15    3.12   1
   3  -3  16   29.17    3.07   1
   3  -3  16   21.82    2.37   1
   3  -3  16   25.56    2.44   1
  -4   3 -16   18.07    2.76   1
   4  -3  16   28.24    3.42   1
   4  -3  16   23.88    2.64   1
   4  -3  16   27.25    3.28   1
   4  -3  16   25.39    2.69   1
  -5   3 -16   30.45    3.45   1
   5  -3  16   29.45    3.05   1
   5  -3  16   27.25    3.71   1
   5  -3  16   28.90    3.80   1
   5  -3  16   28.57    3.05   1
   5   2 -16    6.57    4.48   1
   5   2 -16    6.48    5.86   1
  -5  -2  16    5.60    3.36   1
  -5  -2  16   12.23    3.45   1
  -5  -2  16    6.66    3.27   1
   4   2 -16   25.04    3.84   1
   4   2 -16   24.51    3.96   1
  -4  -2  16   21.58    2.93   1
  -4  -2  16   23.99    3.05   1
   3   2 -16    2.26    3.27   1
   3   2 -16    3.37    2.82   1
   3   2 -16    1.54    3.34   1
  -3  -2  16    2.52    2.59   1
  -3  -2  16    4.09    2.75   1
  -3  -2  16    6.61    2.68   1
   2   2 -16   76.55    5.17   1
   2   2 -16   75.97    4.28   1
   2   2 -16   79.74    4.80   1
  -2  -2  16   82.70    3.98   1
  -2  -2  16   83.74    4.11   1
  -2  -2  16   81.88    3.79   1
   1   2 -16   -0.69    1.36   1
   1   2 -16   -1.93    2.16   1
   1   2 -16   -0.25    2.20   1
  -1  -2  16    0.23    1.06   1
  -1  -2  16    0.32    1.34   1
  -1  -2  16   -0.90    1.39   1
   0   2 -16   58.10    3.53   1
   0   2 -16   55.79    3.42   1
   0   2 -16   54.00    3.50   1
   0  -2  16   61.28    3.09   1
   0  -2  16   59.18    2.98   1
   0  -2  16   59.43    4.95   1
  -1   2 -16   38.51    3.89   1
  -1   2 -16   36.76    3.10   1
   1  -2  16   42.20    2.62   1
   1  -2  16   37.85    2.58   1
  -2   2 -16  164.33    8.84   1
  -2   2 -16  144.90    6.73   1
   2  -2  16  151.99    6.75   1
   2  -2  16  141.23    6.58   1
  -3   2 -16   11.43    2.95   1
  -3   2 -16   12.78    1.91   1
   3  -2  16   13.59    2.44   1
   3  -2  16   13.69    2.54   1
   3  -2  16   15.09    2.64   1
   3  -2  16   11.96    2.46   1
  -4   2 -16   18.38    3.38   1
   4  -2  16   21.89    2.36   1
   4  -2  16   23.75    2.55   1
   4  -2  16   26.17    2.55   1
   4  -2  16   21.93    2.38   1
  -5   2 -16    0.55    3.11   1
   6   1 -16    3.53   11.48   1
   6   1 -16    7.55    9.91   1
  -6  -1  16    7.07    4.38   1
   5   1 -16   20.33    3.98   1
   5   1 -16   25.61    4.09   1
  -5  -1  16   33.22    4.09   1
   4   1 -16    5.73    2.75   1
   4   1 -16    8.54    3.59   1
   4   1 -16    7.78    3.62   1
  -4  -1  16    6.19    4.25   1
  -4  -1  16    3.32    2.27   1
   3   1 -16    5.89    2.36   1
   3   1 -16    4.58    2.79   1
   3   1 -16    4.92    3.00   1
  -3  -1  16    4.64    2.34   1
  -3  -1  16    4.24    2.48   1
  -3  -1  16    6.51    2.66   1
  -3  -1  16    4.77    3.43   1
   2   1 -16    8.25    3.06   1
   2   1 -16    5.76    2.22   1
   2   1 -16   11.91    2.57   1
  -2  -1  16    8.85    2.80   1
  -2  -1  16    7.89    2.75   1
  -2  -1  16   11.97    2.22   1
  -2  -1  16   10.11    2.30   1
   1   1 -16   77.14    4.05   1
   1   1 -16   82.02    5.38   1
   1   1 -16   71.78    4.56   1
  -1  -1  16   75.87    3.38   1
  -1  -1  16   80.17    4.20   1
  -1  -1  16   78.64    3.47   1
   0   1 -16    2.52    2.08   1
   0   1 -16    2.87    2.36   1
   0  -1  16    0.03    1.66   1
   0  -1  16    3.38    1.50   1
   0  -1  16    4.34    1.82   1
  -1   1 -16  203.43   11.85   1
  -1   1 -16  197.93   10.55   1
   1  -1  16  195.42    7.32   1
   1  -1  16  195.18    8.45   1
  -2   1 -16   16.61    2.48   1
  -2   1 -16   17.82    2.31   1
   2  -1  16   13.86    2.61   1
   2  -1  16   20.12    2.39   1
  -3   1 -16    0.21    1.79   1
  -3   1 -16    0.13    1.46   1
   3  -1  16   -0.52    1.38   1
   3  -1  16    0.42    1.41   1
   3  -1  16    0.78    1.43   1
   3  -1  16   -0.15    1.32   1
   3  -1  16    0.70    2.34   1
  -4   1 -16    2.67    2.83   1
  -4   1 -16    3.48    2.79   1
   4  -1  16    0.99    3.18   1
  -5   1 -16    8.81    3.26   1
   5  -1  16    9.62    5.41   1
   6   0 -16   16.46    4.26   1
   6   0 -16   19.25    4.43   1
  -6   0  16   21.63    5.37   1
   5   0 -16   56.03    5.41   1
   5   0 -16   48.56    4.63   1
  -5   0  16   54.55    4.13   1
  -5   0  16   65.32    4.79   1
   4   0 -16   16.33    3.18   1
   4   0 -16    8.71    3.10   1
   4   0 -16    7.33    3.99   1
  -4   0  16    7.95    2.78   1
  -4   0  16   10.05    2.91   1
   3   0 -16   31.86    3.21   1
   3   0 -16   40.79    3.53   1
   3   0 -16   40.46    2.82   1
  -3   0  16   38.48    3.34   1
  -3   0  16   44.41    3.80   1
   2   0 -16   19.78    2.57   1
   2   0 -16   26.34    2.27   1
   2   0 -16   19.93    2.55   1
  -2   0  16   25.30    2.48   1
  -2   0  16   26.00    2.85   1
  -2   0  16   21.28    2.40   1
  -2   0  16   22.01    3.33   1
   1   0 -16   17.71    2.21   1
   1   0 -16   13.09    2.68   1
   1   0 -16   16.87    2.22   1
  -1   0  16   15.55    2.60   1
  -1   0  16   16.94    2.12   1
  -1   0  16   16.86    1.83   1
  -1   0  16   21.93    2.26   1
   0   0 -16  144.41    6.03   1
   0   0 -16  147.91    7.36   1
   0   0  16  148.35    6.63   1
   0   0  16  143.30    9.62   1
   0   0  16  151.11    7.14   1
   0   0  16  150.21    9.87   1
  -1   0 -16    1.39    1.73   1
  -1   0 -16   -0.15    1.67   1
   1   0  16    2.53    1.51   1
   1   0  16    1.26    1.45   1
   1   0  16   -0.31    2.09   1
  -2   0 -16    6.55    2.49   1
  -2   0 -16    9.62    2.19   1
   2   0  16    9.92    2.03   1
   2   0  16    7.26    1.94   1
   2   0  16    5.81    3.54   1
  -3   0 -16   12.51    3.37   1
  -3   0 -16    8.40    2.71   1
   3   0  16    5.53    3.89   1
  -4   0 -16    1.98    3.01   1
  -4   0 -16   -0.18    2.36   1
   4   0  16   -1.62    2.98   1
   6  -1 -16   17.99    5.26   1
   6  -1 -16   16.32    4.25   1
  -6   1  16   19.58    4.25   1
   5  -1 -16    1.73    3.24   1
   5  -1 -16   -3.04    3.04   1
  -5   1  16    0.81    3.07   1
  -5   1  16   -0.50    4.14   1
   4  -1 -16    1.81    3.01   1
   4  -1 -16    3.01    3.21   1
   4  -1 -16    6.18    3.04   1
  -4   1  16    2.78    3.24   1
  -4   1  16    4.50   10.34   1
   3  -1 -16    0.88    1.44   1
   3  -1 -16   -0.20    2.23   1
   3  -1 -16    0.82    2.14   1
  -3   1  16    0.34    2.26   1
  -3   1  16   -0.14    3.73   1
   2  -1 -16   42.78    3.18   1
   2  -1 -16   45.69    3.31   1
  -2   1  16   49.88    3.25   1
  -2   1  16   36.89    3.49   1
   1  -1 -16   95.36    5.05   1
   1  -1 -16   88.69    4.83   1
  -1   1  16  101.60    4.55   1
  -1   1  16   88.65    5.17   1
  -1   1  16  104.72    4.41   1
  -1   1  16   85.31    4.70   1
  -1   1  16   94.30    3.99   1
   0  -1 -16    5.32    2.53   1
   0  -1 -16    4.03    2.11   1
   0   1  16   -1.20    2.95   1
   0   1  16    6.55    1.85   1
   0   1  16    5.72    2.08   1
   0   1  16    5.46    1.85   1
   0   1  16    2.24    2.82   1
  -1  -1 -16   16.03    2.79   1
  -1  -1 -16   19.24    2.64   1
   1   1  16   23.15    2.10   1
   1   1  16   12.43    3.30   1
   1   1  16   20.89    2.06   1
  -2  -1 -16   -0.26    3.06   1
  -2  -1 -16    5.32    6.23   1
   2   1  16    0.88    4.49   1
  -3  -1 -16   37.25    3.38   1
  -3  -1 -16   31.42    3.09   1
   3   1  16   28.50    3.77   1
  -4  -1 -16   71.96    5.76   1
  -4  -1 -16   56.82    3.89   1
   4   1  16   64.00    6.18   1
   6  -2 -16   43.13    4.70   1
   6  -2 -16   48.36    5.59   1
  -6   2  16   51.76    4.61   1
  -6   2  16   52.68    5.17   1
   5  -2 -16    0.85    3.83   1
   5  -2 -16    1.42    3.82   1
  -5   2  16   -1.81    3.01   1
  -5   2  16   -0.80    3.01   1
   4  -2 -16  209.12   10.46   1
   4  -2 -16  199.56    7.95   1
  -4   2  16  223.99   13.37   1
  -4   2  16  227.62   13.99   1
   3  -2 -16    9.12    3.12   1
   3  -2 -16   14.02    2.12   1
   3  -2 -16   11.04    3.22   1
  -3   2  16    8.10    2.99   1
   2  -2 -16   42.12    2.60   1
   2  -2 -16   41.19    3.59   1
  -2   2  16   45.98    3.98   1
   1  -2 -16    1.78    1.49   1
   1  -2 -16    0.41    3.06   1
  -1   2  16    0.51    1.97   1
  -1   2  16    0.57    2.45   1
  -1   2  16    0.38    2.86   1
  -1   2  16    1.78    2.79   1
  -1   2  16    3.18    2.51   1
   0  -2 -16    7.46    2.35   1
   0  -2 -16    8.14    1.87   1
   0   2  16    1.90    3.15   1
   0   2  16    4.49    3.48   1
   0   2  16    5.97    3.09   1
   0   2  16    8.98    1.76   1
   0   2  16    7.13    1.66   1
  -1  -2 -16    7.92    2.23   1
  -1  -2 -16    9.01    2.57   1
   1   2  16    3.05    3.63   1
   1   2  16    6.18    2.68   1
   1   2  16   12.78    3.37   1
  -2  -2 -16    5.00    2.53   1
  -2  -2 -16    9.58    2.71   1
   2   2  16    2.35    4.59   1
   2   2  16    3.51    3.49   1
  -3  -2 -16    2.75    3.20   1
  -3  -2 -16    2.37    2.88   1
   3   2  16    2.94    5.89   1
   5  -3 -16   39.19    4.77   1
   5  -3 -16   42.43    4.97   1
  -5   3  16   43.91    4.57   1
  -5   3  16   37.52    4.39   1
   4  -3 -16   -0.20    3.05   1
   4  -3 -16   -0.75    3.30   1
  -4   3  16   -0.84    2.83   1
   3  -3 -16   20.21    3.45   1
   3  -3 -16   26.17    3.03   1
  -3   3  16   23.85    3.80   1
   2  -3 -16    0.81    2.94   1
   2  -3 -16    0.67    1.05   1
  -2   3  16   -0.64    2.93   1
   1  -3 -16    9.96    2.44   1
   1  -3 -16   15.11    2.27   1
  -1   3  16    5.82    2.49   1
  -1   3  16   10.89    3.46   1
  -1   3  16    5.21    3.32   1
   0  -3 -16   37.77    2.86   1
   0  -3 -16   33.52    3.06   1
   0   3  16   37.25    3.96   1
   0   3  16   30.35    3.73   1
   0   3  16   27.48    3.59   1
  -1  -3 -16    1.24    1.60   1
  -1  -3 -16    1.53    1.94   1
   1   3  16   -2.62    2.62   1
   1   3  16    0.90    2.61   1
   1   3  16    0.44    2.47   1
  -2  -3 -16   -2.17    2.90   1
  -2  -3 -16    1.69    3.65   1
   2   3  16   -0.32    3.39   1
   2   3  16    1.72    3.60   1
   5  -4 -16   33.55    4.04   1
   5  -4 -16   25.48    3.83   1
  -5   4  16   25.51    5.55   1
   4  -4 -16   34.92    4.00   1
   4  -4 -16   34.03    3.75   1
  -4   4  16   38.82    4.68   1
   3  -4 -16   -0.37    2.81   1
  -3   4  16    0.92    3.85   1
   2  -4 -16    3.42    2.67   1
  -2   4  16    2.40    5.07   1
   1  -4 -16   13.59    2.65   1
  -1   4  16   17.28    3.75   1
   0  -4 -16    2.49    2.79   1
   0  -4 -16    1.60    1.79   1
   0   4  16   -1.12    5.18   1
   0   4  16    1.82    5.32   1
   0   4  16   -0.45    5.19   1
  -1  -4 -16   82.95    6.19   1
  -1  -4 -16   63.22    6.17   1
   1   4  16   65.69    6.21   1
   1   4  16   71.60    5.78   1
   1   4  16   66.39    5.37   1
   3  -5 -16  100.01    7.15   1
  -3   5  16  104.39    9.81   1
   2  -5 -16    3.90    4.28   1
  -2   5  16    8.01    6.30   1
   1  -5 -16   99.29    7.47   1
  -1   5  16  118.31    7.71   1
  -2  -6  17    5.76    3.44   1
   1   6 -17    5.52    5.55   1
  -1  -6  17    4.61    3.26   1
  -1  -6  17    6.66    3.29   1
  -1  -6  17    8.49    2.58   1
   0   6 -17    9.43    3.83   1
   0   6 -17   13.51    3.13   1
   0  -6  17   11.79    3.25   1
   0  -6  17    6.96    3.02   1
  -1   6 -17   21.48    3.89   1
   1  -6  17   18.44    3.21   1
   1  -6  17   17.69    3.19   1
   1  -6  17   18.54    3.23   1
   1  -6  17   15.09    3.11   1
  -2   6 -17    6.27    3.49   1
   2  -6  17    8.04    3.29   1
   2  -6  17   11.76    3.69   1
   2  -6  17    3.78    2.95   1
   2  -6  17    7.02    3.24   1
  -3   6 -17    2.89    5.24   1
   3  -6  17    2.57    3.61   1
   3  -6  17    8.20    3.80   1
   3  -6  17    0.38    3.58   1
   3  -6  17    2.32    3.61   1
   3   5 -17    3.52    4.71   1
  -3  -5  17    5.79    4.77   1
  -3  -5  17    6.41    3.59   1
  -3  -5  17    0.86    3.24   1
   2   5 -17   14.34    5.04   1
   2   5 -17    5.96    3.26   1
   2   5 -17    7.52    3.66   1
  -2  -5  17    8.33    3.68   1
  -2  -5  17    7.60    3.63   1
  -2  -5  17   14.00    3.50   1
   1   5 -17    1.66    3.61   1
  -1  -5  17    2.28    2.80   1
  -1  -5  17    2.99    4.04   1
  -1  -5  17    3.42    4.00   1
   0   5 -17    2.57    3.17   1
   0  -5  17    0.54    2.74   1
   0  -5  17    1.56    2.67   1
  -1   5 -17    1.53    2.13   1
   1  -5  17    0.05    1.95   1
   1  -5  17    0.00    1.92   1
  -2   5 -17   -0.15    2.33   1
   2  -5  17    2.29    3.08   1
   2  -5  17    0.17    2.06   1
   2  -5  17    0.91    2.13   1
   2  -5  17    0.66    3.10   1
  -3   5 -17   19.97    3.16   1
   3  -5  17   20.19    2.99   1
   3  -5  17   15.76    2.99   1
   3  -5  17   16.87    2.96   1
   3  -5  17   17.76    2.96   1
  -4   5 -17   15.22    3.40   1
   4  -5  17   12.56    3.16   1
   4  -5  17   12.35    3.19   1
   4  -5  17   10.43    3.19   1
   4  -5  17   10.35    2.97   1
   4   4 -17    2.37    4.61   1
   4   4 -17    0.19    4.78   1
  -4  -4  17    0.43    3.31   1
  -4  -4  17    1.29    4.75   1
  -4  -4  17    2.99    4.41   1
   3   4 -17   63.70    4.99   1
   3   4 -17   50.60    5.56   1
   3   4 -17   61.55    5.10   1
  -3  -4  17   60.56    3.96   1
  -3  -4  17   74.55    4.49   1
  -3  -4  17   57.21    3.92   1
   2   4 -17   69.66    5.33   1
   2   4 -17   71.36    4.90   1
   2   4 -17   84.88    5.11   1
  -2  -4  17   72.60    4.68   1
  -2  -4  17   64.57    4.38   1
  -2  -4  17   76.18    5.27   1
   1   4 -17   40.32    3.85   1
   1   4 -17   30.04    4.18   1
   1   4 -17   22.13    3.81   1
  -1  -4  17   29.31    2.95   1
  -1  -4  17   28.01    2.88   1
  -1  -4  17   32.56    3.11   1
   0   4 -17   72.68    5.21   1
   0   4 -17   78.94    4.78   1
   0   4 -17   64.72    4.37   1
   0  -4  17   76.24    3.88   1
   0  -4  17   77.22    4.33   1
  -1   4 -17    4.25    2.53   1
   1  -4  17    7.99    2.44   1
   1  -4  17    5.66    2.42   1
  -2   4 -17   19.12    2.71   1
   2  -4  17   25.21    2.77   1
   2  -4  17   26.97    2.89   1
   2  -4  17   27.18    2.82   1
   2  -4  17   17.45    2.52   1
  -3   4 -17  113.46    7.73   1
   3  -4  17  116.07    6.12   1
   3  -4  17  119.21    5.67   1
   3  -4  17  120.58    6.36   1
   3  -4  17  111.29    6.23   1
  -4   4 -17    1.88    2.19   1
   4  -4  17    2.04    3.10   1
   4  -4  17    0.46    2.06   1
   4  -4  17    0.75    3.15   1
   4  -4  17   -0.54    3.16   1
   4   3 -17   -1.35    3.68   1
   4   3 -17    2.47    5.37   1
  -4  -3  17    1.59    3.62   1
  -4  -3  17    1.22    2.55   1
  -4  -3  17   -0.03    3.67   1
   3   3 -17   16.42    4.50   1
   3   3 -17   21.33    4.53   1
  -3  -3  17   22.86    3.06   1
  -3  -3  17   20.76    2.99   1
   2   3 -17    3.22    9.36   1
   2   3 -17    2.26    3.02   1
   2   3 -17   -2.92   10.42   1
  -2  -3  17    4.18    3.28   1
  -2  -3  17    1.33    2.49   1
  -2  -3  17    2.10    2.63   1
   1   3 -17   78.72    6.45   1
   1   3 -17   86.83    4.73   1
   1   3 -17   88.54    6.49   1
  -1  -3  17   86.81    4.22   1
  -1  -3  17   77.96    5.57   1
  -1  -3  17   82.29    3.94   1
   0   3 -17    7.37    2.30   1
   0   3 -17    7.84    3.25   1
   0   3 -17    6.16    2.21   1
   0  -3  17    8.12    2.30   1
   0  -3  17   10.84    2.41   1
  -1   3 -17   15.09    2.19   1
  -1   3 -17   17.40    2.48   1
  -1   3 -17   18.59    2.68   1
   1  -3  17   19.79    2.53   1
   1  -3  17   21.66    2.50   1
  -2   3 -17   79.54    4.91   1
   2  -3  17   69.58    3.90   1
   2  -3  17   77.93    4.82   1
  -3   3 -17    2.50    2.57   1
   3  -3  17    3.44    2.47   1
   3  -3  17    4.68    2.57   1
   3  -3  17    3.60    3.47   1
   3  -3  17    6.27    3.44   1
  -4   3 -17   30.10    3.33   1
   4  -3  17   26.81    3.36   1
   4  -3  17   30.68    3.52   1
   4  -3  17   32.10    3.52   1
   4  -3  17   39.80    3.85   1
   5   2 -17    0.10    4.74   1
   5   2 -17   -1.35    4.74   1
  -5  -2  17    5.16    3.49   1
  -5  -2  17    2.66    3.65   1
  -5  -2  17    7.04    3.69   1
   4   2 -17   92.76    7.43   1
   4   2 -17   99.53    7.81   1
  -4  -2  17  112.20    5.61   1
  -4  -2  17  110.72    6.18   1
  -4  -2  17  121.05    7.04   1
   3   2 -17   94.70    5.59   1
   3   2 -17   99.06    6.31   1
   3   2 -17   89.67    5.83   1
  -3  -2  17   90.64    4.80   1
  -3  -2  17   95.11    6.19   1
  -3  -2  17  100.27    4.91   1
   2   2 -17    0.85    2.73   1
   2   2 -17   -0.97    3.10   1
   2   2 -17    1.00    2.52   1
  -2  -2  17    3.35    2.43   1
  -2  -2  17    0.67    1.91   1
  -2  -2  17    2.22    2.37   1
   1   2 -17  104.19    5.00   1
   1   2 -17  110.39    4.53   1
   1   2 -17  106.84    5.57   1
  -1  -2  17  117.10    4.95   1
  -1  -2  17  104.89    5.86   1
  -1  -2  17  113.79    8.27   1
   0   2 -17    4.75    1.97   1
   0   2 -17    8.50    2.22   1
   0   2 -17    4.30    1.97   1
   0  -2  17    6.66    2.03   1
   0  -2  17   10.42    2.19   1
  -1   2 -17    1.21    2.03   1
  -1   2 -17    2.69    1.94   1
  -1   2 -17    2.09    2.09   1
   1  -2  17    1.51    2.13   1
   1  -2  17    2.88    2.16   1
  -2   2 -17    4.05    2.17   1
  -2   2 -17    3.49    2.52   1
   2  -2  17    4.28    2.02   1
   2  -2  17    5.72    2.05   1
  -3   2 -17    1.75    3.23   1
  -3   2 -17    0.18    1.66   1
   3  -2  17    2.87    2.83   1
   3  -2  17    0.46    2.80   1
   3  -2  17    2.06    2.71   1
   3  -2  17    1.42    2.90   1
  -4   2 -17    8.51    3.49   1
   4  -2  17   14.77    2.43   1
   4  -2  17   14.50    2.36   1
   4  -2  17   13.64    2.49   1
   4  -2  17   12.91    2.30   1
   5   1 -17   10.17    3.97   1
   5   1 -17    9.20    3.99   1
  -5  -1  17   13.68    4.68   1
   4   1 -17   -2.04    2.04   1
   4   1 -17    0.10    3.69   1
   4   1 -17   -1.70    3.83   1
  -4  -1  17    1.61    2.47   1
  -4  -1  17    0.24    1.87   1
   3   1 -17    1.74    3.00   1
   3   1 -17    1.29    3.18   1
   3   1 -17   -0.55    2.63   1
  -3  -1  17    3.70    2.60   1
  -3  -1  17    0.76    2.45   1
  -3  -1  17   -0.80    2.45   1
  -3  -1  17    0.06    2.20   1
   2   1 -17   -2.32    2.91   1
   2   1 -17   -0.41    2.21   1
   2   1 -17    0.71    2.06   1
  -2  -1  17    0.17    2.57   1
  -2  -1  17    0.46    1.58   1
  -2  -1  17   -0.91    2.64   1
  -2  -1  17   -0.23    2.74   1
   1   1 -17    0.56    2.55   1
   1   1 -17    0.98    2.21   1
   1   1 -17   -0.08    2.42   1
  -1  -1  17   -1.44    2.34   1
  -1  -1  17    0.10    1.21   1
  -1  -1  17   -1.61    2.38   1
   0   1 -17  142.27    5.76   1
   0   1 -17  142.23    7.80   1
   0   1 -17  135.28    9.47   1
   0  -1  17  140.38    4.64   1
   0  -1  17  143.73    5.08   1
  -1   1 -17  167.83    8.66   1
  -1   1 -17  163.40    7.36   1
   1  -1  17  166.00    6.59   1
   1  -1  17  161.89    6.61   1
  -2   1 -17   34.66    2.95   1
  -2   1 -17   28.50    2.88   1
   2  -1  17   39.45    2.69   1
   2  -1  17   40.45    2.56   1
  -3   1 -17   23.26    2.85   1
   3  -1  17   25.96    2.26   1
   3  -1  17   30.70    2.38   1
   3  -1  17   21.89    3.34   1
   3  -1  17   29.92    2.36   1
   3  -1  17   29.54    2.40   1
  -4   1 -17    2.11    2.23   1
  -4   1 -17    6.58    3.11   1
   4  -1  17    2.08    3.65   1
   5   0 -17   20.39    5.30   1
   5   0 -17   28.14    5.65   1
  -5   0  17   32.00    4.11   1
   4   0 -17   31.20    3.02   1
   4   0 -17   28.54    4.44   1
   4   0 -17   32.16    4.62   1
  -4   0  17   33.07    4.16   1
  -4   0  17   41.46    3.84   1
   3   0 -17    2.74    2.62   1
   3   0 -17    3.94    2.68   1
   3   0 -17    7.47    2.25   1
  -3   0  17   -0.09    3.48   1
  -3   0  17    7.16    3.36   1
   2   0 -17   23.67    2.96   1
   2   0 -17   29.97    2.89   1
   2   0 -17   21.83    2.86   1
  -2   0  17   24.72    3.10   1
  -2   0  17   28.64    3.22   1
  -2   0  17   30.18    3.07   1
  -2   0  17   20.96    3.60   1
   1   0 -17   -0.47    1.61   1
   1   0 -17    1.01    1.28   1
   1   0 -17   -0.76    1.75   1
  -1   0  17    1.06    1.53   1
  -1   0  17   -0.72    1.97   1
  -1   0  17    3.08    1.78   1
  -1   0  17    0.89    1.49   1
   0   0 -17   13.26    2.59   1
   0   0 -17    8.13    2.24   1
   0   0  17    8.44    2.07   1
   0   0  17   10.59    1.99   1
   0   0  17   10.76    1.99   1
  -1   0 -17   11.36    2.16   1
  -1   0 -17   14.10    2.27   1
   1   0  17    7.41    2.32   1
   1   0  17   13.18    2.32   1
   1   0  17   15.92    2.37   1
  -2   0 -17   -0.30    1.70   1
  -2   0 -17    0.85    1.63   1
   2   0  17    0.75    1.27   1
   2   0  17    1.42    1.32   1
   2   0  17   -0.67    3.10   1
  -3   0 -17    1.50    2.58   1
  -3   0 -17    1.95    2.22   1
   3   0  17    2.22    3.36   1
  -4   0 -17    0.87    2.76   1
  -4   0 -17    5.45    3.53   1
   4   0  17    0.45    4.25   1
   5  -1 -17    4.16    4.30   1
   5  -1 -17    2.18    5.62   1
  -5   1  17    2.08    3.80   1
  -5   1  17   -2.11    5.36   1
   4  -1 -17   12.21    2.30   1
   4  -1 -17    8.95    3.19   1
   4  -1 -17    7.52    3.03   1
  -4   1  17   15.81    3.42   1
  -4   1  17    9.34    3.34   1
   3  -1 -17   74.51    4.85   1
   3  -1 -17   69.98    4.68   1
   3  -1 -17   73.79    4.66   1
  -3   1  17   89.05    5.56   1
  -3   1  17   82.09    5.11   1
   2  -1 -17    1.52    2.03   1
   2  -1 -17   -1.90    2.06   1
   2  -1 -17    0.64    2.00   1
  -2   1  17    2.04    2.50   1
  -2   1  17    0.38    2.07   1
   1  -1 -17  103.58    6.99   1
   1  -1 -17   98.76    5.43   1
  -1   1  17  100.28    5.29   1
  -1   1  17  103.94    5.43   1
  -1   1  17  113.73    4.87   1
  -1   1  17   96.32    5.29   1
   0  -1 -17   58.41    3.46   1
   0  -1 -17   64.14    4.15   1
   0   1  17   61.76    3.33   1
   0   1  17   47.61    4.05   1
   0   1  17   59.32    2.73   1
   0   1  17   54.46    4.63   1
  -1  -1 -17   13.63    2.17   1
  -1  -1 -17   11.43    2.81   1
   1   1  17   18.18    1.85   1
   1   1  17   18.13    1.85   1
  -2  -1 -17   56.39    4.40   1
  -2  -1 -17   51.75    4.64   1
   2   1  17   52.02    4.49   1
  -3  -1 -17   17.22    3.28   1
  -3  -1 -17   23.73    3.14   1
   3   1  17   16.49    3.61   1
   5  -2 -17   21.44    3.71   1
   5  -2 -17   26.89    4.94   1
  -5   2  17   17.07    3.95   1
  -5   2  17   24.95    4.23   1
   4  -2 -17   -2.33    3.42   1
   4  -2 -17   -1.11    2.38   1
  -4   2  17    1.21    3.07   1
  -4   2  17   -1.89    2.71   1
   3  -2 -17   18.38    3.18   1
   3  -2 -17   16.25    3.05   1
   3  -2 -17   19.76    2.54   1
  -3   2  17   13.56    3.48   1
  -3   2  17   20.39    3.30   1
   2  -2 -17    0.03    1.20   1
   2  -2 -17    0.40    1.99   1
  -2   2  17   -0.45    3.68   1
   1  -2 -17   -1.15    1.37   1
   1  -2 -17    0.88    2.04   1
  -1   2  17    0.70    1.74   1
  -1   2  17    0.86    1.78   1
  -1   2  17   -1.38    2.76   1
   0  -2 -17    6.94    2.70   1
   0  -2 -17    2.24    2.44   1
   0   2  17    0.82    2.86   1
   0   2  17    5.73    2.34   1
   0   2  17    2.37    2.30   1
   0   2  17    4.48    3.46   1
  -1  -2 -17    0.60    2.55   1
  -1  -2 -17    2.08    2.11   1
   1   2  17    0.87    3.35   1
  -2  -2 -17   16.96    3.26   1
   2   2  17   17.02    3.62   1
  -3  -2 -17    2.45    2.99   1
  -3  -2 -17    7.91    4.27   1
   3   2  17    5.24    5.69   1
   5  -3 -17    6.33    5.54   1
   5  -3 -17    7.76    5.39   1
  -5   3  17    8.49    6.63   1
  -5   3  17    3.14    4.29   1
   4  -3 -17   57.06    4.96   1
   4  -3 -17   61.89    5.07   1
  -4   3  17   71.82    5.50   1
   3  -3 -17   -2.08    2.20   1
   3  -3 -17   -1.47    2.07   1
  -3   3  17   -0.66    2.87   1
   2  -3 -17  135.49    9.32   1
  -2   3  17  143.93    9.12   1
   1  -3 -17   34.72    2.62   1
   1  -3 -17   27.27    3.05   1
  -1   3  17   23.71    3.73   1
  -1   3  17   29.01    2.58   1
  -1   3  17   27.41    2.27   1
   0  -3 -17    2.30    1.90   1
   0  -3 -17   -1.62    3.61   1
   0   3  17    1.42    3.28   1
   0   3  17   -0.81    4.49   1
   0   3  17    0.10    3.76   1
  -1  -3 -17   36.69    4.31   1
   1   3  17   44.28    4.45   1
   1   3  17   34.10    4.75   1
   1   3  17   52.14    5.60   1
  -2  -3 -17    1.87    4.47   1
  -2  -3 -17    1.43    2.95   1
   2   3  17    0.45    4.58   1
   2   3  17    1.15    4.58   1
   4  -4 -17   -0.30    3.03   1
   4  -4 -17   -0.03    4.26   1
  -4   4  17   -4.00    5.95   1
   3  -4 -17    1.08    2.29   1
   3  -4 -17    0.64    3.45   1
  -3   4  17   -1.01    4.79   1
   2  -4 -17   20.31    3.13   1
  -2   4  17   19.30    4.13   1
   1  -4 -17    2.96    2.90   1
  -1   4  17    2.80    5.89   1
   0  -4 -17   24.31    3.22   1
   0   4  17   19.54    3.82   1
   0   4  17   28.21    4.34   1
   0   4  17   18.41    3.80   1
   0   6 -18   31.13    4.45   1
   0  -6  18   27.24    3.52   1
   0  -6  18   29.47    3.57   1
  -1   6 -18   -1.57    2.91   1
   1  -6  18   -1.62    2.52   1
   1  -6  18   -1.27    2.56   1
   1  -6  18    1.49    2.64   1
   1  -6  18    0.44    2.58   1
   2  -6  18    3.08    3.68   1
   2  -6  18    2.08    3.40   1
   2  -6  18    2.39    3.49   1
   2  -6  18    5.69    3.97   1
   2   5 -18    2.02    4.11   1
  -2  -5  18    3.51    3.42   1
  -2  -5  18    1.90    2.68   1
  -2  -5  18   -1.31    3.20   1
   1   5 -18    2.96    3.34   1
  -1  -5  18    0.73    2.44   1
  -1  -5  18    1.11    2.50   1
   0   5 -18    6.89    3.20   1
   0  -5  18   10.09    3.03   1
   0  -5  18    8.23    2.90   1
  -1   5 -18    1.41    4.19   1
   1  -5  18   -0.62    3.01   1
   1  -5  18    0.92    3.11   1
  -2   5 -18    2.97    3.44   1
   2  -5  18    6.75    4.45   1
   2  -5  18    5.24    3.16   1
   2  -5  18    3.03    3.12   1
   2  -5  18    5.33    4.33   1
  -3   5 -18    1.22    4.09   1
   3  -5  18   -0.67    2.54   1
   3  -5  18   -0.27    2.59   1
   3  -5  18    0.09    2.85   1
   3  -5  18   -0.96    2.92   1
   3   4 -18    1.31    4.27   1
   3   4 -18   -0.13    4.27   1
   3   4 -18    9.88    4.37   1
  -3  -4  18    7.20    3.41   1
  -3  -4  18    2.90    3.38   1
  -3  -4  18    6.85    3.51   1
   2   4 -18    4.85    4.85   1
   2   4 -18    2.83    3.60   1
   2   4 -18    5.40    3.48   1
  -2  -4  18    6.64    2.92   1
  -2  -4  18   10.16    3.61   1
  -2  -4  18    6.17    2.92   1
   1   4 -18   30.12    3.65   1
   1   4 -18   24.10    3.35   1
   1   4 -18   22.30    3.49   1
  -1  -4  18   27.06    3.65   1
  -1  -4  18   23.56    3.54   1
   0   4 -18    1.99    3.94   1
   0  -4  18    3.81    2.71   1
   0  -4  18    5.32    2.89   1
  -1   4 -18   22.86    3.20   1
   1  -4  18   22.48    3.45   1
   1  -4  18   20.98    3.36   1
  -2   4 -18    3.30    2.91   1
   2  -4  18    2.34    2.94   1
   2  -4  18    3.24    2.80   1
   2  -4  18    2.34    2.77   1
   2  -4  18    2.47    2.91   1
  -3   4 -18   39.47    4.17   1
   3  -4  18   43.64    3.42   1
   3  -4  18   40.07    3.17   1
   3  -4  18   41.26    3.28   1
   3  -4  18   41.89    3.48   1
   4   3 -18   26.15    4.46   1
   4   3 -18   23.59    4.48   1
  -4  -3  18   32.04    3.57   1
  -4  -3  18   36.43    4.64   1
  -4  -3  18   28.61    3.41   1
   3   3 -18   -0.95    4.18   1
   3   3 -18    4.87    3.75   1
   3   3 -18    2.21    4.18   1
  -3  -3  18    2.95    3.38   1
  -3  -3  18    5.16    4.34   1
  -3  -3  18    3.39    3.42   1
   2   3 -18   34.43    3.59   1
   2   3 -18   22.58    3.34   1
   2   3 -18   25.39    3.59   1
  -2  -3  18   29.90    3.07   1
  -2  -3  18   31.77    3.00   1
  -2  -3  18   35.84    3.23   1
   1   3 -18    2.27    2.98   1
   1   3 -18    2.14    2.85   1
   1   3 -18    3.97    3.84   1
  -1  -3  18    4.67    2.79   1
  -1  -3  18    3.91    2.66   1
  -1  -3  18    5.54    2.56   1
   0   3 -18  117.78   11.45   1
   0   3 -18  121.00    8.95   1
   0   3 -18  124.37    7.28   1
   0  -3  18  120.77    6.02   1
   0  -3  18  117.70    5.53   1
  -1   3 -18    6.18    2.60   1
  -1   3 -18    9.71    2.71   1
  -1   3 -18    9.12    2.37   1
   1  -3  18   11.18    2.40   1
   1  -3  18   12.24    2.47   1
  -2   3 -18  176.65   11.21   1
   2  -3  18  175.37    7.65   1
   2  -3  18  173.95    8.85   1
   2  -3  18  161.80    8.33   1
   2  -3  18  174.17   10.10   1
  -3   3 -18   12.60    2.76   1
   3  -3  18   15.69    2.60   1
   3  -3  18   13.51    3.28   1
   3  -3  18   20.80    3.57   1
   3  -3  18   15.80    2.65   1
  -4   3 -18    2.96    3.40   1
   4  -3  18    2.77    4.08   1
   4  -3  18    3.33    4.27   1
   4  -3  18    0.04    4.38   1
   4  -3  18    2.56    4.25   1
   4   2 -18   61.81    7.32   1
   4   2 -18   71.46    6.41   1
  -4  -2  18   77.72    5.33   1
  -4  -2  18   89.86    5.18   1
  -4  -2  18   78.50    4.60   1
   3   2 -18   12.95    3.40   1
   3   2 -18   13.44    4.28   1
   3   2 -18   20.67    3.20   1
  -3  -2  18   22.43    3.03   1
  -3  -2  18   16.40    2.91   1
  -3  -2  18   24.16    3.23   1
   2   2 -18   11.33    3.08   1
   2   2 -18   12.66    3.48   1
   2   2 -18    7.64    2.79   1
  -2  -2  18   15.50    3.61   1
  -2  -2  18   13.42    3.53   1
  -2  -2  18   10.75    2.94   1
   1   2 -18    1.12    7.54   1
   1   2 -18    1.76    1.88   1
   1   2 -18   -0.47    5.69   1
  -1  -2  18   -0.97    1.79   1
  -1  -2  18    0.17    1.82   1
  -1  -2  18    0.48    1.20   1
   0   2 -18   -0.49    2.29   1
   0   2 -18    2.72    2.49   1
   0   2 -18    1.73    2.39   1
   0  -2  18    2.62    2.35   1
   0  -2  18    4.68    2.45   1
  -1   2 -18   12.97    2.22   1
  -1   2 -18    9.02    2.70   1
  -1   2 -18   15.09    2.98   1
   1  -2  18   17.28    2.27   1
   1  -2  18   15.79    2.29   1
  -2   2 -18   -1.50    1.63   1
  -2   2 -18    1.38    2.68   1
   2  -2  18    4.21    2.58   1
   2  -2  18   -2.49    2.49   1
  -3   2 -18    0.95    2.22   1
   3  -2  18    0.05    2.66   1
   3  -2  18    1.13    1.91   1
   3  -2  18    1.88    2.63   1
   3  -2  18    1.29    1.91   1
  -4   2 -18   10.07    4.72   1
   5   1 -18   29.62    5.87   1
   5   1 -18   34.25    4.81   1
  -5  -1  18   38.94    4.40   1
  -5  -1  18   48.77    5.35   1
   4   1 -18   12.26    3.81   1
   4   1 -18   10.89    3.66   1
   4   1 -18   17.77    4.96   1
  -4  -1  18   13.65    4.05   1
  -4  -1  18   12.55    4.02   1
  -4  -1  18   13.44    3.26   1
   3   1 -18    2.11    3.03   1
   3   1 -18    0.29    2.49   1
   3   1 -18    0.52    2.68   1
  -3  -1  18   -1.42    2.37   1
  -3  -1  18    2.56    2.23   1
  -3  -1  18   -2.05    2.29   1
  -3  -1  18   -0.55    2.16   1
   2   1 -18    7.66    3.45   1
   2   1 -18   12.43    2.94   1
  -2  -1  18   15.12    2.40   1
  -2  -1  18   15.12    3.29   1
  -2  -1  18   13.85    3.19   1
   1   1 -18   81.83    6.26   1
   1   1 -18   94.75    5.08   1
   1   1 -18   85.09    4.32   1
  -1  -1  18   85.48    4.58   1
  -1  -1  18   90.75    4.34   1
   0   1 -18   48.57    4.19   1
   0   1 -18   54.87    3.51   1
   0   1 -18   57.17    6.80   1
   0  -1  18   57.16    3.09   1
   0  -1  18   54.42    3.11   1
  -1   1 -18   10.72    2.44   1
  -1   1 -18    4.95    2.33   1
   1  -1  18    9.86    2.27   1
   1  -1  18    9.72    2.24   1
  -2   1 -18    5.97    2.39   1
  -2   1 -18    4.30    2.74   1
   2  -1  18    9.82    2.22   1
   2  -1  18    5.25    1.99   1
  -3   1 -18    0.05    2.08   1
  -3   1 -18    1.10    1.86   1
   3  -1  18   -1.31    3.11   1
  -4   1 -18    3.79    2.90   1
   4  -1  18    5.23    4.37   1
   5   0 -18    5.28    5.12   1
   5   0 -18    3.33    4.45   1
  -5   0  18    2.92    5.64   1
   4   0 -18   -2.86    3.04   1
   4   0 -18    0.51    4.26   1
   4   0 -18   -1.00    4.39   1
  -4   0  18    0.05    2.62   1
  -4   0  18    0.51    2.72   1
   3   0 -18   79.61    4.77   1
   3   0 -18   83.63    6.56   1
   3   0 -18   85.23    4.10   1
  -3   0  18   90.56    5.71   1
  -3   0  18   75.23    5.06   1
  -3   0  18   96.28    5.73   1
  -3   0  18   91.32    6.30   1
   2   0 -18    0.37    3.59   1
   2   0 -18   -0.40    2.53   1
   2   0 -18    0.10    2.78   1
  -2   0  18    1.44    4.03   1
  -2   0  18   -0.53    2.93   1
  -2   0  18    2.02    3.39   1
  -2   0  18    2.62    3.46   1
   1   0 -18   25.86    2.85   1
   1   0 -18   21.96    2.74   1
   1   0 -18   20.05    3.32   1
  -1   0  18   28.40    2.64   1
  -1   0  18   23.85    3.40   1
  -1   0  18   27.22    2.62   1
   0   0 -18    4.61    2.47   1
   0   0 -18    7.32    2.20   1
   0   0  18    7.00    2.11   1
   0   0  18    9.94    2.17   1
   0   0  18    3.09    2.20   1
  -1   0 -18    2.88    2.37   1
  -1   0 -18    3.95    2.28   1
   1   0  18    3.48    2.69   1
   1   0  18    4.33    1.90   1
   1   0  18    5.03    1.99   1
  -2   0 -18   50.64    4.38   1
  -2   0 -18   62.93    4.68   1
   2   0  18   55.10    3.74   1
   2   0  18   50.25    4.92   1
   2   0  18   54.32    4.01   1
  -3   0 -18    1.96    3.44   1
  -3   0 -18    3.03    2.71   1
   3   0  18   -0.19    3.50   1
   5  -1 -18   58.53    7.67   1
   5  -1 -18   50.62    7.12   1
  -5   1  18   60.66    5.05   1
  -5   1  18   48.78    4.65   1
   4  -1 -18   59.87    6.71   1
   4  -1 -18   56.85    6.47   1
  -4   1  18   53.65    5.35   1
  -4   1  18   68.06    5.46   1
   3  -1 -18   11.70    3.07   1
   3  -1 -18   10.92    3.18   1
  -3   1  18    9.30    3.59   1
  -3   1  18   15.45    3.29   1
   2  -1 -18   37.60    4.04   1
   2  -1 -18   41.99    3.52   1
   2  -1 -18   47.96    3.02   1
  -2   1  18   49.74    3.32   1
  -2   1  18   55.84    3.97   1
  -2   1  18   36.65    3.86   1
  -2   1  18   53.78    4.04   1
   1  -1 -18   -0.38    2.00   1
   1  -1 -18   -1.45    1.85   1
  -1   1  18   -0.80    2.39   1
  -1   1  18    2.99    2.34   1
  -1   1  18   -0.43    2.30   1
   0  -1 -18   15.27    3.27   1
   0  -1 -18   19.22    2.26   1
   0   1  18   16.12    3.49   1
   0   1  18   14.65    2.53   1
   0   1  18   19.84    2.13   1
   0   1  18   18.50    2.08   1
  -1  -1 -18   18.56    2.52   1
  -1  -1 -18   10.58    3.03   1
   1   1  18    8.43    3.26   1
   1   1  18   19.47    1.98   1
   1   1  18   15.33    1.90   1
  -2  -1 -18    3.03    2.74   1
  -2  -1 -18    3.16    2.51   1
   2   1  18    1.54    3.39   1
  -3  -1 -18    0.84    2.46   1
  -3  -1 -18    0.47    2.41   1
   3   1  18    0.13    3.24   1
   5  -2 -18    7.34    3.86   1
   5  -2 -18   11.06    5.51   1
  -5   2  18    6.66    4.17   1
  -5   2  18    7.49    4.52   1
   4  -2 -18   12.12    3.58   1
   4  -2 -18   20.03    3.98   1
  -4   2  18   21.17    4.03   1
  -4   2  18    9.82    4.00   1
   3  -2 -18   -0.59    3.11   1
   3  -2 -18    1.75    3.48   1
  -3   2  18   -0.66    5.75   1
  -3   2  18    1.98    3.67   1
   2  -2 -18    0.16    3.82   1
   2  -2 -18    1.12    2.42   1
  -2   2  18    0.99    2.73   1
  -2   2  18    2.77    5.00   1
   1  -2 -18   59.23    3.90   1
   1  -2 -18   58.22    4.40   1
  -1   2  18   59.31    3.76   1
  -1   2  18   59.51    3.79   1
  -1   2  18   58.67    4.68   1
   0  -2 -18    1.40    2.47   1
   0  -2 -18    3.74    2.76   1
   0   2  18    6.08    3.87   1
  -1  -2 -18    3.68    2.47   1
  -1  -2 -18   10.39    2.47   1
   1   2  18    4.36    4.24   1
  -2  -2 -18   69.24    8.60   1
  -2  -2 -18   87.59    5.55   1
   2   2  18   74.94    7.31   1
   4  -3 -18   -1.06    2.97   1
   4  -3 -18    1.58    3.34   1
  -4   3  18    0.37    6.07   1
  -4   3  18   -0.29    3.52   1
   3  -3 -18   39.53    4.44   1
   3  -3 -18   35.84    3.83   1
  -3   3  18   37.76    5.79   1
   2  -3 -18   52.90    3.97   1
  -2   3  18   39.77    5.37   1
   1  -3 -18    3.88    2.42   1
   1  -3 -18    7.50    4.83   1
  -1   3  18    2.60    3.76   1
   0  -3 -18   51.73    4.35   1
   0  -3 -18   47.50    4.35   1
   0   3  18   43.78    4.48   1
  -1  -3 -18   19.33    2.64   1
  -1  -3 -18   15.95    3.23   1
   1   3  18   10.38    5.23   1
   1   3  18   14.43    4.03   1
   2  -4 -18    2.44    3.40   1
  -2   4  18    0.77    4.88   1
   1  -4 -18   31.76    4.25   1
  -1   4  18   36.43    5.96   1
   1   5 -19    8.30    5.94   1
  -1  -5  19    4.54    3.45   1
  -1  -5  19    2.01    3.45   1
   0   5 -19   63.91    5.91   1
   0  -5  19   64.24    4.86   1
   0  -5  19   72.64    5.12   1
  -1   5 -19    4.21    3.71   1
   1  -5  19    7.97    3.59   1
   1  -5  19    5.35    3.43   1
  -2   5 -19   31.99    4.93   1
   2  -5  19   28.72    3.56   1
   2  -5  19   28.81    4.22   1
   2  -5  19   32.50    4.32   1
   2  -5  19   32.35    4.27   1
   3   4 -19   44.08    4.72   1
   3   4 -19   33.83    4.61   1
   3   4 -19   34.30    4.59   1
  -3  -4  19   55.35    4.35   1
  -3  -4  19   56.30    4.72   1
  -3  -4  19   51.16    4.24   1
   2   4 -19   10.31    3.51   1
   2   4 -19   10.43    4.81   1
   2   4 -19   17.26    3.74   1
  -2  -4  19   15.98    4.01   1
  -2  -4  19   13.29    3.84   1
   1   4 -19    3.91    3.59   1
   1   4 -19    0.72    3.56   1
   1   4 -19   -1.37    3.66   1
  -1  -4  19    2.91    3.07   1
  -1  -4  19    3.33    3.10   1
   0   4 -19   30.14    4.15   1
   0  -4  19   31.55    3.92   1
   0  -4  19   29.18    3.73   1
  -1   4 -19   -2.27    3.39   1
   1  -4  19    1.26    2.29   1
   1  -4  19    0.44    2.21   1
  -2   4 -19    1.76    4.50   1
   2  -4  19    8.20    4.15   1
   2  -4  19    1.66    4.04   1
   2  -4  19    0.78    2.90   1
   2  -4  19    0.91    2.97   1
  -3   4 -19   33.38    3.70   1
   3  -4  19   39.18    3.42   1
   3  -4  19   32.93    3.33   1
   3  -4  19   28.98    3.26   1
   3  -4  19   34.45    3.24   1
   3   3 -19    5.58    3.69   1
   3   3 -19    5.19    4.65   1
   3   3 -19    5.74    4.62   1
  -3  -3  19    1.02    4.71   1
  -3  -3  19    8.69    3.37   1
  -3  -3  19    3.75    4.74   1
   2   3 -19   20.91    3.38   1
   2   3 -19   15.64    3.50   1
   2   3 -19   13.45    3.26   1
  -2  -3  19   25.45    3.12   1
  -2  -3  19   24.85    2.84   1
  -2  -3  19   21.05    3.00   1
   1   3 -19    2.94    3.36   1
   1   3 -19    5.38    3.17   1
   1   3 -19    1.81    3.20   1
  -1  -3  19    6.10    3.00   1
  -1  -3  19    4.42    2.97   1
   0   3 -19    2.38    2.46   1
   0   3 -19    2.20    2.44   1
   0   3 -19    2.82    2.71   1
   0  -3  19    6.30    2.67   1
   0  -3  19    4.93    2.56   1
  -1   3 -19   99.54    6.01   1
   1  -3  19   98.34    4.53   1
   1  -3  19   97.50    5.41   1
  -2   3 -19   77.69    4.66   1
   2  -3  19   75.38    4.79   1
   2  -3  19   70.31    3.75   1
  -3   3 -19   17.56    4.16   1
   3  -3  19   17.42    2.89   1
   3  -3  19   16.10    2.76   1
   3  -3  19   19.65    2.84   1
   3  -3  19   17.29    2.84   1
   4   2 -19   31.21    5.68   1
   4   2 -19   31.89    4.79   1
  -4  -2  19   42.93    4.18   1
  -4  -2  19   40.56    4.77   1
  -4  -2  19   38.57    4.77   1
   3   2 -19    7.56    2.97   1
   3   2 -19    7.72    4.67   1
   3   2 -19    8.55    3.59   1
  -3  -2  19   11.85    3.13   1
  -3  -2  19   14.33    3.11   1
  -3  -2  19   17.07    3.22   1
   2   2 -19   30.43    4.05   1
   2   2 -19   34.55    5.49   1
   2   2 -19   32.59    5.12   1
  -2  -2  19   31.31    3.31   1
  -2  -2  19   29.04    3.26   1
  -2  -2  19   31.86    3.28   1
   1   2 -19   -0.78    2.29   1
   1   2 -19   -0.25    3.01   1
   1   2 -19    1.37    2.37   1
  -1  -2  19    0.92    2.23   1
  -1  -2  19    0.73    2.15   1
   0   2 -19   14.96    3.21   1
   0   2 -19   20.53    3.53   1
   0   2 -19   18.49    3.33   1
   0  -2  19   20.90    2.62   1
   0  -2  19   16.75    2.50   1
  -1   2 -19    0.10    3.24   1
  -1   2 -19    2.45    2.61   1
  -1   2 -19    2.38    2.57   1
   1  -2  19    3.69    2.35   1
   1  -2  19    0.03    2.33   1
  -2   2 -19   26.20    2.99   1
  -2   2 -19   18.06    2.45   1
   2  -2  19   21.19    2.54   1
   2  -2  19   25.69    2.68   1
  -3   2 -19    3.51    3.00   1
   3  -2  19    2.93    2.64   1
   3  -2  19    0.61    2.33   1
   3  -2  19    0.67    2.39   1
   3  -2  19    3.47    2.61   1
   4   1 -19    4.37    4.34   1
   4   1 -19    1.19    4.21   1
   4   1 -19    2.37    4.70   1
  -4  -1  19   -1.94    3.42   1
  -4  -1  19    9.47    5.43   1
  -4  -1  19    3.29    3.78   1
   3   1 -19   17.03    3.75   1
   3   1 -19   12.60    3.49   1
   3   1 -19   12.60    3.68   1
  -3  -1  19   11.48    3.11   1
  -3  -1  19   14.24    3.10   1
  -3  -1  19   15.43    3.91   1
  -3  -1  19   19.25    3.39   1
   2   1 -19   85.36    5.80   1
   2   1 -19   70.88    4.78   1
   2   1 -19   74.63    5.31   1
  -2  -1  19   85.27    7.99   1
  -2  -1  19   80.96    4.16   1
  -2  -1  19   90.04    4.31   1
   1   1 -19    0.16    2.00   1
   1   1 -19    0.87    2.19   1
   1   1 -19    0.27    2.28   1
  -1  -1  19    1.16    2.03   1
  -1  -1  19    0.83    1.93   1
   0   1 -19   67.76    4.16   1
   0   1 -19   63.47    4.40   1
   0   1 -19   70.81    4.14   1
   0  -1  19   72.94    4.06   1
   0  -1  19   71.22    4.42   1
  -1   1 -19   20.89    2.71   1
   1  -1  19   19.23    2.38   1
   1  -1  19   20.06    2.36   1
  -2   1 -19   16.52    3.09   1
  -2   1 -19   20.89    2.83   1
   2  -1  19   28.95    2.98   1
   2  -1  19   30.82    3.07   1
  -3   1 -19    6.08    2.45   1
  -3   1 -19   13.19    2.92   1
   4   0 -19    2.80    5.45   1
   4   0 -19    7.72    4.22   1
   4   0 -19    4.41    5.79   1
  -4   0  19    3.05    3.56   1
  -4   0  19    9.39    5.32   1
   3   0 -19    6.32    2.86   1
   3   0 -19    1.08    3.47   1
   3   0 -19   -1.78    3.37   1
  -3   0  19    1.24    4.92   1
  -3   0  19    4.19    3.18   1
  -3   0  19    2.96    4.33   1
  -3   0  19    3.91    3.30   1
   2   0 -19    1.35    4.00   1
   2   0 -19    1.69    2.86   1
   2   0 -19    1.94    2.31   1
  -2   0  19   -1.39    3.57   1
  -2   0  19   -3.23    3.61   1
  -2   0  19    3.23    4.41   1
   1   0 -19    5.93    2.61   1
   1   0 -19    6.70    2.72   1
   1   0 -19   11.02    2.44   1
  -1   0  19    9.39    2.47   1
  -1   0  19    9.48    2.49   1
   0   0 -19    2.31    2.31   1
   0   0 -19    2.96    2.73   1
   0   0  19    4.88    2.38   1
   0   0  19    3.74    2.31   1
  -1   0 -19   45.44    3.70   1
  -1   0 -19   42.94    3.40   1
   1   0  19   46.28    3.59   1
   1   0  19   35.34    3.70   1
   1   0  19   49.07    2.98   1
  -2   0 -19   10.84    2.63   1
  -2   0 -19    6.34    2.41   1
   2   0  19    2.52    2.90   1
  -3   0 -19   30.38    3.86   1
   4  -1 -19   14.98    3.82   1
   4  -1 -19   16.27    3.68   1
  -4   1  19   16.08    3.90   1
   3  -1 -19   55.21    5.03   1
   3  -1 -19   61.05    4.43   1
   3  -1 -19   56.15    4.92   1
  -3   1  19   59.51    4.87   1
  -3   1  19   48.62    5.18   1
   2  -1 -19    5.81    3.22   1
   2  -1 -19    7.35    3.22   1
   2  -1 -19    1.64    3.12   1
  -2   1  19    5.78    2.75   1
  -2   1  19    0.16    3.57   1
  -2   1  19    5.17    2.84   1
   1  -1 -19  132.46    9.40   1
   1  -1 -19  154.22    8.68   1
  -1   1  19  131.89    9.64   1
  -1   1  19  149.21    8.19   1
  -1   1  19  153.01    7.78   1
   0  -1 -19    6.47    2.24   1
   0  -1 -19    3.10    3.73   1
   0   1  19    5.81    2.11   1
   0   1  19    8.17    2.31   1
  -1  -1 -19    1.27    3.46   1
  -1  -1 -19    3.30    2.41   1
   1   1  19    1.11    3.05   1
  -2  -1 -19   17.14    2.81   1
  -2  -1 -19   19.32    3.05   1
   2   1  19   13.14    3.58   1
   4  -2 -19    1.97    4.16   1
   4  -2 -19   -1.48    4.05   1
  -4   2  19    3.58    4.86   1
  -4   2  19   -2.11    4.12   1
   3  -2 -19   31.24    4.64   1
   3  -2 -19   19.88    4.31   1
  -3   2  19   33.46    3.80   1
  -3   2  19   30.77    4.55   1
   2  -2 -19   18.80    2.36   1
   2  -2 -19   16.83    3.22   1
   2  -2 -19   17.01    3.12   1
  -2   2  19   17.59    2.71   1
  -2   2  19   12.35    3.59   1
  -2   2  19   18.51    2.68   1
   1  -2 -19    4.98    2.79   1
   1  -2 -19   12.39    2.27   1
  -1   2  19    7.14    3.66   1
  -1   2  19   13.53    2.38   1
  -1   2  19    8.17    2.13   1
   0  -2 -19    7.03    2.97   1
   0  -2 -19    9.49    3.00   1
   0   2  19    9.67    4.21   1
  -1  -2 -19   33.72    3.17   1
  -1  -2 -19   28.42    3.36   1
   1   2  19   20.98    3.54   1
   3  -3 -19    1.50    3.60   1
   3  -3 -19    2.62    3.46   1
  -3   3  19    5.46    3.86   1
  -3   3  19    3.63    7.11   1
   2  -3 -19    2.86    3.58   1
  -2   3  19    2.50    2.08   1
  -2   3  19   -1.72    3.11   1
  -2   3  19    0.74    1.99   1
   1  -3 -19    6.78    3.08   1
  -1   3  19    5.87    4.03   1
   0  -3 -19    0.53    3.87   1
   2   4 -20    1.77    4.06   1
   2   4 -20    0.80    3.58   1
   1   4 -20    3.20    3.69   1
  -1  -4  20    0.53    3.29   1
  -1  -4  20    1.24    3.26   1
   0   4 -20    0.89    3.25   1
   0  -4  20    1.75    3.08   1
   0  -4  20    1.36    2.85   1
  -1   4 -20    4.43    3.34   1
   1  -4  20   -0.69    2.70   1
   1  -4  20    1.56    2.85   1
   2  -4  20   -0.15    2.36   1
   2  -4  20    0.76    2.40   1
   3   3 -20   49.60    5.13   1
   3   3 -20   37.07    4.93   1
   3   3 -20   53.83    5.31   1
   2   3 -20   -1.25    4.03   1
   2   3 -20    2.24    3.46   1
   2   3 -20    3.42    4.06   1
  -2  -3  20    7.20    3.55   1
  -2  -3  20   -0.29    3.33   1
   1   3 -20   44.19    4.01   1
   1   3 -20   45.11    4.47   1
   1   3 -20   57.15    4.32   1
  -1  -3  20   55.96    4.38   1
  -1  -3  20   55.52    4.45   1
   0   3 -20   29.51    3.37   1
   0   3 -20   33.50    3.46   1
   0   3 -20   33.24    4.20   1
   0  -3  20   31.40    3.21   1
   0  -3  20   30.43    3.14   1
  -1   3 -20   10.61    3.13   1
   1  -3  20   10.03    2.68   1
   1  -3  20   12.51    2.90   1
  -2   3 -20    1.81    3.71   1
   2  -3  20    2.31    2.38   1
   2  -3  20   -0.40    3.23   1
   2  -3  20    0.33    2.35   1
   2  -3  20    1.68    2.34   1
   3   2 -20   -0.83    3.89   1
   3   2 -20   -1.30    3.07   1
   3   2 -20    4.28    4.16   1
  -3  -2  20    5.64    3.48   1
  -3  -2  20    0.56    3.22   1
   2   2 -20    6.22    3.64   1
   2   2 -20    2.67    3.21   1
   2   2 -20    5.53    3.13   1
  -2  -2  20    7.69    3.13   1
  -2  -2  20    3.93    2.84   1
   1   2 -20    5.48    3.11   1
   1   2 -20    5.31    3.00   1
   1   2 -20   10.02    3.05   1
  -1  -2  20    6.05    3.74   1
  -1  -2  20    7.08    3.69   1
   0   2 -20    0.39    2.83   1
   0   2 -20   -0.67    2.83   1
   0   2 -20    0.51    2.60   1
   0  -2  20    2.05    2.60   1
   0  -2  20   -1.28    2.52   1
  -1   2 -20   16.71    2.81   1
  -1   2 -20   26.01    3.20   1
  -1   2 -20   20.03    2.86   1
   1  -2  20   24.13    2.86   1
   1  -2  20   25.22    2.96   1
  -2   2 -20    0.81    3.00   1
   2  -2  20   -0.03    2.52   1
   2  -2  20    0.33    2.51   1
   3   1 -20   45.37    4.42   1
   3   1 -20   45.76    4.53   1
   3   1 -20   41.67    4.47   1
  -3  -1  20   56.50    4.27   1
  -3  -1  20   53.82    4.22   1
   2   1 -20   12.98    3.42   1
   2   1 -20   17.63    3.08   1
   2   1 -20   10.26    3.31   1
  -2  -1  20   20.10    3.37   1
  -2  -1  20   16.47    3.24   1
   1   1 -20   37.20    4.28   1
   1   1 -20   46.18    4.08   1
   1   1 -20   35.51    3.63   1
  -1  -1  20   41.37    3.25   1
  -1  -1  20   45.46    3.34   1
   0   1 -20    4.87    3.78   1
   0   1 -20    2.71    2.30   1
   0   1 -20   -0.41    3.57   1
   0  -1  20    0.00    3.07   1
   0  -1  20    4.10    3.16   1
  -1   1 -20    9.12    3.39   1
  -1   1 -20   10.63    3.45   1
   1  -1  20   17.29    2.55   1
   1  -1  20   14.56    2.57   1
  -2   1 -20    0.81    2.00   1
  -2   1 -20   -0.83    2.78   1
   2  -1  20    0.22    1.71   1
   2  -1  20    2.04    1.78   1
   4   0 -20    2.33    5.42   1
   3   0 -20    4.96    3.99   1
   3   0 -20    3.44    2.92   1
   3   0 -20    0.10    3.70   1
  -3   0  20   -0.13    3.64   1
  -3   0  20    2.76    3.60   1
  -3   0  20    3.60    3.51   1
   2   0 -20   -1.23    2.12   1
   2   0 -20    0.24    2.77   1
   2   0 -20   -1.92    2.46   1
  -2   0  20    0.60    4.32   1
  -2   0  20   -1.66    2.96   1
  -2   0  20   -1.14    3.12   1
   1   0 -20    2.30    3.13   1
   1   0 -20    2.17    2.59   1
   1   0 -20    2.52    4.27   1
  -1   0  20    0.29    2.43   1
  -1   0  20    1.50    2.40   1
   0   0 -20  114.65    6.46   1
   0   0 -20  107.72    7.37   1
   0   0  20  111.81    6.78   1
   0   0  20  103.23    7.49   1
  -1   0 -20   -0.92    3.32   1
  -1   0 -20   -1.56    2.79   1
   1   0  20    1.31    2.68   1
   1   0  20    4.84    2.68   1
  -2   0 -20   34.37    3.33   1
  -2   0 -20   32.62    3.33   1
   2   0  20   24.22    3.88   1
   3  -1 -20   -0.65    2.95   1
   3  -1 -20   -0.15    2.83   1
  -3   1  20   -0.77    2.57   1
  -3   1  20    0.92    4.45   1
  -3   1  20    0.08    2.45   1
   2  -1 -20   11.16    2.50   1
   2  -1 -20    8.04    3.37   1
   2  -1 -20    6.94    4.17   1
  -2   1  20    5.02    4.83   1
  -2   1  20    6.17    2.66   1
  -2   1  20    6.56    2.80   1
   1  -1 -20   20.28    3.32   1
   1  -1 -20   25.06    2.63   1
  -1   1  20   18.31    4.74   1
  -1   1  20   22.72    2.73   1
   0  -1 -20   -0.12    2.73   1
   0  -1 -20   -0.40    2.27   1
   0   1  20    1.09    2.11   1
   0   1  20    1.34    2.02   1
  -1  -1 -20    8.56    2.72   1
  -1  -1 -20    3.21    3.64   1
   2  -2 -20   27.54    4.43   1
   2  -2 -20   34.96    4.11   1
  -2   2  20   42.15    3.68   1
  -2   2  20   28.26    4.34   1
  -2   2  20   46.17    3.79   1
   1  -2 -20    7.74    4.33   1
   1  -2 -20    8.12    2.34   1
  -1   2  20    6.24    3.99   1
   0  -2 -20    6.25    3.11   1
   0   2  20    4.86    4.18   1
   1   3 -21    6.43    4.57   1
   1   3 -21   11.41    3.54   1
   1   3 -21   11.83    3.38   1
  -1  -3  21   12.52    3.18   1
  -1  -3  21   17.04    3.36   1
   0   3 -21    0.36    2.58   1
   0  -3  21   -1.83    2.48   1
   0  -3  21   -0.27    2.52   1
   1  -3  21    8.64    3.37   1
   1  -3  21   11.77    3.38   1
   2   2 -21    6.08    4.87   1
   2   2 -21    9.87    3.33   1
   2   2 -21    6.38    3.43   1
  -2  -2  21    5.70    3.08   1
  -2  -2  21    5.68    3.11   1
   1   2 -21   12.65    4.01   1
   1   2 -21   21.61    3.37   1
  -1  -2  21   17.15    3.00   1
  -1  -2  21   21.12    3.23   1
   0   2 -21   11.66    4.17   1
   0   2 -21    4.80    3.78   1
   0   2 -21    3.07    3.70   1
   0  -2  21    5.26    3.48   1
   0  -2  21    5.40    3.59   1
  -1   2 -21    1.59    3.09   1
  -1   2 -21    0.25    3.15   1
  -1   2 -21    0.20    2.29   1
   1  -2  21   -0.61    2.03   1
   1  -2  21    1.40    2.21   1
   2   1 -21   32.59    4.04   1
   2   1 -21   36.84    3.63   1
   2   1 -21   25.93    3.77   1
  -2  -1  21   41.47    3.86   1
  -2  -1  21   31.91    3.56   1
   1   1 -21   11.49    3.01   1
   1   1 -21   13.19    3.18   1
   1   1 -21   21.96    3.23   1
  -1  -1  21   22.13    2.99   1
  -1  -1  21   20.11    3.01   1
   0   1 -21   67.89    6.46   1
   0   1 -21   63.48    5.02   1
   0   1 -21   80.13    4.80   1
   0  -1  21   79.22    4.39   1
   0  -1  21   84.41    4.74   1
  -1   1 -21   -1.14    2.98   1
  -1   1 -21   -1.55    3.99   1
   1  -1  21    1.05    3.58   1
   1  -1  21    2.54    3.51   1
   2   0 -21   27.02    4.54   1
   2   0 -21   27.09    3.75   1
   2   0 -21   40.37    4.02   1
  -2   0  21   42.56    4.38   1
  -2   0  21   20.33    4.00   1
  -2   0  21   35.71    4.20   1
   1   0 -21   40.43    3.96   1
   1   0 -21   60.21    4.33   1
   1   0 -21   47.96    4.76   1
  -1   0  21   51.56    3.93   1
  -1   0  21   50.05    3.87   1
   0   0 -21    8.20    3.54   1
   0   0 -21    1.31    2.91   1
   0   0  21    8.02    3.34   1
   0   0  21   11.11    3.43   1
   1  -1 -21    6.37    3.35   1
  -1   1  21    4.40    4.48   1

;
_shelx_hkl_checksum   91287

