data_k01029_config-2
loop_
 _symmetry_equiv_pos_as_xyz
'x, y, z'
'-x, -y, -z'

_cell_length_a	7.5650(15)
_cell_length_b	7.7500(15)
_cell_length_c	16.835(3)
_cell_angle_alpha	89.15(3)
_cell_angle_beta	78.42(3)
_cell_angle_gamma	83.63(3)
loop_
 _atom_site_label
 _atom_site_type_symbol
 _atom_site_fract_x
 _atom_site_fract_y
 _atom_site_fract_z
 _atom_site_occupancy
 _atom_site_disorder_group
Si	Si	0.24768(7)	0.70921(7)	0.32285(3)	1.0	.
C1	C	0.4466(2)	0.9381(2)	0.08003(10)	1.0	.
C2	C	0.3199(2)	1.0454(2)	0.04465(10)	1.0	.
C3	C	0.1407(2)	1.0922(2)	0.08608(11)	1.0	.
H3	H	0.1050	1.0530	0.1400	1.0	.
C4	C	0.0142(2)	1.1931(2)	0.05141(11)	1.0	.
C5	C	-0.1682(3)	1.2397(2)	0.09352(12)	1.0	.
H5	H	-0.2053	1.2013	0.1476	1.0	.
C6	C	-0.2889(3)	1.3374(3)	0.05775(12)	1.0	.
H6	H	-0.4092	1.3679	0.0870	1.0	.
C7	C	-0.2372(3)	1.3951(3)	-0.02323(12)	1.0	.
H7	H	-0.3238	1.4629	-0.0478	1.0	.
C8	C	-0.0669(3)	1.3548(2)	-0.06560(12)	1.0	.
H8	H	-0.0350	1.3952	-0.1196	1.0	.
C9	C	0.0667(3)	1.2520(2)	-0.03062(11)	1.0	.
C10	C	0.2432(2)	1.2092(2)	-0.07194(11)	1.0	.
H10	H	0.2778	1.2502	-0.1257	1.0	.
C11	C	0.3735(2)	1.1069(2)	-0.03731(10)	1.0	.
C12	C	0.3890(2)	0.8704(2)	0.15976(11)	1.0	.
C13	C	0.3365(3)	0.8091(3)	0.22536(11)	1.0	.
C14	C	0.3185(3)	0.4684(3)	0.31306(12)	1.0	.
H14	H	0.2698	0.4148	0.3662	1.0	.
C15	C	0.2391(4)	0.3841(3)	0.24775(14)	1.0	.
H15A	H	0.2754	0.4417	0.1957	1.0	.
H15B	H	0.1064	0.3963	0.2635	1.0	.
H15C	H	0.2850	0.2606	0.2425	1.0	.
C16	C	0.5256(3)	0.4279(3)	0.29610(15)	1.0	.
H16A	H	0.5581	0.3020	0.2906	1.0	.
H16B	H	0.5732	0.4712	0.3411	1.0	.
H16C	H	0.5781	0.4844	0.2458	1.0	.
C17	C	0.3563(3)	0.8042(3)	0.40056(12)	1.0	.
H17	H	0.4903	0.7793	0.3803	1.0	.
C18	C	0.3169(3)	0.7199(3)	0.48408(13)	1.0	.
H18A	H	0.3945	0.7617	0.5181	1.0	.
H18B	H	0.3419	0.5935	0.4781	1.0	.
H18C	H	0.1892	0.7507	0.5095	1.0	.
C19	C	0.3180(4)	1.0018(3)	0.40823(16)	1.0	.
H19A	H	0.1886	1.0338	0.4303	1.0	.
H19B	H	0.3508	1.0540	0.3547	1.0	.
H19C	H	0.3900	1.0442	0.4446	1.0	.
C20'	C	-0.0060(3)	0.7547(3)	0.34252(16)	1.0	2
H20'	H	-0.0161	0.8649	0.3740	1.0	2
C21'	C	-0.1076(9)	0.819(2)	0.2858(7)	1.0	2
H21D	H	-0.0310	0.8802	0.2432	1.0	2
H21E	H	-0.2107	0.8992	0.3127	1.0	2
H21F	H	-0.1523	0.7223	0.2617	1.0	2
C22'	C	-0.114(3)	0.649(3)	0.4110(11)	1.0	2
H22D	H	-0.0413	0.6188	0.4521	1.0	2
H22E	H	-0.1430	0.5422	0.3880	1.0	2
H22F	H	-0.2275	0.7186	0.4360	1.0	2
